REMARK  Name = CHEMBL424664
REMARK  10 active torsions:
REMARK  status: ('A' for Active; 'I' for Inactive)
REMARK    1  A    between atoms: C_1  and  O_2
REMARK    2  A    between atoms: O_2  and  C_3
REMARK    3  A    between atoms: C_7  and  N_9
REMARK    4  A    between atoms: C_14  and  O_24
REMARK    5  A    between atoms: C_16  and  O_17
REMARK    6  A    between atoms: O_17  and  C_18
REMARK    7  A    between atoms: O_24  and  C_25
REMARK    8  A    between atoms: C_25  and  C_26
REMARK    9  A    between atoms: C_26  and  C_27
REMARK   10  A    between atoms: C_27  and  N_28
REMARK                            x       y       z     vdW  Elec       q    Type
REMARK                         _______ _______ _______ _____ _____    ______ ____
ROOT
ATOM      1  N   UNL     1      -4.652   0.287   0.022  0.00  0.00    -0.282 N 
ATOM      2  C   UNL     1      -4.544   1.664   0.024  0.00  0.00    +0.139 A 
ATOM      3  C   UNL     1      -5.693   2.481  -0.057  0.00  0.00    +0.082 A 
ATOM      4  C   UNL     1      -5.517   3.888  -0.050  0.00  0.00    +0.083 A 
ATOM      5  C   UNL     1      -6.636   4.722  -0.130  0.00  0.00    +0.074 A 
ATOM      6  C   UNL     1      -7.898   4.169  -0.215  0.00  0.00    +0.126 A 
ATOM      7  C   UNL     1      -8.073   2.785  -0.222  0.00  0.00    +0.092 A 
ATOM      8  C   UNL     1      -6.987   1.939  -0.145  0.00  0.00    +0.137 A 
ATOM      9  N   UNL     1      -4.271   4.380   0.034  0.00  0.00    -0.235 NA
ATOM     10  C   UNL     1      -3.240   3.572   0.108  0.00  0.00    +0.223 A 
ATOM     11  N   UNL     1      -3.358   2.254   0.109  0.00  0.00    -0.220 NA
ATOM     12  H   UNL     1      -5.527  -0.131   0.046  0.00  0.00    +0.155 HD
ENDROOT
BRANCH   1  17
ATOM     13  C   UNL     1      -1.199  -0.635  -0.083  0.00  0.00    +0.216 A 
ATOM     14  C   UNL     1      -1.243  -2.023  -0.087  0.00  0.00    +0.069 A 
ATOM     15  C   UNL     1      -2.473  -2.661  -0.053  0.00  0.00    +0.028 A 
ATOM     16  C   UNL     1      -3.621  -1.886  -0.017  0.00  0.00    +0.081 A 
ATOM     17  C   UNL     1      -3.505  -0.501  -0.015  0.00  0.00    +0.146 A 
ATOM     18  N   UNL     1      -2.313   0.077  -0.042  0.00  0.00    -0.196 NA
ATOM     19 CL   UNL     1      -5.186  -2.636   0.025  0.00  0.00    -0.080 Cl
BRANCH  13  21
ATOM     20  C   UNL     1      -0.018   1.426  -0.102  0.00  0.00    +0.279 C 
ATOM     21  O   UNL     1       0.001  -0.003  -0.115  0.00  0.00    -0.480 OA
ENDBRANCH  13  21
ENDBRANCH   1  17
BRANCH   8  22
ATOM     22  O   UNL     1      -7.165   0.594  -0.153  0.00  0.00    -0.488 OA
BRANCH  22  23
ATOM     23  C   UNL     1      -8.496   0.118  -0.362  0.00  0.00    +0.178 C 
ATOM     24  C   UNL     1      -9.242   0.078   0.975  0.00  0.00    +0.072 C 
ATOM     25  C   UNL     1     -10.640  -0.507   0.754  0.00  0.00    +0.163 C 
ATOM     26  O   UNL     1     -10.524  -1.810   0.178  0.00  0.00    -0.380 OA
ATOM     27  C   UNL     1      -9.876  -1.828  -1.096  0.00  0.00    +0.163 C 
ATOM     28  C   UNL     1      -8.448  -1.296  -0.949  0.00  0.00    +0.072 C 
ENDBRANCH  22  23
ENDBRANCH   8  22
BRANCH   6  29
ATOM     29  O   UNL     1      -8.982   4.982  -0.293  0.00  0.00    -0.492 OA
BRANCH  29  30
ATOM     30  C   UNL     1      -8.740   6.390  -0.281  0.00  0.00    +0.230 C 
BRANCH  30  31
ATOM     31  C   UNL     1     -10.071   7.138  -0.376  0.00  0.00    +0.056 C 
BRANCH  31  32
ATOM     32  C   UNL     1      -9.812   8.646  -0.363  0.00  0.00    +0.088 C 
BRANCH  32  33
ATOM     33  N   UNL     1     -11.090   9.364  -0.454  0.00  0.00    -0.298 NA
ATOM     34  C   UNL     1     -11.730   9.137  -1.757  0.00  0.00    +0.112 C 
ATOM     35  C   UNL     1     -13.083   9.852  -1.787  0.00  0.00    +0.175 C 
ATOM     36  O   UNL     1     -12.888  11.243  -1.514  0.00  0.00    -0.377 OA
ATOM     37  C   UNL     1     -12.267  11.500  -0.252  0.00  0.00    +0.175 C 
ATOM     38  C   UNL     1     -10.905  10.801  -0.207  0.00  0.00    +0.112 C 
ENDBRANCH  32  33
ENDBRANCH  31  32
ENDBRANCH  30  31
ENDBRANCH  29  30
ENDBRANCH   6  29
TORSDOF 9
