REMARK  Name = CHEMBL56504
REMARK  10 active torsions:
REMARK  status: ('A' for Active; 'I' for Inactive)
REMARK    1  A    between atoms: C_1  and  N_2
REMARK    2  A    between atoms: N_2  and  C_3
REMARK    3  A    between atoms: N_2  and  C_4
REMARK    4  A    between atoms: C_4  and  C_5
REMARK    5  A    between atoms: C_5  and  C_6
REMARK    6  A    between atoms: C_6  and  C_7
REMARK    7  A    between atoms: C_12  and  C_13
REMARK    8  A    between atoms: C_17  and  S_24
REMARK    9  A    between atoms: S_24  and  N_27
REMARK   10  A    between atoms: N_27  and  C_28
REMARK                            x       y       z     vdW  Elec       q    Type
REMARK                         _______ _______ _______ _____ _____    ______ ____
ROOT
ATOM      1  C   UNL     1      -3.597  -4.988   2.180  0.00  0.00    +0.039 C 
ATOM      2  C   UNL     1      -4.120  -5.745   3.211  0.00  0.00    +0.048 C 
ATOM      3  C   UNL     1      -4.046  -5.463   4.662  0.00  0.00    +0.010 A 
ATOM      4  C   UNL     1      -3.477  -4.434   5.406  0.00  0.00    +0.039 A 
ATOM      5  C   UNL     1      -3.577  -4.449   6.782  0.00  0.00    +0.109 A 
ATOM      6  C   UNL     1      -4.241  -5.484   7.420  0.00  0.00    +0.030 A 
ATOM      7  C   UNL     1      -4.809  -6.509   6.691  0.00  0.00    +0.026 A 
ATOM      8  C   UNL     1      -4.719  -6.511   5.303  0.00  0.00    +0.042 A 
ATOM      9  N   UNL     1      -5.191  -7.402   4.347  0.00  0.00    -0.281 N 
ATOM     10  C   UNL     1      -4.874  -7.000   3.104  0.00  0.00    +0.249 C 
ATOM     11  O   UNL     1      -5.160  -7.577   2.070  0.00  0.00    -0.270 OA
ATOM     12  H   UNL     1      -5.690  -8.209   4.550  0.00  0.00    +0.155 HD
ENDROOT
BRANCH   1  18
ATOM     13  C   UNL     1      -3.913  -4.733  -0.283  0.00  0.00    -0.019 A 
ATOM     14  C   UNL     1      -3.840  -5.606  -1.362  0.00  0.00    -0.023 A 
ATOM     15  C   UNL     1      -3.535  -6.844  -0.886  0.00  0.00    +0.020 A 
ATOM     16  N   UNL     1      -3.412  -6.777   0.460  0.00  0.00    -0.358 N 
ATOM     17  H   UNL     1      -3.197  -7.519   1.046  0.00  0.00    +0.166 HD
ATOM     18  C   UNL     1      -3.637  -5.475   0.857  0.00  0.00    +0.044 A 
ATOM     19  C   UNL     1      -3.373  -8.065  -1.760  0.00  0.00    +0.053 C 
ATOM     20  C   UNL     1      -4.003  -7.769  -3.126  0.00  0.00    +0.006 C 
ATOM     21  C   UNL     1      -3.473  -6.435  -3.657  0.00  0.00    +0.005 C 
ATOM     22  C   UNL     1      -4.052  -5.287  -2.821  0.00  0.00    +0.037 C 
BRANCH  13  23
ATOM     23  C   UNL     1      -4.226  -3.260  -0.340  0.00  0.00    +0.036 C 
BRANCH  23  24
ATOM     24  C   UNL     1      -2.927  -2.469  -0.509  0.00  0.00    -0.014 C 
BRANCH  24  25
ATOM     25  C   UNL     1      -3.244  -0.973  -0.567  0.00  0.00    -0.079 C 
BRANCH  25  27
ATOM     26  C   UNL     1      -2.311   1.211  -0.905  0.00  0.00    -0.097 C 
ATOM     27  N   UNL     1      -1.997  -0.214  -0.729  0.00  0.00    +0.376 N 
ATOM     28  C   UNL     1      -1.160  -0.387   0.466  0.00  0.00    -0.097 C 
ATOM     29  H   UNL     1      -1.501  -0.551  -1.540  0.00  0.00    -0.083 HD
ENDBRANCH  25  27
ENDBRANCH  24  25
ENDBRANCH  23  24
ENDBRANCH  13  23
ENDBRANCH   1  18
BRANCH   5  30
ATOM     30  S   UNL     1      -2.859  -3.149   7.731  0.00  0.00    +0.072 S 
ATOM     31  O   UNL     1      -2.619  -3.678   9.028  0.00  0.00    -0.150 OA
ATOM     32  O   UNL     1      -1.825  -2.588   6.933  0.00  0.00    -0.150 OA
BRANCH  30  33
ATOM     33  N   UNL     1      -4.013  -1.974   7.905  0.00  0.00    -0.215 N 
ATOM     34  H   UNL     1      -3.847  -1.078   7.572  0.00  0.00    +0.174 HD
BRANCH  33  35
ATOM     35  C   UNL     1      -5.225  -2.273   8.531  0.00  0.00    +0.066 A 
ATOM     36  C   UNL     1      -5.258  -3.168   9.593  0.00  0.00    +0.026 A 
ATOM     37  C   UNL     1      -6.458  -3.461  10.210  0.00  0.00    +0.002 A 
ATOM     38  C   UNL     1      -7.627  -2.865   9.773  0.00  0.00    +0.002 A 
ATOM     39  C   UNL     1      -7.599  -1.974   8.716  0.00  0.00    +0.022 A 
ATOM     40  C   UNL     1      -6.401  -1.671   8.097  0.00  0.00    +0.063 A 
ATOM     41 CL   UNL     1      -6.365  -0.547   6.775  0.00  0.00    -0.082 Cl
ENDBRANCH  33  35
ENDBRANCH  30  33
ENDBRANCH   5  30
TORSDOF 8
