REMARK  Name = CHEMBL569073
REMARK  8 active torsions:
REMARK  status: ('A' for Active; 'I' for Inactive)
REMARK    1  A    between atoms: C_1  and  O_2
REMARK    2  A    between atoms: O_2  and  C_3
REMARK    3  A    between atoms: C_5  and  N_11
REMARK    4  A    between atoms: N_11  and  C_12
REMARK    5  A    between atoms: C_16  and  C_24
REMARK    6  A    between atoms: C_21  and  C_22
REMARK    7  A    between atoms: C_27  and  C_30
REMARK    8  A    between atoms: C_30  and  N_31
REMARK                            x       y       z     vdW  Elec       q    Type
REMARK                         _______ _______ _______ _____ _____    ______ ____
ROOT
ATOM      1  C   UNL     1       2.499   1.837  -3.861  0.00  0.00    +0.060 A 
ATOM      2  C   UNL     1       2.865   2.669  -4.946  0.00  0.00    +0.023 A 
ATOM      3  C   UNL     1       3.097   2.132  -6.221  0.00  0.00    +0.012 A 
ATOM      4  C   UNL     1       3.448   2.950  -7.249  0.00  0.00    +0.009 A 
ATOM      5  C   UNL     1       3.582   4.332  -7.049  0.00  0.00    -0.014 A 
ATOM      6  C   UNL     1       3.360   4.888  -5.802  0.00  0.00    +0.037 A 
ATOM      7  C   UNL     1       2.997   4.062  -4.729  0.00  0.00    +0.073 A 
ATOM      8  N   UNL     1       2.775   4.580  -3.512  0.00  0.00    -0.254 NA
ATOM      9  C   UNL     1       2.435   3.835  -2.492  0.00  0.00    +0.132 A 
ATOM     10  C   UNL     1       2.277   2.445  -2.616  0.00  0.00    +0.091 A 
ENDROOT
BRANCH   5  11
ATOM     11  C   UNL     1       3.967   5.205  -8.185  0.00  0.00    +0.000 A 
ATOM     12  C   UNL     1       4.190   4.663  -9.454  0.00  0.00    +0.012 A 
ATOM     13  C   UNL     1       4.547   5.520 -10.481  0.00  0.00    +0.025 A 
ATOM     14  C   UNL     1       4.669   6.873 -10.221  0.00  0.00    +0.055 A 
ATOM     15  N   UNL     1       4.452   7.356  -9.013  0.00  0.00    -0.258 NA
ATOM     16  C   UNL     1       4.105   6.580  -8.006  0.00  0.00    +0.119 A 
BRANCH  14  17
ATOM     17  C   UNL     1       5.057   7.810 -11.336  0.00  0.00    +0.140 C 
BRANCH  17  18
ATOM     18  N   UNL     1       3.846   8.388 -11.933  0.00  0.00    -0.292 NA
ATOM     19  C   UNL     1       3.050   7.356 -12.614  0.00  0.00    +0.113 C 
ATOM     20  C   UNL     1       1.771   7.989 -13.169  0.00  0.00    +0.175 C 
ATOM     21  O   UNL     1       2.119   9.068 -14.041  0.00  0.00    -0.377 OA
ATOM     22  C   UNL     1       2.894  10.091 -13.411  0.00  0.00    +0.175 C 
ATOM     23  C   UNL     1       4.184   9.480 -12.858  0.00  0.00    +0.113 C 
ENDBRANCH  17  18
ENDBRANCH  14  17
ENDBRANCH   5  11
BRANCH   1  24
ATOM     24  N   UNL     1       2.359   0.474  -4.024  0.00  0.00    -0.312 N 
ATOM     25  H   UNL     1       2.812   0.024  -4.754  0.00  0.00    +0.152 HD
BRANCH  24  28
ATOM     26  C   UNL     1       1.358  -1.905  -1.402  0.00  0.00    +0.140 A 
ATOM     27  C   UNL     1       2.148  -1.182  -2.281  0.00  0.00    +0.071 A 
ATOM     28  C   UNL     1       1.564  -0.258  -3.136  0.00  0.00    +0.053 A 
ATOM     29  C   UNL     1       0.188  -0.061  -3.109  0.00  0.00    +0.064 A 
ATOM     30  C   UNL     1      -0.597  -0.784  -2.231  0.00  0.00    +0.045 A 
ATOM     31  C   UNL     1      -0.017  -1.709  -1.382  0.00  0.00    +0.084 A 
ATOM     32 CL   UNL     1      -1.007  -2.621  -0.286  0.00  0.00    -0.080 Cl
ATOM     33 CL   UNL     1      -0.544   1.095  -4.178  0.00  0.00    -0.082 Cl
BRANCH  26  35
ATOM     34  C   UNL     1       3.355  -2.879  -0.554  0.00  0.00    +0.277 C 
ATOM     35  O   UNL     1       1.927  -2.811  -0.563  0.00  0.00    -0.494 OA
ENDBRANCH  26  35
ENDBRANCH  24  28
ENDBRANCH   1  24
BRANCH  10  36
ATOM     36  C   UNL     1       1.898   1.656  -1.483  0.00  0.00    +0.103 C 
ATOM     37  N   UNL     1       1.597   1.030  -0.584  0.00  0.00    -0.191 NA
ENDBRANCH  10  36
TORSDOF 7
