REMARK  Name = CHEMBL230720
REMARK  7 active torsions:
REMARK  status: ('A' for Active; 'I' for Inactive)
REMARK    1  A    between atoms: C_1  and  C_2
REMARK    2  A    between atoms: C_6  and  C_35
REMARK    3  A    between atoms: C_7  and  C_8
REMARK    4  A    between atoms: C_10  and  C_34
REMARK    5  A    between atoms: N_18  and  C_19
REMARK    6  A    between atoms: C_22  and  C_25
REMARK    7  A    between atoms: N_27  and  N_28
REMARK                            x       y       z     vdW  Elec       q    Type
REMARK                         _______ _______ _______ _____ _____    ______ ____
ROOT
ATOM      1  C   UNL     1      -0.130  -0.224   2.639  0.00  0.00    -0.015 A 
ATOM      2  C   UNL     1       0.894  -0.458   3.571  0.00  0.00    +0.014 A 
ATOM      3  C   UNL     1       0.933   0.219   4.749  0.00  0.00    -0.022 A 
ATOM      4  C   UNL     1      -0.060   1.167   5.045  0.00  0.00    +0.097 A 
ATOM      5  C   UNL     1      -1.100   1.412   4.110  0.00  0.00    +0.112 A 
ATOM      6  C   UNL     1      -1.119   0.706   2.898  0.00  0.00    +0.040 A 
ATOM      7  N   UNL     1      -2.038   2.319   4.408  0.00  0.00    -0.144 NA
ATOM      8  N   UNL     1      -1.984   2.951   5.529  0.00  0.00    -0.112 NA
ATOM      9  C   UNL     1      -1.014   2.733   6.419  0.00  0.00    +0.240 A 
ATOM     10  N   UNL     1      -0.055   1.854   6.194  0.00  0.00    -0.211 NA
ATOM     11  N   UNL     1      -1.012   3.446   7.607  0.00  0.00    -0.282 N 
ATOM     12  C   UNL     1       2.041  -0.047   5.736  0.00  0.00    +0.046 C 
ATOM     13  H   UNL     1      -0.271   3.357   8.225  0.00  0.00    +0.155 HD
ENDROOT
BRANCH   1  20
ATOM     14  C   UNL     1       0.242   1.183   0.139  0.00  0.00    +0.044 C 
ATOM     15  C   UNL     1       0.032  -0.309   0.152  0.00  0.00    -0.042 A 
ATOM     16  C   UNL     1       0.021  -1.017  -1.033  0.00  0.00    +0.004 A 
ATOM     17  C   UNL     1      -0.173  -2.386  -1.022  0.00  0.00    +0.001 A 
ATOM     18  C   UNL     1      -0.356  -3.055   0.175  0.00  0.00    +0.004 A 
ATOM     19  C   UNL     1      -0.347  -2.357   1.366  0.00  0.00    -0.042 A 
ATOM     20  C   UNL     1      -0.147  -0.978   1.362  0.00  0.00    -0.012 A 
ATOM     21  C   UNL     1      -0.548  -3.087   2.670  0.00  0.00    +0.044 C 
ENDBRANCH   1  20
BRANCH  11  22
ATOM     22  C   UNL     1      -2.076   4.291   7.913  0.00  0.00    +0.034 A 
ATOM     23  C   UNL     1      -3.365   3.961   7.505  0.00  0.00    +0.024 A 
ATOM     24  C   UNL     1      -4.418   4.794   7.805  0.00  0.00    +0.015 A 
ATOM     25  C   UNL     1      -4.193   5.973   8.522  0.00  0.00    +0.038 A 
ATOM     26  C   UNL     1      -2.897   6.301   8.931  0.00  0.00    +0.015 A 
ATOM     27  C   UNL     1      -1.849   5.461   8.631  0.00  0.00    +0.024 A 
BRANCH  25  28
ATOM     28  C   UNL     1      -5.319   6.869   8.845  0.00  0.00    +0.258 C 
ATOM     29  O   UNL     1      -6.446   6.582   8.489  0.00  0.00    -0.269 OA
ATOM     30  N   UNL     1      -5.100   8.005   9.536  0.00  0.00    -0.244 N 
ATOM     31  H   UNL     1      -4.202   8.233   9.821  0.00  0.00    +0.170 HD
BRANCH  30  32
ATOM     32  N   UNL     1      -6.144   8.834   9.836  0.00  0.00    -0.230 NA
ATOM     33  C   UNL     1      -6.343   8.926  11.289  0.00  0.00    +0.086 C 
ATOM     34  C   UNL     1      -7.555   9.814  11.579  0.00  0.00    -0.065 C 
ATOM     35  N   UNL     1      -7.329  11.151  11.014  0.00  0.00    +0.381 N 
ATOM     36  C   UNL     1      -7.156  11.046   9.559  0.00  0.00    -0.065 C 
ATOM     37  C   UNL     1      -5.941  10.167   9.252  0.00  0.00    +0.086 C 
ATOM     38  H   UNL     1      -8.123  11.740  11.216  0.00  0.00    -0.086 HD
ATOM     39  H   UNL     1      -6.499  11.553  11.423  0.00  0.00    -0.086 HD
ENDBRANCH  30  32
ENDBRANCH  25  28
ENDBRANCH  11  22
TORSDOF 4
