REMARK  Name = CHEMBL520160
REMARK  9 active torsions:
REMARK  status: ('A' for Active; 'I' for Inactive)
REMARK    1  A    between atoms: C_1  and  C_2
REMARK    2  A    between atoms: C_7  and  O_8
REMARK    3  A    between atoms: O_8  and  C_9
REMARK    4  A    between atoms: C_9  and  C_10
REMARK    5  A    between atoms: C_10  and  C_11
REMARK    6  A    between atoms: C_11  and  N_12
REMARK    7  A    between atoms: N_15  and  C_18
REMARK    8  A    between atoms: C_21  and  C_30
REMARK    9  A    between atoms: C_22  and  N_23
REMARK                            x       y       z     vdW  Elec       q    Type
REMARK                         _______ _______ _______ _____ _____    ______ ____
ROOT
ATOM      1  C   UNL     1      -4.192   0.088  -1.665  0.00  0.00    +0.047 C 
ATOM      2  C   UNL     1      -3.242  -0.992  -1.215  0.00  0.00    -0.008 A 
ATOM      3  C   UNL     1      -2.197  -1.344  -2.013  0.00  0.00    +0.018 A 
ATOM      4  C   UNL     1      -1.310  -2.349  -1.600  0.00  0.00    +0.023 A 
ATOM      5  C   UNL     1      -1.504  -2.993  -0.353  0.00  0.00    +0.076 A 
ATOM      6  C   UNL     1      -2.588  -2.611   0.450  0.00  0.00    +0.074 A 
ATOM      7  C   UNL     1      -3.439  -1.617   0.019  0.00  0.00    +0.125 A 
ATOM      8  N   UNL     1      -0.659  -3.953   0.050  0.00  0.00    -0.253 NA
ATOM      9  C   UNL     1       0.361  -4.330  -0.678  0.00  0.00    +0.132 A 
ATOM     10  C   UNL     1       0.630  -3.745  -1.927  0.00  0.00    +0.092 A 
ATOM     11  C   UNL     1      -0.215  -2.735  -2.408  0.00  0.00    +0.061 A 
ENDROOT
BRANCH  11  12
ATOM     12  N   UNL     1       0.014  -2.136  -3.631  0.00  0.00    -0.298 N 
ATOM     13  C   UNL     1      -0.191  -2.852  -4.806  0.00  0.00    +0.123 A 
ATOM     14  C   UNL     1      -0.489  -4.210  -4.743  0.00  0.00    +0.044 A 
ATOM     15  C   UNL     1      -0.690  -4.910  -5.919  0.00  0.00    +0.005 A 
ATOM     16  C   UNL     1      -0.587  -4.226  -7.123  0.00  0.00    +0.020 A 
ATOM     17  C   UNL     1      -0.288  -2.878  -7.112  0.00  0.00    +0.113 A 
ATOM     18  N   UNL     1      -0.105  -2.235  -5.974  0.00  0.00    -0.240 NA
ATOM     19  H   UNL     1       0.318  -1.215  -3.671  0.00  0.00    +0.154 HD
ENDBRANCH  11  12
BRANCH  10  20
ATOM     20  C   UNL     1       1.755  -4.177  -2.700  0.00  0.00    +0.103 C 
ATOM     21  N   UNL     1       2.647  -4.520  -3.314  0.00  0.00    -0.191 NA
ENDBRANCH  10  20
BRANCH   7  22
ATOM     22  O   UNL     1      -4.486  -1.244   0.800  0.00  0.00    -0.492 OA
BRANCH  22  23
ATOM     23  C   UNL     1      -4.635  -1.919   2.050  0.00  0.00    +0.230 C 
BRANCH  23  24
ATOM     24  C   UNL     1      -5.859  -1.369   2.785  0.00  0.00    +0.056 C 
BRANCH  24  25
ATOM     25  C   UNL     1      -6.019  -2.092   4.123  0.00  0.00    +0.087 C 
BRANCH  25  26
ATOM     26  N   UNL     1      -7.194  -1.563   4.828  0.00  0.00    -0.306 NA
ATOM     27  C   UNL     1      -6.989  -0.161   5.217  0.00  0.00    +0.066 C 
ATOM     28  C   UNL     1      -8.255   0.369   5.894  0.00  0.00    -0.064 C 
ATOM     29  N   UNL     1      -8.555  -0.446   7.078  0.00  0.00    +0.379 N 
ATOM     30  C   UNL     1      -8.782  -1.839   6.671  0.00  0.00    -0.064 C 
ATOM     31  C   UNL     1      -7.520  -2.387   6.001  0.00  0.00    +0.066 C 
ATOM     32  C   UNL     1      -9.760   0.074   7.738  0.00  0.00    -0.096 C 
ATOM     33  H   UNL     1      -7.777  -0.406   7.720  0.00  0.00    -0.082 HD
ENDBRANCH  25  26
ENDBRANCH  24  25
ENDBRANCH  23  24
ENDBRANCH  22  23
ENDBRANCH   7  22
TORSDOF 7
