REMARK  Name = CHEMBL172450
REMARK  10 active torsions:
REMARK  status: ('A' for Active; 'I' for Inactive)
REMARK    1  A    between atoms: C_1  and  O_2
REMARK    2  A    between atoms: O_2  and  C_3
REMARK    3  A    between atoms: C_7  and  N_9
REMARK    4  A    between atoms: C_13  and  O_30
REMARK    5  A    between atoms: C_14  and  O_20
REMARK    6  A    between atoms: O_20  and  C_21
REMARK    7  A    between atoms: C_21  and  C_22
REMARK    8  A    between atoms: C_22  and  C_23
REMARK    9  A    between atoms: C_23  and  N_24
REMARK   10  A    between atoms: O_30  and  C_31
REMARK                            x       y       z     vdW  Elec       q    Type
REMARK                         _______ _______ _______ _____ _____    ______ ____
ROOT
ATOM      1  N   UNL     1       1.323  -3.999  -2.290  0.00  0.00    -0.298 N 
ATOM      2  C   UNL     1       0.853  -4.766  -1.243  0.00  0.00    +0.134 A 
ATOM      3  C   UNL     1       0.996  -6.174  -1.254  0.00  0.00    +0.044 A 
ATOM      4  C   UNL     1       1.615  -6.848  -2.314  0.00  0.00    +0.062 A 
ATOM      5  C   UNL     1       1.729  -8.209  -2.276  0.00  0.00    +0.162 A 
ATOM      6  C   UNL     1       1.232  -8.939  -1.187  0.00  0.00    +0.164 A 
ATOM      7  C   UNL     1       0.619  -8.300  -0.132  0.00  0.00    +0.078 A 
ATOM      8  C   UNL     1       0.492  -6.906  -0.150  0.00  0.00    +0.080 A 
ATOM      9  N   UNL     1      -0.096  -6.235   0.853  0.00  0.00    -0.235 NA
ATOM     10  C   UNL     1      -0.201  -4.928   0.808  0.00  0.00    +0.223 A 
ATOM     11  N   UNL     1       0.260  -4.204  -0.199  0.00  0.00    -0.220 NA
ATOM     12  H   UNL     1       1.841  -4.410  -2.999  0.00  0.00    +0.154 HD
ENDROOT
BRANCH   1  17
ATOM     13  C   UNL     1      -0.340  -0.764  -1.734  0.00  0.00    +0.122 A 
ATOM     14  C   UNL     1       0.522   0.091  -2.406  0.00  0.00    +0.047 A 
ATOM     15  C   UNL     1       1.645  -0.411  -3.036  0.00  0.00    +0.025 A 
ATOM     16  C   UNL     1       1.914  -1.766  -2.999  0.00  0.00    +0.062 A 
ATOM     17  C   UNL     1       1.053  -2.627  -2.327  0.00  0.00    +0.054 A 
ATOM     18  C   UNL     1      -0.072  -2.123  -1.689  0.00  0.00    +0.070 A 
ATOM     19 CL   UNL     1       3.325  -2.394  -3.791  0.00  0.00    -0.082 Cl
BRANCH  13  21
ATOM     20  C   UNL     1      -1.657   1.143  -1.202  0.00  0.00    +0.277 C 
ATOM     21  O   UNL     1      -1.443  -0.268  -1.115  0.00  0.00    -0.495 OA
ENDBRANCH  13  21
ENDBRANCH   1  17
BRANCH   5  22
ATOM     22  O   UNL     1       2.329  -8.862  -3.306  0.00  0.00    -0.491 OA
ATOM     23  C   UNL     1       2.814  -8.063  -4.387  0.00  0.00    +0.277 C 
ENDBRANCH   5  22
BRANCH   6  24
ATOM     24  O   UNL     1       1.357 -10.292  -1.172  0.00  0.00    -0.488 OA
BRANCH  24  25
ATOM     25  C   UNL     1       0.831 -10.979  -0.035  0.00  0.00    +0.227 C 
BRANCH  25  26
ATOM     26  C   UNL     1       1.063 -12.483  -0.196  0.00  0.00    +0.022 C 
BRANCH  26  27
ATOM     27  C   UNL     1       0.500 -13.219   1.021  0.00  0.00    -0.075 C 
BRANCH  27  28
ATOM     28  N   UNL     1       0.722 -14.663   0.866  0.00  0.00    +0.383 N 
ATOM     29  C   UNL     1      -0.054 -15.158  -0.279  0.00  0.00    -0.050 C 
ATOM     30  C   UNL     1       0.180 -16.663  -0.439  0.00  0.00    +0.141 C 
ATOM     31  O   UNL     1      -0.189 -17.328   0.773  0.00  0.00    -0.383 OA
ATOM     32  C   UNL     1       0.523 -16.863   1.923  0.00  0.00    +0.141 C 
ATOM     33  C   UNL     1       0.290 -15.359   2.086  0.00  0.00    -0.050 C 
ATOM     34  H   UNL     1       1.703 -14.838   0.709  0.00  0.00    -0.082 HD
ENDBRANCH  27  28
ENDBRANCH  26  27
ENDBRANCH  25  26
ENDBRANCH  24  25
ENDBRANCH   6  24
TORSDOF 8
