REMARK  Name = CHEMBL418111
REMARK  7 active torsions:
REMARK  status: ('A' for Active; 'I' for Inactive)
REMARK    1  A    between atoms: C_1  and  N_2
REMARK    2  A    between atoms: N_5  and  C_8
REMARK    3  A    between atoms: C_8  and  C_9
REMARK    4  A    between atoms: C_9  and  C_10
REMARK    5  A    between atoms: C_10  and  N_11
REMARK    6  A    between atoms: C_17  and  C_32
REMARK    7  A    between atoms: N_25  and  C_26
REMARK                            x       y       z     vdW  Elec       q    Type
REMARK                         _______ _______ _______ _____ _____    ______ ____
ROOT
ATOM      1  N   UNL     1       0.686  -6.640   3.474  0.00  0.00    -0.313 N 
ATOM      2  C   UNL     1       0.823  -8.003   3.658  0.00  0.00    +0.217 A 
ATOM      3  N   UNL     1       0.434  -8.821   2.683  0.00  0.00    -0.222 NA
ATOM      4  C   UNL     1       0.541 -10.129   2.801  0.00  0.00    +0.126 A 
ATOM      5  C   UNL     1       1.080 -10.653   3.988  0.00  0.00    +0.038 A 
ATOM      6  C   UNL     1       1.227 -12.036   4.190  0.00  0.00    +0.025 A 
ATOM      7  C   UNL     1       1.769 -12.463   5.391  0.00  0.00    +0.026 A 
ATOM      8  C   UNL     1       2.149 -11.509   6.359  0.00  0.00    +0.136 A 
ATOM      9  N   UNL     1       2.001 -10.217   6.147  0.00  0.00    -0.212 NA
ATOM     10  C   UNL     1       1.485  -9.752   5.008  0.00  0.00    +0.167 A 
ATOM     11  N   UNL     1       1.340  -8.439   4.791  0.00  0.00    -0.195 NA
ATOM     12  N   UNL     1       2.691 -11.941   7.561  0.00  0.00    -0.253 N 
ATOM     13  C   UNL     1       3.059 -11.043   8.496  0.00  0.00    +0.309 C 
ATOM     14  O   UNL     1       2.917  -9.854   8.286  0.00  0.00    -0.252 OA
ATOM     15  N   UNL     1       3.586 -11.462   9.663  0.00  0.00    -0.269 N 
ATOM     16  H   UNL     1       0.967  -6.026   4.170  0.00  0.00    +0.149 HD
ATOM     17  H   UNL     1       2.805 -12.890   7.729  0.00  0.00    +0.158 HD
ATOM     18  H   UNL     1       3.638 -12.411   9.859  0.00  0.00    +0.156 HD
ENDROOT
BRANCH   7  19
ATOM     19  C   UNL     1       1.947 -13.911   5.658  0.00  0.00    +0.022 A 
ATOM     20  C   UNL     1       0.923 -14.643   6.261  0.00  0.00    +0.050 A 
ATOM     21  C   UNL     1       1.095 -15.991   6.506  0.00  0.00    +0.021 A 
ATOM     22  C   UNL     1       2.279 -16.615   6.157  0.00  0.00    +0.003 A 
ATOM     23  C   UNL     1       3.297 -15.895   5.559  0.00  0.00    +0.021 A 
ATOM     24  C   UNL     1       3.136 -14.547   5.303  0.00  0.00    +0.050 A 
ATOM     25 CL   UNL     1       4.413 -13.646   4.546  0.00  0.00    -0.083 Cl
ATOM     26 CL   UNL     1      -0.562 -13.861   6.701  0.00  0.00    -0.083 Cl
ENDBRANCH   7  19
BRANCH  15  27
ATOM     27  C   UNL     1       4.058 -10.530  10.594  0.00  0.00    +0.035 A 
ATOM     28  C   UNL     1       5.174 -10.821  11.367  0.00  0.00    +0.023 A 
ATOM     29  C   UNL     1       5.637  -9.898  12.284  0.00  0.00    +0.002 A 
ATOM     30  C   UNL     1       4.991  -8.685  12.432  0.00  0.00    +0.000 A 
ATOM     31  C   UNL     1       3.879  -8.392  11.664  0.00  0.00    +0.002 A 
ATOM     32  C   UNL     1       3.414  -9.308  10.742  0.00  0.00    +0.023 A 
ENDBRANCH  15  27
BRANCH   1  33
ATOM     33  C   UNL     1       0.115  -6.123   2.228  0.00  0.00    +0.102 C 
BRANCH  33  34
ATOM     34  C   UNL     1       0.075  -4.595   2.281  0.00  0.00    +0.000 C 
BRANCH  34  35
ATOM     35  C   UNL     1      -0.521  -4.055   0.979  0.00  0.00    -0.077 C 
BRANCH  35  40
ATOM     36  C   UNL     1       0.060   1.459  -0.026  0.00  0.00    +0.104 C 
ATOM     37  N   UNL     1       0.070  -0.010  -0.030  0.00  0.00    -0.309 NA
ATOM     38  C   UNL     1      -1.297  -0.546  -0.105  0.00  0.00    +0.065 C 
ATOM     39  C   UNL     1      -1.240  -2.074  -0.167  0.00  0.00    -0.063 C 
ATOM     40  N   UNL     1      -0.559  -2.587   1.030  0.00  0.00    +0.381 N 
ATOM     41  C   UNL     1       0.812  -2.063   1.078  0.00  0.00    -0.063 C 
ATOM     42  C   UNL     1       0.772  -0.535   1.150  0.00  0.00    +0.065 C 
ATOM     43  H   UNL     1      -1.061  -2.293   1.854  0.00  0.00    -0.082 HD
ENDBRANCH  35  40
ENDBRANCH  34  35
ENDBRANCH  33  34
ENDBRANCH   1  33
TORSDOF 6
