REMARK  Name = CHEMBL101081
REMARK  11 active torsions:
REMARK  status: ('A' for Active; 'I' for Inactive)
REMARK    1  A    between atoms: C_1  and  O_2
REMARK    2  A    between atoms: O_2  and  C_3
REMARK    3  A    between atoms: C_8  and  C_9
REMARK    4  A    between atoms: C_12  and  C_15
REMARK    5  A    between atoms: C_15  and  C_16
REMARK    6  A    between atoms: C_16  and  N_17
REMARK    7  A    between atoms: C_25  and  C_38
REMARK    8  A    between atoms: C_26  and  N_27
REMARK    9  A    between atoms: N_27  and  C_28
REMARK   10  A    between atoms: C_30  and  O_36
REMARK   11  A    between atoms: O_36  and  C_37
REMARK                            x       y       z     vdW  Elec       q    Type
REMARK                         _______ _______ _______ _____ _____    ______ ____
ROOT
ATOM      1  C   UNL     1      -1.155  -0.427   0.799  0.00  0.00    +0.129 A 
ATOM      2  C   UNL     1      -2.317   0.246   0.553  0.00  0.00    +0.058 A 
ATOM      3  C   UNL     1      -3.526  -0.458   0.452  0.00  0.00    +0.026 A 
ATOM      4  C   UNL     1      -3.541  -1.866   0.605  0.00  0.00    +0.074 A 
ATOM      5  C   UNL     1      -2.338  -2.541   0.857  0.00  0.00    +0.040 A 
ATOM      6  C   UNL     1      -1.157  -1.826   0.947  0.00  0.00    +0.026 A 
ATOM      7  N   UNL     1      -4.695  -2.543   0.508  0.00  0.00    -0.254 NA
ATOM      8  C   UNL     1      -5.834  -1.944   0.273  0.00  0.00    +0.132 A 
ATOM      9  C   UNL     1      -5.912  -0.551   0.108  0.00  0.00    +0.091 A 
ATOM     10  C   UNL     1      -4.742   0.218   0.198  0.00  0.00    +0.060 A 
ENDROOT
BRANCH   6  11
ATOM     11  C   UNL     1       0.116  -2.540   1.207  0.00  0.00    -0.014 A 
ATOM     12  C   UNL     1       1.232  -2.295   0.408  0.00  0.00    +0.009 A 
ATOM     13  C   UNL     1       2.414  -2.962   0.654  0.00  0.00    +0.004 A 
ATOM     14  C   UNL     1       2.494  -3.873   1.692  0.00  0.00    -0.049 A 
ATOM     15  C   UNL     1       1.390  -4.121   2.488  0.00  0.00    +0.004 A 
ATOM     16  C   UNL     1       0.204  -3.455   2.255  0.00  0.00    +0.009 A 
BRANCH  14  17
ATOM     17  C   UNL     1       3.788  -4.599   1.956  0.00  0.00    +0.016 C 
BRANCH  17  18
ATOM     18  C   UNL     1       4.634  -3.790   2.941  0.00  0.00    -0.074 C 
BRANCH  18  19
ATOM     19  N   UNL     1       5.896  -4.498   3.198  0.00  0.00    +0.383 N 
ATOM     20  C   UNL     1       5.614  -5.768   3.881  0.00  0.00    -0.050 C 
ATOM     21  C   UNL     1       6.930  -6.503   4.148  0.00  0.00    +0.141 C 
ATOM     22  O   UNL     1       7.788  -5.666   4.928  0.00  0.00    -0.383 OA
ATOM     23  C   UNL     1       8.073  -4.406   4.314  0.00  0.00    +0.141 C 
ATOM     24  C   UNL     1       6.759  -3.667   4.048  0.00  0.00    -0.050 C 
ATOM     25  H   UNL     1       6.363  -4.683   2.323  0.00  0.00    -0.082 HD
ENDBRANCH  18  19
ENDBRANCH  17  18
ENDBRANCH  14  17
ENDBRANCH   6  11
BRANCH   1  27
ATOM     26  C   UNL     1      -0.051   1.677   0.735  0.00  0.00    +0.277 C 
ATOM     27  O   UNL     1       0.014   0.259   0.895  0.00  0.00    -0.494 OA
ENDBRANCH   1  27
BRANCH  10  28
ATOM     28  N   UNL     1      -4.777   1.589   0.042  0.00  0.00    -0.312 N 
ATOM     29  H   UNL     1      -3.975   2.068  -0.219  0.00  0.00    +0.152 HD
BRANCH  28  30
ATOM     30  C   UNL     1      -5.968   2.288   0.260  0.00  0.00    +0.053 A 
ATOM     31  C   UNL     1      -6.615   2.907  -0.801  0.00  0.00    +0.071 A 
ATOM     32  C   UNL     1      -7.796   3.599  -0.582  0.00  0.00    +0.140 A 
ATOM     33  C   UNL     1      -8.330   3.671   0.698  0.00  0.00    +0.084 A 
ATOM     34  C   UNL     1      -7.685   3.054   1.754  0.00  0.00    +0.045 A 
ATOM     35  C   UNL     1      -6.510   2.358   1.538  0.00  0.00    +0.064 A 
ATOM     36 CL   UNL     1      -5.707   1.579   2.865  0.00  0.00    -0.082 Cl
ATOM     37 CL   UNL     1      -9.808   4.538   0.972  0.00  0.00    -0.080 Cl
BRANCH  32  38
ATOM     38  O   UNL     1      -8.431   4.206  -1.619  0.00  0.00    -0.494 OA
ATOM     39  C   UNL     1      -7.889   3.995  -2.925  0.00  0.00    +0.277 C 
ENDBRANCH  32  38
ENDBRANCH  28  30
ENDBRANCH  10  28
BRANCH   9  40
ATOM     40  C   UNL     1      -7.173   0.078  -0.148  0.00  0.00    +0.103 C 
ATOM     41  N   UNL     1      -8.173   0.576  -0.351  0.00  0.00    -0.191 NA
ENDBRANCH   9  40
TORSDOF 9
