REMARK  Name = CHEMBL397692
REMARK  10 active torsions:
REMARK  status: ('A' for Active; 'I' for Inactive)
REMARK    1  A    between atoms: C_1  and  C_2
REMARK    2  A    between atoms: C_6  and  C_35
REMARK    3  A    between atoms: C_7  and  C_8
REMARK    4  A    between atoms: C_10  and  C_34
REMARK    5  A    between atoms: N_18  and  C_19
REMARK    6  A    between atoms: C_22  and  O_25
REMARK    7  A    between atoms: O_25  and  C_26
REMARK    8  A    between atoms: C_26  and  C_27
REMARK    9  A    between atoms: C_27  and  C_28
REMARK   10  A    between atoms: C_28  and  N_29
REMARK                            x       y       z     vdW  Elec       q    Type
REMARK                         _______ _______ _______ _____ _____    ______ ____
ROOT
ATOM      1  C   UNL     1       0.089   0.122   2.443  0.00  0.00    -0.015 A 
ATOM      2  C   UNL     1       1.054  -0.201   3.412  0.00  0.00    +0.014 A 
ATOM      3  C   UNL     1       1.037   0.389   4.636  0.00  0.00    -0.022 A 
ATOM      4  C   UNL     1       0.047   1.336   4.943  0.00  0.00    +0.097 A 
ATOM      5  C   UNL     1      -0.934   1.671   3.972  0.00  0.00    +0.112 A 
ATOM      6  C   UNL     1      -0.896   1.053   2.713  0.00  0.00    +0.040 A 
ATOM      7  N   UNL     1      -1.870   2.575   4.281  0.00  0.00    -0.144 NA
ATOM      8  N   UNL     1      -1.869   3.125   5.447  0.00  0.00    -0.112 NA
ATOM      9  C   UNL     1      -0.956   2.822   6.372  0.00  0.00    +0.240 A 
ATOM     10  N   UNL     1      -0.002   1.939   6.137  0.00  0.00    -0.211 NA
ATOM     11  N   UNL     1      -1.009   3.448   7.605  0.00  0.00    -0.282 N 
ATOM     12  C   UNL     1       2.081   0.028   5.662  0.00  0.00    +0.046 C 
ATOM     13  H   UNL     1      -0.306   3.298   8.256  0.00  0.00    +0.155 HD
ENDROOT
BRANCH   1  20
ATOM     14  C   UNL     1       0.630   1.695   0.076  0.00  0.00    +0.044 C 
ATOM     15  C   UNL     1       0.392   0.211  -0.031  0.00  0.00    -0.042 A 
ATOM     16  C   UNL     1       0.436  -0.410  -1.262  0.00  0.00    +0.004 A 
ATOM     17  C   UNL     1       0.218  -1.772  -1.362  0.00  0.00    +0.001 A 
ATOM     18  C   UNL     1      -0.046  -2.520  -0.228  0.00  0.00    +0.004 A 
ATOM     19  C   UNL     1      -0.093  -1.910   1.009  0.00  0.00    -0.042 A 
ATOM     20  C   UNL     1       0.132  -0.539   1.115  0.00  0.00    -0.012 A 
ATOM     21  C   UNL     1      -0.382  -2.726   2.242  0.00  0.00    +0.044 C 
ENDBRANCH   1  20
BRANCH  11  22
ATOM     22  C   UNL     1      -2.079   4.298   7.913  0.00  0.00    +0.034 A 
ATOM     23  C   UNL     1      -3.365   3.971   7.507  0.00  0.00    +0.027 A 
ATOM     24  C   UNL     1      -4.419   4.810   7.811  0.00  0.00    +0.047 A 
ATOM     25  C   UNL     1      -4.193   5.979   8.522  0.00  0.00    +0.121 A 
ATOM     26  C   UNL     1      -2.907   6.307   8.928  0.00  0.00    +0.047 A 
ATOM     27  C   UNL     1      -1.853   5.466   8.629  0.00  0.00    +0.027 A 
BRANCH  25  28
ATOM     28  O   UNL     1      -5.231   6.805   8.821  0.00  0.00    -0.492 OA
BRANCH  28  29
ATOM     29  C   UNL     1      -4.925   7.992   9.555  0.00  0.00    +0.227 C 
BRANCH  29  30
ATOM     30  C   UNL     1      -6.209   8.788   9.796  0.00  0.00    +0.022 C 
BRANCH  30  31
ATOM     31  C   UNL     1      -5.882  10.059  10.582  0.00  0.00    -0.076 C 
BRANCH  31  32
ATOM     32  N   UNL     1      -7.115  10.824  10.812  0.00  0.00    +0.380 N 
ATOM     33  C   UNL     1      -8.000  10.096  11.758  0.00  0.00    -0.079 C 
ATOM     34  C   UNL     1      -8.915  11.213  12.319  0.00  0.00    -0.020 C 
ATOM     35  C   UNL     1      -7.954  12.418  12.440  0.00  0.00    -0.020 C 
ATOM     36  C   UNL     1      -6.801  12.113  11.466  0.00  0.00    -0.079 C 
ATOM     37  H   UNL     1      -7.594  10.984   9.939  0.00  0.00    -0.082 HD
ENDBRANCH  31  32
ENDBRANCH  30  31
ENDBRANCH  29  30
ENDBRANCH  28  29
ENDBRANCH  25  28
ENDBRANCH  11  22
TORSDOF 7
