REMARK  Name = CHEMBL56504
REMARK  10 active torsions:
REMARK  status: ('A' for Active; 'I' for Inactive)
REMARK    1  A    between atoms: C_1  and  N_2
REMARK    2  A    between atoms: N_2  and  C_3
REMARK    3  A    between atoms: N_2  and  C_4
REMARK    4  A    between atoms: C_4  and  C_5
REMARK    5  A    between atoms: C_5  and  C_6
REMARK    6  A    between atoms: C_6  and  C_7
REMARK    7  A    between atoms: C_12  and  C_13
REMARK    8  A    between atoms: C_17  and  S_24
REMARK    9  A    between atoms: S_24  and  N_27
REMARK   10  A    between atoms: N_27  and  C_28
REMARK                            x       y       z     vdW  Elec       q    Type
REMARK                         _______ _______ _______ _____ _____    ______ ____
ROOT
ATOM      1  C   UNL     1      -1.559  -2.245   5.136  0.00  0.00    +0.039 C 
ATOM      2  C   UNL     1      -1.936  -3.182   6.079  0.00  0.00    +0.048 C 
ATOM      3  C   UNL     1      -2.344  -4.584   5.842  0.00  0.00    +0.010 A 
ATOM      4  C   UNL     1      -2.474  -5.359   4.693  0.00  0.00    +0.039 A 
ATOM      5  C   UNL     1      -2.887  -6.672   4.796  0.00  0.00    +0.111 A 
ATOM      6  C   UNL     1      -3.171  -7.215   6.039  0.00  0.00    +0.031 A 
ATOM      7  C   UNL     1      -3.045  -6.455   7.184  0.00  0.00    +0.026 A 
ATOM      8  C   UNL     1      -2.630  -5.131   7.100  0.00  0.00    +0.042 A 
ATOM      9  N   UNL     1      -2.424  -4.162   8.075  0.00  0.00    -0.281 N 
ATOM     10  C   UNL     1      -2.011  -3.003   7.535  0.00  0.00    +0.249 C 
ATOM     11  O   UNL     1      -1.749  -1.982   8.145  0.00  0.00    -0.270 OA
ATOM     12  H   UNL     1      -2.558  -4.306   9.025  0.00  0.00    +0.155 HD
ENDROOT
BRANCH   1  18
ATOM     13  C   UNL     1      -0.405  -0.038   4.973  0.00  0.00    -0.019 A 
ATOM     14  C   UNL     1      -0.537   1.173   5.643  0.00  0.00    -0.023 A 
ATOM     15  C   UNL     1      -1.521   1.038   6.574  0.00  0.00    +0.020 A 
ATOM     16  N   UNL     1      -2.013  -0.221   6.510  0.00  0.00    -0.358 N 
ATOM     17  H   UNL     1      -2.723  -0.580   7.065  0.00  0.00    +0.166 HD
ATOM     18  C   UNL     1      -1.340  -0.906   5.520  0.00  0.00    +0.044 A 
ATOM     19  C   UNL     1      -1.954   2.144   7.507  0.00  0.00    +0.053 C 
ATOM     20  C   UNL     1      -0.866   3.225   7.515  0.00  0.00    +0.006 C 
ATOM     21  C   UNL     1      -0.510   3.602   6.074  0.00  0.00    +0.005 C 
ATOM     22  C   UNL     1       0.246   2.443   5.414  0.00  0.00    +0.037 C 
BRANCH  13  23
ATOM     23  C   UNL     1       0.563  -0.347   3.861  0.00  0.00    +0.036 C 
BRANCH  23  24
ATOM     24  C   UNL     1      -0.084  -0.014   2.514  0.00  0.00    -0.014 C 
BRANCH  24  25
ATOM     25  C   UNL     1       0.900  -0.328   1.385  0.00  0.00    -0.079 C 
BRANCH  25  27
ATOM     26  C   UNL     1       0.039   1.438   0.008  0.00  0.00    -0.097 C 
ATOM     27  N   UNL     1       0.279  -0.009   0.092  0.00  0.00    +0.376 N 
ATOM     28  C   UNL     1       1.175  -0.421  -0.996  0.00  0.00    -0.097 C 
ATOM     29  H   UNL     1      -0.599  -0.500   0.010  0.00  0.00    -0.083 HD
ENDBRANCH  25  27
ENDBRANCH  24  25
ENDBRANCH  23  24
ENDBRANCH  13  23
ENDBRANCH   1  18
BRANCH   5  30
ATOM     30  S   UNL     1      -3.054  -7.658   3.346  0.00  0.00    +0.092 S 
ATOM     31  O   UNL     1      -3.979  -8.690   3.661  0.00  0.00    -0.148 OA
ATOM     32  O   UNL     1      -3.255  -6.759   2.264  0.00  0.00    -0.148 OA
BRANCH  30  33
ATOM     33  N   UNL     1      -1.594  -8.395   3.084  0.00  0.00    -0.096 NA
BRANCH  33  34
ATOM     34  C   UNL     1      -1.429  -9.248   1.990  0.00  0.00    +0.093 A 
ATOM     35  C   UNL     1      -2.485  -9.475   1.118  0.00  0.00    +0.028 A 
ATOM     36  C   UNL     1      -2.318 -10.319   0.037  0.00  0.00    +0.002 A 
ATOM     37  C   UNL     1      -1.100 -10.938  -0.177  0.00  0.00    +0.002 A 
ATOM     38  C   UNL     1      -0.046 -10.715   0.689  0.00  0.00    +0.022 A 
ATOM     39  C   UNL     1      -0.204  -9.867   1.769  0.00  0.00    +0.065 A 
ATOM     40 CL   UNL     1       1.122  -9.582   2.852  0.00  0.00    -0.082 Cl
ENDBRANCH  33  34
ENDBRANCH  30  33
ENDBRANCH   5  30
TORSDOF 8
