REMARK  Name = CHEMBL406661
REMARK  4 active torsions:
REMARK  status: ('A' for Active; 'I' for Inactive)
REMARK    1  A    between atoms: C_1  and  N_2
REMARK    2  A    between atoms: N_5  and  C_8
REMARK    3  A    between atoms: C_11  and  N_14
REMARK    4  A    between atoms: N_30  and  C_33
REMARK                            x       y       z     vdW  Elec       q    Type
REMARK                         _______ _______ _______ _____ _____    ______ ____
ROOT
ATOM      1  N   UNL     1      -2.317  -6.884   3.885  0.00  0.00    -0.284 N 
ATOM      2  C   UNL     1      -1.532  -7.396   4.897  0.00  0.00    +0.221 A 
ATOM      3  N   UNL     1      -0.384  -6.793   5.185  0.00  0.00    -0.222 NA
ATOM      4  C   UNL     1       0.405  -7.244   6.145  0.00  0.00    +0.131 A 
ATOM      5  C   UNL     1       0.004  -8.376   6.855  0.00  0.00    +0.101 A 
ATOM      6  C   UNL     1      -1.219  -8.991   6.523  0.00  0.00    +0.158 A 
ATOM      7  N   UNL     1      -1.952  -8.472   5.551  0.00  0.00    -0.196 NA
ATOM      8  N   UNL     1      -1.623 -10.114   7.221  0.00  0.00    -0.261 N 
ATOM      9  C   UNL     1      -2.754 -10.909   7.114  0.00  0.00    +0.077 A 
ATOM     10  C   UNL     1      -3.871 -10.883   6.293  0.00  0.00    +0.028 A 
ATOM     11  C   UNL     1      -4.851 -11.844   6.439  0.00  0.00    +0.002 A 
ATOM     12  C   UNL     1      -4.725 -12.835   7.400  0.00  0.00    +0.002 A 
ATOM     13  C   UNL     1      -3.622 -12.876   8.223  0.00  0.00    +0.030 A 
ATOM     14  C   UNL     1      -2.620 -11.910   8.089  0.00  0.00    +0.092 A 
ATOM     15  N   UNL     1      -1.446 -11.688   8.732  0.00  0.00    -0.211 NA
ATOM     16  C   UNL     1      -0.850 -10.630   8.226  0.00  0.00    +0.225 A 
ATOM     17  N   UNL     1       0.355 -10.047   8.575  0.00  0.00    -0.243 N 
ATOM     18  C   UNL     1       0.813  -8.950   7.937  0.00  0.00    +0.271 A 
ATOM     19  O   UNL     1       1.875  -8.447   8.252  0.00  0.00    -0.266 OA
ATOM     20  H   UNL     1      -3.197  -7.257   3.717  0.00  0.00    +0.155 HD
ENDROOT
BRANCH  17  21
ATOM     21  C   UNL     1       1.116 -10.608   9.610  0.00  0.00    +0.089 A 
ATOM     22  C   UNL     1       0.921 -10.191  10.921  0.00  0.00    +0.066 A 
ATOM     23  C   UNL     1       1.673 -10.746  11.940  0.00  0.00    +0.022 A 
ATOM     24  C   UNL     1       2.617 -11.715  11.655  0.00  0.00    +0.003 A 
ATOM     25  C   UNL     1       2.813 -12.133  10.352  0.00  0.00    +0.022 A 
ATOM     26  C   UNL     1       2.062 -11.586   9.329  0.00  0.00    +0.066 A 
ATOM     27 CL   UNL     1       2.304 -12.115   7.693  0.00  0.00    -0.081 Cl
ATOM     28 CL   UNL     1      -0.263  -8.973  11.279  0.00  0.00    -0.081 Cl
ENDBRANCH  17  21
BRANCH   1  32
ATOM     29  C   UNL     1      -0.911  -3.729   1.548  0.00  0.00    +0.030 A 
ATOM     30  C   UNL     1      -0.029  -4.694   2.015  0.00  0.00    +0.025 A 
ATOM     31  C   UNL     1      -0.494  -5.739   2.788  0.00  0.00    +0.025 A 
ATOM     32  C   UNL     1      -1.845  -5.824   3.100  0.00  0.00    +0.034 A 
ATOM     33  C   UNL     1      -2.728  -4.859   2.633  0.00  0.00    +0.025 A 
ATOM     34  C   UNL     1      -2.261  -3.811   1.864  0.00  0.00    +0.025 A 
BRANCH  29  39
ATOM     35  C   UNL     1       0.674  -0.982  -2.914  0.00  0.00    +0.105 C 
ATOM     36  N   UNL     1       0.368  -1.270  -1.506  0.00  0.00    -0.302 NA
ATOM     37  C   UNL     1       1.221  -2.351  -0.993  0.00  0.00    +0.103 C 
ATOM     38  C   UNL     1       1.000  -2.497   0.517  0.00  0.00    +0.120 C 
ATOM     39  N   UNL     1      -0.439  -2.670   0.764  0.00  0.00    -0.327 N 
ATOM     40  C   UNL     1      -1.370  -1.702   0.164  0.00  0.00    +0.120 C 
ATOM     41  C   UNL     1      -1.056  -1.587  -1.331  0.00  0.00    +0.103 C 
ENDBRANCH  29  39
ENDBRANCH   1  32
TORSDOF 3
