REMARK  Name = CHEMBL369899
REMARK  10 active torsions:
REMARK  status: ('A' for Active; 'I' for Inactive)
REMARK    1  A    between atoms: C_1  and  O_2
REMARK    2  A    between atoms: O_2  and  C_3
REMARK    3  A    between atoms: C_5  and  N_10
REMARK    4  A    between atoms: C_15  and  O_25
REMARK    5  A    between atoms: C_17  and  O_18
REMARK    6  A    between atoms: O_18  and  C_19
REMARK    7  A    between atoms: O_25  and  C_26
REMARK    8  A    between atoms: C_26  and  C_27
REMARK    9  A    between atoms: C_27  and  C_28
REMARK   10  A    between atoms: C_28  and  N_29
REMARK                            x       y       z     vdW  Elec       q    Type
REMARK                         _______ _______ _______ _____ _____    ______ ____
ROOT
ATOM      1  N   UNL     1       1.097  -4.035  -2.458  0.00  0.00    -0.296 N 
ATOM      2  C   UNL     1       0.869  -4.823  -1.348  0.00  0.00    +0.137 A 
ATOM      3  C   UNL     1       1.281  -6.174  -1.322  0.00  0.00    +0.082 A 
ATOM      4  C   UNL     1       1.019  -6.932  -0.153  0.00  0.00    +0.083 A 
ATOM      5  C   UNL     1       1.415  -8.271  -0.098  0.00  0.00    +0.074 A 
ATOM      6  C   UNL     1       2.057  -8.841  -1.179  0.00  0.00    +0.126 A 
ATOM      7  C   UNL     1       2.316  -8.096  -2.330  0.00  0.00    +0.092 A 
ATOM      8  C   UNL     1       1.936  -6.773  -2.411  0.00  0.00    +0.137 A 
ATOM      9  N   UNL     1       0.391  -6.336   0.874  0.00  0.00    -0.235 NA
ATOM     10  C   UNL     1       0.031  -5.077   0.792  0.00  0.00    +0.223 A 
ATOM     11  N   UNL     1       0.261  -4.330  -0.276  0.00  0.00    -0.220 NA
ATOM     12  H   UNL     1       1.611  -4.383  -3.203  0.00  0.00    +0.154 HD
ENDROOT
BRANCH   1  15
ATOM     13  C   UNL     1      -1.036  -1.094  -1.885  0.00  0.00    +0.140 A 
ATOM     14  C   UNL     1      -0.568  -2.401  -1.804  0.00  0.00    +0.073 A 
ATOM     15  C   UNL     1       0.586  -2.733  -2.508  0.00  0.00    +0.073 A 
ATOM     16  C   UNL     1       1.223  -1.754  -3.262  0.00  0.00    +0.150 A 
ATOM     17  N   UNL     1       0.747  -0.526  -3.312  0.00  0.00    -0.238 NA
ATOM     18  C   UNL     1      -0.347  -0.176  -2.663  0.00  0.00    +0.158 A 
ATOM     19 CL   UNL     1       2.663  -2.153  -4.146  0.00  0.00    -0.060 Cl
BRANCH  13  21
ATOM     20  C   UNL     1      -2.579   0.636  -1.355  0.00  0.00    +0.277 C 
ATOM     21  O   UNL     1      -2.159  -0.723  -1.215  0.00  0.00    -0.494 OA
ENDBRANCH  13  21
ENDBRANCH   1  15
BRANCH   8  22
ATOM     22  O   UNL     1       2.192  -6.056  -3.534  0.00  0.00    -0.488 OA
BRANCH  22  23
ATOM     23  C   UNL     1       2.724  -6.769  -4.653  0.00  0.00    +0.178 C 
ATOM     24  C   UNL     1       4.245  -6.883  -4.511  0.00  0.00    +0.072 C 
ATOM     25  C   UNL     1       4.814  -7.579  -5.750  0.00  0.00    +0.163 C 
ATOM     26  O   UNL     1       4.449  -6.841  -6.918  0.00  0.00    -0.380 OA
ATOM     27  C   UNL     1       3.039  -6.742  -7.128  0.00  0.00    +0.163 C 
ATOM     28  C   UNL     1       2.398  -6.013  -5.944  0.00  0.00    +0.072 C 
ENDBRANCH  22  23
ENDBRANCH   8  22
BRANCH   6  29
ATOM     29  O   UNL     1       2.441 -10.142  -1.122  0.00  0.00    -0.492 OA
BRANCH  29  30
ATOM     30  C   UNL     1       2.148 -10.852   0.083  0.00  0.00    +0.227 C 
BRANCH  30  31
ATOM     31  C   UNL     1       2.652 -12.292  -0.039  0.00  0.00    +0.022 C 
BRANCH  31  32
ATOM     32  C   UNL     1       2.339 -13.053   1.251  0.00  0.00    -0.075 C 
BRANCH  32  33
ATOM     33  N   UNL     1       2.823 -14.435   1.134  0.00  0.00    +0.383 N 
ATOM     34  C   UNL     1       2.070 -15.130   0.081  0.00  0.00    -0.050 C 
ATOM     35  C   UNL     1       2.576 -16.570  -0.039  0.00  0.00    +0.141 C 
ATOM     36  O   UNL     1       2.439 -17.225   1.225  0.00  0.00    -0.383 OA
ATOM     37  C   UNL     1       3.135 -16.571   2.289  0.00  0.00    +0.141 C 
ATOM     38  C   UNL     1       2.630 -15.131   2.413  0.00  0.00    -0.050 C 
ATOM     39  H   UNL     1       3.804 -14.429   0.898  0.00  0.00    -0.082 HD
ENDBRANCH  32  33
ENDBRANCH  31  32
ENDBRANCH  30  31
ENDBRANCH  29  30
ENDBRANCH   6  29
TORSDOF 9
