REMARK  Name = CHEMBL397936
REMARK  11 active torsions:
REMARK  status: ('A' for Active; 'I' for Inactive)
REMARK    1  A    between atoms: C_1  and  C_2
REMARK    2  A    between atoms: C_6  and  C_37
REMARK    3  A    between atoms: C_7  and  C_8
REMARK    4  A    between atoms: C_10  and  C_36
REMARK    5  A    between atoms: N_18  and  C_19
REMARK    6  A    between atoms: C_23  and  O_25
REMARK    7  A    between atoms: O_25  and  C_26
REMARK    8  A    between atoms: C_26  and  C_27
REMARK    9  A    between atoms: C_27  and  C_28
REMARK   10  A    between atoms: C_27  and  N_29
REMARK   11  A    between atoms: N_32  and  C_35
REMARK                            x       y       z     vdW  Elec       q    Type
REMARK                         _______ _______ _______ _____ _____    ______ ____
ROOT
ATOM      1  C   UNL     1       1.773   2.388   2.059  0.00  0.00    -0.015 A 
ATOM      2  C   UNL     1       2.481   1.656   3.027  0.00  0.00    +0.014 A 
ATOM      3  C   UNL     1       2.158   1.748   4.344  0.00  0.00    -0.022 A 
ATOM      4  C   UNL     1       1.105   2.583   4.750  0.00  0.00    +0.097 A 
ATOM      5  C   UNL     1       0.382   3.328   3.781  0.00  0.00    +0.112 A 
ATOM      6  C   UNL     1       0.735   3.223   2.427  0.00  0.00    +0.040 A 
ATOM      7  N   UNL     1      -0.618   4.119   4.185  0.00  0.00    -0.144 NA
ATOM      8  N   UNL     1      -0.910   4.194   5.438  0.00  0.00    -0.112 NA
ATOM      9  C   UNL     1      -0.241   3.501   6.363  0.00  0.00    +0.240 A 
ATOM     10  N   UNL     1       0.758   2.700   6.038  0.00  0.00    -0.211 NA
ATOM     11  N   UNL     1      -0.603   3.625   7.694  0.00  0.00    -0.282 N 
ATOM     12  C   UNL     1       2.930   0.954   5.367  0.00  0.00    +0.046 C 
ATOM     13  H   UNL     1      -0.074   3.192   8.382  0.00  0.00    +0.155 HD
ENDROOT
BRANCH   1  20
ATOM     14  C   UNL     1       2.841   4.684   0.660  0.00  0.00    +0.044 C 
ATOM     15  C   UNL     1       2.663   3.369  -0.054  0.00  0.00    -0.042 A 
ATOM     16  C   UNL     1       3.014   3.251  -1.383  0.00  0.00    +0.004 A 
ATOM     17  C   UNL     1       2.852   2.044  -2.040  0.00  0.00    +0.001 A 
ATOM     18  C   UNL     1       2.336   0.950  -1.369  0.00  0.00    +0.004 A 
ATOM     19  C   UNL     1       1.981   1.057  -0.039  0.00  0.00    -0.042 A 
ATOM     20  C   UNL     1       2.148   2.268   0.628  0.00  0.00    -0.012 A 
ATOM     21  C   UNL     1       1.419  -0.136   0.690  0.00  0.00    +0.044 C 
ENDBRANCH   1  20
BRANCH  11  22
ATOM     22  C   UNL     1      -1.729   4.374   8.045  0.00  0.00    +0.037 A 
ATOM     23  C   UNL     1      -2.868   4.332   7.249  0.00  0.00    +0.023 A 
ATOM     24  C   UNL     1      -3.982   5.072   7.597  0.00  0.00    +0.005 A 
ATOM     25  C   UNL     1      -3.966   5.855   8.735  0.00  0.00    +0.046 A 
ATOM     26  C   UNL     1      -2.832   5.901   9.534  0.00  0.00    +0.122 A 
ATOM     27  C   UNL     1      -1.714   5.156   9.191  0.00  0.00    +0.069 A 
BRANCH  26  28
ATOM     28  O   UNL     1      -2.819   6.671  10.653  0.00  0.00    -0.490 OA
BRANCH  28  29
ATOM     29  C   UNL     1      -4.007   7.409  10.947  0.00  0.00    +0.247 C 
BRANCH  29  30
ATOM     30  C   UNL     1      -3.804   8.211  12.234  0.00  0.00    +0.091 C 
ATOM     31  C   UNL     1      -3.408   7.264  13.368  0.00  0.00    +0.027 C 
BRANCH  30  32
ATOM     32  N   UNL     1      -2.740   9.203  12.029  0.00  0.00    -0.300 NA
ATOM     33  C   UNL     1      -2.480   9.959  13.263  0.00  0.00    +0.066 C 
ATOM     34  C   UNL     1      -1.328  10.937  13.025  0.00  0.00    -0.064 C 
ATOM     35  N   UNL     1      -1.682  11.855  11.934  0.00  0.00    +0.379 N 
ATOM     36  C   UNL     1      -1.914  11.088  10.703  0.00  0.00    -0.064 C 
ATOM     37  C   UNL     1      -3.071  10.111  10.922  0.00  0.00    +0.066 C 
ATOM     38  C   UNL     1      -0.583  12.806  11.719  0.00  0.00    -0.096 C 
ATOM     39  H   UNL     1      -2.521  12.360  12.179  0.00  0.00    -0.082 HD
ENDBRANCH  30  32
ENDBRANCH  29  30
ENDBRANCH  28  29
ENDBRANCH  26  28
ENDBRANCH  11  22
TORSDOF 6
