REMARK  Name = CHEMBL199016
REMARK  11 active torsions:
REMARK  status: ('A' for Active; 'I' for Inactive)
REMARK    1  A    between atoms: C_1  and  C_2
REMARK    2  A    between atoms: C_2  and  C_3
REMARK    3  A    between atoms: C_2  and  O_4
REMARK    4  A    between atoms: O_4  and  C_5
REMARK    5  A    between atoms: C_7  and  O_25
REMARK    6  A    between atoms: C_20  and  O_22
REMARK    7  A    between atoms: O_22  and  C_23
REMARK    8  A    between atoms: O_25  and  C_26
REMARK    9  A    between atoms: C_26  and  C_27
REMARK   10  A    between atoms: C_27  and  N_28
REMARK   11  A    between atoms: C_34  and  C_36
REMARK                            x       y       z     vdW  Elec       q    Type
REMARK                         _______ _______ _______ _____ _____    ______ ____
ROOT
ATOM      1  C   UNL     1      -0.276  -0.504   2.298  0.00  0.00    +0.137 A 
ATOM      2  C   UNL     1      -1.637  -0.316   2.412  0.00  0.00    +0.092 A 
ATOM      3  C   UNL     1      -2.282  -0.518   3.632  0.00  0.00    +0.126 A 
ATOM      4  C   UNL     1      -1.575  -0.911   4.750  0.00  0.00    +0.074 A 
ATOM      5  C   UNL     1      -0.194  -1.109   4.663  0.00  0.00    +0.083 A 
ATOM      6  C   UNL     1       0.463  -0.909   3.423  0.00  0.00    +0.082 A 
ATOM      7  C   UNL     1       1.858  -1.122   3.364  0.00  0.00    +0.139 A 
ATOM      8  N   UNL     1       2.482  -1.504   4.471  0.00  0.00    -0.220 NA
ATOM      9  C   UNL     1       1.828  -1.684   5.607  0.00  0.00    +0.223 A 
ATOM     10  N   UNL     1       0.535  -1.490   5.724  0.00  0.00    -0.235 NA
ATOM     11  N   UNL     1       2.554  -0.938   2.185  0.00  0.00    -0.282 N 
ATOM     12  C   UNL     1       3.901  -1.268   2.116  0.00  0.00    +0.149 A 
ATOM     13  C   UNL     1       4.617  -1.081   0.931  0.00  0.00    +0.099 A 
ATOM     14  C   UNL     1       5.955  -1.424   0.909  0.00  0.00    +0.139 A 
ATOM     15  N   UNL     1       6.516  -1.916   2.005  0.00  0.00    -0.202 NA
ATOM     16  C   UNL     1       5.812  -2.081   3.113  0.00  0.00    +0.319 A 
ATOM     17  N   UNL     1       4.530  -1.761   3.178  0.00  0.00    -0.178 NA
ATOM     18 CL   UNL     1       3.842  -0.434  -0.482  0.00  0.00    -0.078 Cl
ATOM     19  H   UNL     1       2.102  -0.579   1.406  0.00  0.00    +0.155 HD
ENDROOT
BRANCH  16  20
ATOM     20  O   UNL     1       6.422  -2.587   4.212  0.00  0.00    -0.466 OA
ATOM     21  C   UNL     1       7.809  -2.912   4.093  0.00  0.00    +0.280 C 
ENDBRANCH  16  20
BRANCH   1  22
ATOM     22  O   UNL     1       0.345  -0.304   1.108  0.00  0.00    -0.488 OA
BRANCH  22  24
ATOM     23  C   UNL     1      -0.567   1.709   0.130  0.00  0.00    +0.051 C 
ATOM     24  C   UNL     1      -0.458   0.186   0.032  0.00  0.00    +0.167 C 
ATOM     25  C   UNL     1       0.190  -0.194  -1.301  0.00  0.00    +0.051 C 
ENDBRANCH  22  24
ENDBRANCH   1  22
BRANCH   3  26
ATOM     26  O   UNL     1      -3.624  -0.327   3.720  0.00  0.00    -0.491 OA
BRANCH  26  27
ATOM     27  C   UNL     1      -4.229  -0.549   4.996  0.00  0.00    +0.244 C 
BRANCH  27  28
ATOM     28  C   UNL     1      -5.733  -0.285   4.900  0.00  0.00    +0.125 C 
BRANCH  28  29
ATOM     29  N   UNL     1      -6.341  -1.248   3.972  0.00  0.00    -0.296 NA
ATOM     30  C   UNL     1      -7.640  -0.764   3.488  0.00  0.00    +0.103 C 
ATOM     31  C   UNL     1      -8.155  -1.703   2.392  0.00  0.00    +0.123 C 
ATOM     32  N   UNL     1      -8.160  -3.077   2.917  0.00  0.00    -0.299 N 
ATOM     33  C   UNL     1      -6.931  -3.586   3.544  0.00  0.00    +0.123 C 
ATOM     34  C   UNL     1      -6.464  -2.573   4.595  0.00  0.00    +0.103 C 
ATOM     35  C   UNL     1      -9.261  -3.848   2.827  0.00  0.00    +0.213 C 
ATOM     36  O   UNL     1     -10.235  -3.447   2.224  0.00  0.00    -0.276 OA
ATOM     37  C   UNL     1      -9.284  -5.209   3.474  0.00  0.00    +0.109 C 
ENDBRANCH  28  29
ENDBRANCH  27  28
ENDBRANCH  26  27
ENDBRANCH   3  26
TORSDOF 7
