REMARK  Name = CHEMBL207471
REMARK  2 active torsions:
REMARK  status: ('A' for Active; 'I' for Inactive)
REMARK    1  A    between atoms: C_6  and  C_7
REMARK    2  A    between atoms: C_9  and  N_16
REMARK                            x       y       z     vdW  Elec       q    Type
REMARK                         _______ _______ _______ _____ _____    ______ ____
ROOT
ATOM      1  C   UNL     1      -1.440  -0.523  -0.405  0.00  0.00    +0.105 A 
ATOM      2  C   UNL     1      -1.635  -1.869  -0.942  0.00  0.00    +0.086 A 
ATOM      3  C   UNL     1      -0.839  -2.780  -1.655  0.00  0.00    +0.131 A 
ATOM      4  N   UNL     1      -1.366  -3.954  -1.988  0.00  0.00    -0.220 NA
ATOM      5  C   UNL     1      -2.608  -4.261  -1.660  0.00  0.00    +0.225 A 
ATOM      6  N   UNL     1      -3.391  -3.442  -0.993  0.00  0.00    -0.216 NA
ATOM      7  C   UNL     1      -2.953  -2.241  -0.614  0.00  0.00    +0.161 A 
ATOM      8  N   UNL     1      -3.502  -1.196   0.067  0.00  0.00    -0.259 N 
ATOM      9  N   UNL     1      -2.558  -0.170   0.183  0.00  0.00    -0.171 NA
ATOM     10  H   UNL     1      -4.405  -1.169   0.419  0.00  0.00    +0.191 HD
ENDROOT
BRANCH   1  16
ATOM     11  C   UNL     1       0.486   0.372  -1.710  0.00  0.00    +0.011 A 
ATOM     12  C   UNL     1       1.636   1.131  -1.795  0.00  0.00    +0.020 A 
ATOM     13  C   UNL     1       2.104   1.809  -0.683  0.00  0.00    +0.041 A 
ATOM     14  C   UNL     1       1.423   1.730   0.520  0.00  0.00    +0.020 A 
ATOM     15  C   UNL     1       0.272   0.975   0.616  0.00  0.00    +0.011 A 
ATOM     16  C   UNL     1      -0.204   0.290  -0.502  0.00  0.00    +0.003 A 
ATOM     17 CL   UNL     1       3.551   2.761  -0.797  0.00  0.00    -0.084 Cl
ENDBRANCH   1  16
BRANCH   3  18
ATOM     18  N   UNL     1       0.461  -2.463  -2.001  0.00  0.00    -0.342 N 
ATOM     19  H   UNL     1       0.913  -1.724  -1.565  0.00  0.00    +0.144 HD
ATOM     20  H   UNL     1       0.921  -2.981  -2.680  0.00  0.00    +0.144 HD
ENDBRANCH   3  18
TORSDOF 2
