REMARK  Name = CHEMBL270777
REMARK  10 active torsions:
REMARK  status: ('A' for Active; 'I' for Inactive)
REMARK    1  A    between atoms: C_1  and  C_2
REMARK    2  A    between atoms: C_6  and  C_39
REMARK    3  A    between atoms: C_7  and  N_8
REMARK    4  A    between atoms: N_26  and  C_27
REMARK    5  A    between atoms: C_29  and  O_37
REMARK    6  A    between atoms: C_30  and  O_35
REMARK    7  A    between atoms: C_31  and  O_33
REMARK    8  A    between atoms: O_33  and  C_34
REMARK    9  A    between atoms: O_35  and  C_36
REMARK   10  A    between atoms: O_37  and  C_38
REMARK                            x       y       z     vdW  Elec       q    Type
REMARK                         _______ _______ _______ _____ _____    ______ ____
ROOT
ATOM      1  N   UNL     1       0.046   0.283   2.255  0.00  0.00    -0.245 N 
ATOM      2  C   UNL     1       1.207   0.438   2.922  0.00  0.00    +0.271 A 
ATOM      3  O   UNL     1       2.250   0.014   2.460  0.00  0.00    -0.266 OA
ATOM      4  C   UNL     1       1.188   1.130   4.216  0.00  0.00    +0.101 A 
ATOM      5  C   UNL     1       2.345   1.333   4.969  0.00  0.00    +0.131 A 
ATOM      6  N   UNL     1       2.240   1.966   6.125  0.00  0.00    -0.222 NA
ATOM      7  C   UNL     1       1.065   2.402   6.566  0.00  0.00    +0.221 A 
ATOM      8  N   UNL     1      -0.059   2.231   5.881  0.00  0.00    -0.196 NA
ATOM      9  C   UNL     1      -0.042   1.606   4.714  0.00  0.00    +0.158 A 
ATOM     10  N   UNL     1      -1.192   1.410   3.973  0.00  0.00    -0.261 N 
ATOM     11  C   UNL     1      -1.146   0.766   2.766  0.00  0.00    +0.225 A 
ATOM     12  N   UNL     1      -2.358   0.709   2.257  0.00  0.00    -0.211 NA
ATOM     13  C   UNL     1      -3.240   1.311   3.094  0.00  0.00    +0.092 A 
ATOM     14  C   UNL     1      -2.513   1.761   4.208  0.00  0.00    +0.077 A 
ATOM     15  C   UNL     1      -3.163   2.421   5.239  0.00  0.00    +0.028 A 
ATOM     16  C   UNL     1      -4.527   2.621   5.175  0.00  0.00    +0.002 A 
ATOM     17  C   UNL     1      -5.253   2.165   4.085  0.00  0.00    +0.002 A 
ATOM     18  C   UNL     1      -4.620   1.527   3.041  0.00  0.00    +0.030 A 
ATOM     19  N   UNL     1       1.011   3.057   7.779  0.00  0.00    -0.283 N 
ATOM     20  H   UNL     1       0.154   3.311   8.156  0.00  0.00    +0.155 HD
ENDROOT
BRANCH   1  27
ATOM     21  C   UNL     1       0.434   1.840  -0.096  0.00  0.00    +0.046 C 
ATOM     22  C   UNL     1       0.233   0.347  -0.153  0.00  0.00    -0.026 A 
ATOM     23  C   UNL     1       0.238  -0.304  -1.371  0.00  0.00    +0.005 A 
ATOM     24  C   UNL     1       0.053  -1.674  -1.425  0.00  0.00    +0.001 A 
ATOM     25  C   UNL     1      -0.138  -2.395  -0.260  0.00  0.00    +0.005 A 
ATOM     26  C   UNL     1      -0.144  -1.749   0.961  0.00  0.00    -0.026 A 
ATOM     27  C   UNL     1       0.046  -0.374   1.018  0.00  0.00    +0.059 A 
ATOM     28  C   UNL     1      -0.352  -2.535   2.229  0.00  0.00    +0.046 C 
ENDBRANCH   1  27
BRANCH  19  29
ATOM     29  C   UNL     1       2.193   3.355   8.467  0.00  0.00    +0.041 A 
ATOM     30  C   UNL     1       3.347   3.668   7.761  0.00  0.00    +0.073 A 
ATOM     31  C   UNL     1       4.518   3.963   8.441  0.00  0.00    +0.167 A 
ATOM     32  C   UNL     1       4.537   3.945   9.830  0.00  0.00    +0.204 A 
ATOM     33  C   UNL     1       3.382   3.632  10.537  0.00  0.00    +0.167 A 
ATOM     34  C   UNL     1       2.211   3.343   9.855  0.00  0.00    +0.073 A 
BRANCH  33  35
ATOM     35  O   UNL     1       3.401   3.615  11.896  0.00  0.00    -0.491 OA
ATOM     36  C   UNL     1       2.177   3.284  12.557  0.00  0.00    +0.277 C 
ENDBRANCH  33  35
BRANCH  32  37
ATOM     37  O   UNL     1       5.688   4.234  10.499  0.00  0.00    -0.488 OA
ATOM     38  C   UNL     1       5.915   5.604  10.838  0.00  0.00    +0.277 C 
ENDBRANCH  32  37
BRANCH  31  39
ATOM     39  O   UNL     1       5.648   4.269   7.749  0.00  0.00    -0.491 OA
ATOM     40  C   UNL     1       5.556   4.268   6.323  0.00  0.00    +0.277 C 
ENDBRANCH  31  39
ENDBRANCH  19  29
TORSDOF 5
