REMARK  Name = CHEMBL103454
REMARK  11 active torsions:
REMARK  status: ('A' for Active; 'I' for Inactive)
REMARK    1  A    between atoms: C_1  and  C_2
REMARK    2  A    between atoms: C_2  and  N_3
REMARK    3  A    between atoms: N_6  and  C_9
REMARK    4  A    between atoms: C_9  and  C_10
REMARK    5  A    between atoms: C_10  and  C_11
REMARK    6  A    between atoms: C_14  and  C_17
REMARK    7  A    between atoms: C_25  and  C_38
REMARK    8  A    between atoms: C_26  and  N_27
REMARK    9  A    between atoms: N_27  and  C_28
REMARK   10  A    between atoms: C_30  and  O_36
REMARK   11  A    between atoms: O_36  and  C_37
REMARK                            x       y       z     vdW  Elec       q    Type
REMARK                         _______ _______ _______ _____ _____    ______ ____
ROOT
ATOM      1  C   UNL     1       4.365  -6.662  -9.338  0.00  0.00    -0.016 A 
ATOM      2  C   UNL     1       3.717  -6.807 -10.574  0.00  0.00    +0.009 A 
ATOM      3  C   UNL     1       4.435  -6.964 -11.719  0.00  0.00    +0.012 A 
ATOM      4  C   UNL     1       5.837  -6.981 -11.670  0.00  0.00    +0.023 A 
ATOM      5  C   UNL     1       6.505  -6.836 -10.430  0.00  0.00    +0.073 A 
ATOM      6  C   UNL     1       5.746  -6.670  -9.261  0.00  0.00    +0.037 A 
ATOM      7  N   UNL     1       7.844  -6.852 -10.377  0.00  0.00    -0.254 NA
ATOM      8  C   UNL     1       8.579  -6.999 -11.450  0.00  0.00    +0.132 A 
ATOM      9  C   UNL     1       8.003  -7.150 -12.721  0.00  0.00    +0.091 A 
ATOM     10  C   UNL     1       6.605  -7.143 -12.847  0.00  0.00    +0.060 A 
ENDROOT
BRANCH   1  14
ATOM     11  C   UNL     1       2.061  -6.174  -5.798  0.00  0.00    -0.049 A 
ATOM     12  C   UNL     1       1.427  -6.323  -7.018  0.00  0.00    +0.004 A 
ATOM     13  C   UNL     1       2.169  -6.481  -8.170  0.00  0.00    +0.009 A 
ATOM     14  C   UNL     1       3.561  -6.491  -8.103  0.00  0.00    -0.018 A 
ATOM     15  C   UNL     1       4.196  -6.341  -6.871  0.00  0.00    +0.009 A 
ATOM     16  C   UNL     1       3.443  -6.178  -5.726  0.00  0.00    +0.004 A 
BRANCH  11  17
ATOM     17  C   UNL     1       1.245  -6.001  -4.543  0.00  0.00    +0.016 C 
BRANCH  17  18
ATOM     18  C   UNL     1       0.983  -4.512  -4.307  0.00  0.00    -0.074 C 
BRANCH  18  22
ATOM     19  N   UNL     1      -0.248  -3.223  -0.492  0.00  0.00    -0.306 NA
ATOM     20  C   UNL     1      -1.012  -2.754  -1.657  0.00  0.00    +0.066 C 
ATOM     21  C   UNL     1      -0.167  -2.927  -2.921  0.00  0.00    -0.063 C 
ATOM     22  N   UNL     1       0.187  -4.344  -3.083  0.00  0.00    +0.382 N 
ATOM     23  C   UNL     1       0.970  -4.791  -1.924  0.00  0.00    -0.063 C 
ATOM     24  C   UNL     1       0.135  -4.633  -0.652  0.00  0.00    +0.066 C 
ATOM     25  H   UNL     1      -0.656  -4.894  -3.152  0.00  0.00    -0.082 HD
BRANCH  19  27
ATOM     26  C   UNL     1      -1.169  -1.521   1.009  0.00  0.00    +0.020 C 
ATOM     27  C   UNL     1      -1.005  -3.020   0.750  0.00  0.00    +0.081 C 
ENDBRANCH  19  27
ENDBRANCH  18  22
ENDBRANCH  17  18
ENDBRANCH  11  17
ENDBRANCH   1  14
BRANCH  10  28
ATOM     28  N   UNL     1       6.000  -7.288 -14.079  0.00  0.00    -0.312 N 
ATOM     29  H   UNL     1       5.095  -6.966 -14.215  0.00  0.00    +0.152 HD
BRANCH  28  30
ATOM     30  C   UNL     1       6.690  -7.899 -15.130  0.00  0.00    +0.053 A 
ATOM     31  C   UNL     1       7.062  -7.156 -16.242  0.00  0.00    +0.071 A 
ATOM     32  C   UNL     1       7.747  -7.764 -17.281  0.00  0.00    +0.140 A 
ATOM     33  C   UNL     1       8.060  -9.115 -17.209  0.00  0.00    +0.084 A 
ATOM     34  C   UNL     1       7.689  -9.855 -16.102  0.00  0.00    +0.045 A 
ATOM     35  C   UNL     1       7.010  -9.250 -15.060  0.00  0.00    +0.064 A 
ATOM     36 CL   UNL     1       6.551 -10.179 -13.667  0.00  0.00    -0.082 Cl
ATOM     37 CL   UNL     1       8.918  -9.877 -18.512  0.00  0.00    -0.080 Cl
BRANCH  32  38
ATOM     38  O   UNL     1       8.112  -7.039 -18.371  0.00  0.00    -0.494 OA
ATOM     39  C   UNL     1       7.861  -5.633 -18.329  0.00  0.00    +0.277 C 
ENDBRANCH  32  38
ENDBRANCH  28  30
ENDBRANCH  10  28
BRANCH   9  40
ATOM     40  C   UNL     1       8.832  -7.308 -13.878  0.00  0.00    +0.103 C 
ATOM     41  N   UNL     1       9.491  -7.434 -14.795  0.00  0.00    -0.191 NA
ENDBRANCH   9  40
TORSDOF 9
