REMARK  Name = CHEMBL80333
REMARK  3 active torsions:
REMARK  status: ('A' for Active; 'I' for Inactive)
REMARK    1  A    between atoms: C_4  and  C_7
REMARK    2  A    between atoms: C_7  and  C_8
REMARK    3  A    between atoms: C_7  and  S_11
REMARK                            x       y       z     vdW  Elec       q    Type
REMARK                         _______ _______ _______ _____ _____    ______ ____
ROOT
ATOM      1  C   UNL     1       3.711  -0.707  -0.038  0.00  0.00    +0.304 C 
ENDROOT
BRANCH   1   5
ATOM      2  C   UNL     1      -0.017   1.378   0.010  0.00  0.00    +0.000 A 
ATOM      3  C   UNL     1       1.171   2.086   0.002  0.00  0.00    +0.000 A 
ATOM      4  C   UNL     1       2.377   1.411  -0.013  0.00  0.00    +0.006 A 
ATOM      5  C   UNL     1       2.396   0.029  -0.020  0.00  0.00    -0.010 A 
ATOM      6  C   UNL     1       1.208  -0.679  -0.012  0.00  0.00    +0.006 A 
ATOM      7  C   UNL     1       0.002  -0.004   0.002  0.00  0.00    +0.000 A 
ENDBRANCH   1   5
BRANCH   1   8
ATOM      8  S   UNL     1       3.806  -1.741  -1.525  0.00  0.00    +0.128 S 
ATOM      9  O   UNL     1       5.081  -2.442  -1.524  0.00  0.00    -0.144 OA
ATOM     10  O   UNL     1       2.707  -2.693  -1.500  0.00  0.00    -0.144 OA
ATOM     11  O   UNL     1       3.703  -0.883  -2.695  0.00  0.00    -0.046 OA
ENDBRANCH   1   8
BRANCH   1  12
ATOM     12  C   UNL     1       3.816  -1.579   1.188  0.00  0.00    +0.387 C 
ATOM     13  O   UNL     1       3.491  -2.752   1.130  0.00  0.00    -0.244 OA
ATOM     14  O   UNL     1       4.225  -1.110   2.236  0.00  0.00    -0.244 OA
ENDBRANCH   1  12
TORSDOF 3
