REMARK  Name = CHEMBL290921
REMARK  13 active torsions:
REMARK  status: ('A' for Active; 'I' for Inactive)
REMARK    1  A    between atoms: C_1  and  N_2
REMARK    2  A    between atoms: C_5  and  C_8
REMARK    3  A    between atoms: C_8  and  C_9
REMARK    4  A    between atoms: C_9  and  C_10
REMARK    5  A    between atoms: C_10  and  O_11
REMARK    6  A    between atoms: O_11  and  C_12
REMARK    7  A    between atoms: C_17  and  O_18
REMARK    8  A    between atoms: O_18  and  C_19
REMARK    9  A    between atoms: C_20  and  N_26
REMARK   10  A    between atoms: C_21  and  C_24
REMARK   11  A    between atoms: N_26  and  C_27
REMARK   12  A    between atoms: C_29  and  O_35
REMARK   13  A    between atoms: O_35  and  C_36
REMARK                            x       y       z     vdW  Elec       q    Type
REMARK                         _______ _______ _______ _____ _____    ______ ____
ROOT
ATOM      1  C   UNL     1       3.536 -10.774   0.448  0.00  0.00    +0.164 A 
ATOM      2  C   UNL     1       2.164 -10.685   0.384  0.00  0.00    +0.077 A 
ATOM      3  C   UNL     1       1.383 -11.206   1.427  0.00  0.00    +0.077 A 
ATOM      4  C   UNL     1       2.025 -11.817   2.531  0.00  0.00    +0.026 A 
ATOM      5  C   UNL     1       3.425 -11.895   2.571  0.00  0.00    +0.061 A 
ATOM      6  C   UNL     1       4.163 -11.385   1.542  0.00  0.00    +0.162 A 
ATOM      7  C   UNL     1       1.235 -12.341   3.580  0.00  0.00    +0.060 A 
ATOM      8  C   UNL     1      -0.159 -12.227   3.470  0.00  0.00    +0.091 A 
ATOM      9  C   UNL     1      -0.710 -11.605   2.338  0.00  0.00    +0.132 A 
ATOM     10  N   UNL     1       0.044 -11.129   1.381  0.00  0.00    -0.253 NA
ENDROOT
BRANCH   6  11
ATOM     11  O   UNL     1       5.520 -11.466   1.582  0.00  0.00    -0.491 OA
ATOM     12  C   UNL     1       6.099 -12.101   2.724  0.00  0.00    +0.277 C 
ENDBRANCH   6  11
BRANCH   8  13
ATOM     13  C   UNL     1      -1.011 -12.739   4.501  0.00  0.00    +0.103 C 
ATOM     14  N   UNL     1      -1.686 -13.146   5.319  0.00  0.00    -0.191 NA
ENDBRANCH   8  13
BRANCH   7  15
ATOM     15  N   UNL     1       1.817 -12.945   4.677  0.00  0.00    -0.312 N 
ATOM     16  H   UNL     1       1.954 -12.440   5.493  0.00  0.00    +0.152 HD
BRANCH  15  17
ATOM     17  C   UNL     1       2.207 -14.287   4.611  0.00  0.00    +0.053 A 
ATOM     18  C   UNL     1       2.120 -14.977   3.409  0.00  0.00    +0.071 A 
ATOM     19  C   UNL     1       2.507 -16.306   3.347  0.00  0.00    +0.140 A 
ATOM     20  C   UNL     1       2.981 -16.945   4.486  0.00  0.00    +0.084 A 
ATOM     21  C   UNL     1       3.067 -16.256   5.682  0.00  0.00    +0.045 A 
ATOM     22  C   UNL     1       2.687 -14.928   5.746  0.00  0.00    +0.064 A 
ATOM     23 CL   UNL     1       2.804 -14.064   7.247  0.00  0.00    -0.082 Cl
ATOM     24 CL   UNL     1       3.465 -18.610   4.408  0.00  0.00    -0.080 Cl
BRANCH  19  25
ATOM     25  O   UNL     1       2.422 -16.985   2.172  0.00  0.00    -0.494 OA
ATOM     26  C   UNL     1       2.042 -16.236   1.016  0.00  0.00    +0.277 C 
ENDBRANCH  19  25
ENDBRANCH  15  17
ENDBRANCH   7  15
BRANCH   1  27
ATOM     27  O   UNL     1       4.290 -10.268  -0.563  0.00  0.00    -0.488 OA
BRANCH  27  28
ATOM     28  C   UNL     1       3.592  -9.658  -1.650  0.00  0.00    +0.229 C 
BRANCH  28  29
ATOM     29  C   UNL     1       4.601  -9.152  -2.683  0.00  0.00    +0.041 C 
BRANCH  29  30
ATOM     30  C   UNL     1       3.853  -8.498  -3.848  0.00  0.00    +0.007 C 
BRANCH  30  35
ATOM     31  C   UNL     1       6.685  -7.561  -8.708  0.00  0.00    -0.096 C 
ATOM     32  N   UNL     1       5.780  -7.977  -7.628  0.00  0.00    +0.378 N 
ATOM     33  C   UNL     1       5.129  -6.794  -7.055  0.00  0.00    -0.079 C 
ATOM     34  C   UNL     1       4.125  -7.228  -5.985  0.00  0.00    -0.015 C 
ATOM     35  C   UNL     1       4.862  -7.992  -4.881  0.00  0.00    -0.014 C 
ATOM     36  C   UNL     1       5.599  -9.182  -5.502  0.00  0.00    -0.015 C 
ATOM     37  C   UNL     1       6.548  -8.675  -6.590  0.00  0.00    -0.079 C 
ATOM     38  H   UNL     1       5.078  -8.599  -8.001  0.00  0.00    -0.082 HD
ENDBRANCH  30  35
ENDBRANCH  29  30
ENDBRANCH  28  29
ENDBRANCH  27  28
ENDBRANCH   1  27
TORSDOF 10
