REMARK  Name = CHEMBL103293
REMARK  9 active torsions:
REMARK  status: ('A' for Active; 'I' for Inactive)
REMARK    1  A    between atoms: C_1  and  O_2
REMARK    2  A    between atoms: O_2  and  C_3
REMARK    3  A    between atoms: C_5  and  N_11
REMARK    4  A    between atoms: N_11  and  C_12
REMARK    5  A    between atoms: C_16  and  C_24
REMARK    6  A    between atoms: C_21  and  C_22
REMARK    7  A    between atoms: C_28  and  C_30
REMARK    8  A    between atoms: C_30  and  C_31
REMARK    9  A    between atoms: C_31  and  N_32
REMARK                            x       y       z     vdW  Elec       q    Type
REMARK                         _______ _______ _______ _____ _____    ______ ____
ROOT
ATOM      1  C   UNL     1      -4.637   1.720  -0.235  0.00  0.00    +0.060 A 
ATOM      2  C   UNL     1      -5.780   2.524  -0.013  0.00  0.00    +0.023 A 
ATOM      3  C   UNL     1      -6.987   1.959   0.425  0.00  0.00    +0.012 A 
ATOM      4  C   UNL     1      -8.072   2.751   0.633  0.00  0.00    +0.009 A 
ATOM      5  C   UNL     1      -8.001   4.134   0.411  0.00  0.00    -0.016 A 
ATOM      6  C   UNL     1      -6.824   4.718  -0.021  0.00  0.00    +0.037 A 
ATOM      7  C   UNL     1      -5.693   3.919  -0.240  0.00  0.00    +0.073 A 
ATOM      8  N   UNL     1      -4.542   4.465  -0.659  0.00  0.00    -0.254 NA
ATOM      9  C   UNL     1      -3.470   3.745  -0.872  0.00  0.00    +0.132 A 
ATOM     10  C   UNL     1      -3.463   2.356  -0.668  0.00  0.00    +0.091 A 
ENDROOT
BRANCH   5  11
ATOM     11  C   UNL     1      -9.199   4.978   0.643  0.00  0.00    -0.018 A 
ATOM     12  C   UNL     1      -9.139   6.353   0.421  0.00  0.00    +0.008 A 
ATOM     13  C   UNL     1     -10.257   7.133   0.637  0.00  0.00    +0.001 A 
ATOM     14  C   UNL     1     -11.434   6.553   1.075  0.00  0.00    +0.003 A 
ATOM     15  C   UNL     1     -11.499   5.190   1.298  0.00  0.00    -0.049 A 
ATOM     16  C   UNL     1     -10.389   4.399   1.079  0.00  0.00    +0.012 A 
BRANCH  15  17
ATOM     17  C   UNL     1     -12.785   4.566   1.774  0.00  0.00    +0.016 C 
BRANCH  17  18
ATOM     18  C   UNL     1     -13.628   4.151   0.567  0.00  0.00    -0.074 C 
BRANCH  18  19
ATOM     19  N   UNL     1     -14.882   3.542   1.032  0.00  0.00    +0.383 N 
ATOM     20  C   UNL     1     -14.585   2.293   1.746  0.00  0.00    -0.050 C 
ATOM     21  C   UNL     1     -15.893   1.661   2.229  0.00  0.00    +0.141 C 
ATOM     22  O   UNL     1     -16.750   1.434   1.107  0.00  0.00    -0.383 OA
ATOM     23  C   UNL     1     -17.049   2.619   0.364  0.00  0.00    +0.141 C 
ATOM     24  C   UNL     1     -15.743   3.252  -0.123  0.00  0.00    -0.050 C 
ATOM     25  H   UNL     1     -15.356   4.181   1.653  0.00  0.00    -0.082 HD
ENDBRANCH  18  19
ENDBRANCH  17  18
ENDBRANCH  15  17
ENDBRANCH   5  11
BRANCH   1  26
ATOM     26  N   UNL     1      -4.673   0.357  -0.028  0.00  0.00    -0.312 N 
ATOM     27  H   UNL     1      -5.520  -0.115  -0.053  0.00  0.00    +0.152 HD
BRANCH  26  30
ATOM     28  C   UNL     1      -1.843  -1.954  -0.464  0.00  0.00    +0.140 A 
ATOM     29  C   UNL     1      -3.017  -1.260  -0.712  0.00  0.00    +0.071 A 
ATOM     30  C   UNL     1      -3.489  -0.345   0.219  0.00  0.00    +0.053 A 
ATOM     31  C   UNL     1      -2.783  -0.126   1.396  0.00  0.00    +0.064 A 
ATOM     32  C   UNL     1      -1.613  -0.820   1.640  0.00  0.00    +0.045 A 
ATOM     33  C   UNL     1      -1.144  -1.736   0.716  0.00  0.00    +0.084 A 
ATOM     34 CL   UNL     1       0.323  -2.611   1.028  0.00  0.00    -0.080 Cl
ATOM     35 CL   UNL     1      -3.372   1.019   2.561  0.00  0.00    -0.082 Cl
BRANCH  28  37
ATOM     36  C   UNL     1      -2.082  -2.940  -2.615  0.00  0.00    +0.277 C 
ATOM     37  O   UNL     1      -1.379  -2.851  -1.374  0.00  0.00    -0.494 OA
ENDBRANCH  28  37
ENDBRANCH  26  30
ENDBRANCH   1  26
BRANCH  10  38
ATOM     38  C   UNL     1      -2.273   1.596  -0.903  0.00  0.00    +0.103 C 
ATOM     39  N   UNL     1      -1.329   0.993  -1.090  0.00  0.00    -0.191 NA
ENDBRANCH  10  38
TORSDOF 8
