REMARK  Name = CHEMBL401896
REMARK  9 active torsions:
REMARK  status: ('A' for Active; 'I' for Inactive)
REMARK    1  A    between atoms: C_1  and  C_2
REMARK    2  A    between atoms: C_2  and  O_3
REMARK    3  A    between atoms: O_3  and  N_4
REMARK    4  A    between atoms: C_5  and  C_6
REMARK    5  A    between atoms: C_5  and  C_7
REMARK    6  A    between atoms: N_19  and  C_20
REMARK    7  A    between atoms: C_20  and  C_21
REMARK    8  A    between atoms: C_20  and  C_22
REMARK    9  A    between atoms: N_28  and  C_30
REMARK                            x       y       z     vdW  Elec       q    Type
REMARK                         _______ _______ _______ _____ _____    ______ ____
ROOT
ATOM      1  C   UNL     1      -2.508  -4.109  -1.048  0.00  0.00    -0.000 A 
ATOM      2  C   UNL     1      -3.755  -4.607  -0.664  0.00  0.00    +0.012 A 
ATOM      3  C   UNL     1      -3.968  -5.941  -0.425  0.00  0.00    +0.027 A 
ATOM      4  C   UNL     1      -2.881  -6.803  -0.580  0.00  0.00    +0.050 A 
ATOM      5  C   UNL     1      -1.614  -6.308  -0.968  0.00  0.00    +0.009 A 
ATOM      6  C   UNL     1      -1.404  -4.955  -1.215  0.00  0.00    +0.020 A 
ATOM      7  C   UNL     1      -0.714  -7.463  -1.031  0.00  0.00    +0.013 A 
ATOM      8  C   UNL     1       0.630  -7.615  -1.336  0.00  0.00    -0.008 A 
ATOM      9  C   UNL     1       1.214  -8.882  -1.323  0.00  0.00    +0.050 A 
ATOM     10  C   UNL     1       0.423  -9.999  -1.003  0.00  0.00    +0.003 A 
ATOM     11  C   UNL     1      -0.915  -9.852  -0.651  0.00  0.00    -0.014 A 
ATOM     12  C   UNL     1      -1.493  -8.584  -0.680  0.00  0.00    +0.054 A 
ATOM     13  N   UNL     1      -2.784  -8.159  -0.415  0.00  0.00    -0.337 N 
ATOM     14  C   UNL     1      -1.735 -11.025  -0.190  0.00  0.00    +0.044 C 
ATOM     15  C   UNL     1      -1.401 -12.317  -0.932  0.00  0.00    +0.062 C 
ATOM     16  C   UNL     1       0.095 -12.495  -0.981  0.00  0.00    +0.071 A 
ATOM     17  C   UNL     1       0.970 -11.373  -1.029  0.00  0.00    +0.024 A 
ATOM     18  C   UNL     1       2.235 -11.838  -1.089  0.00  0.00    +0.116 A 
ATOM     19  N   UNL     1       2.171 -13.188  -1.064  0.00  0.00    -0.274 N 
ATOM     20  N   UNL     1       0.820 -13.565  -0.993  0.00  0.00    -0.176 NA
ATOM     21  C   UNL     1       3.315 -14.102  -1.105  0.00  0.00    +0.172 C 
ATOM     22  C   UNL     1       2.634  -8.740  -1.679  0.00  0.00    +0.245 C 
ATOM     23  O   UNL     1       3.426  -9.660  -1.755  0.00  0.00    -0.270 OA
ATOM     24  N   UNL     1       2.933  -7.450  -1.909  0.00  0.00    -0.307 N 
ATOM     25  C   UNL     1       1.721  -6.646  -1.718  0.00  0.00    +0.141 C 
ATOM     26  H   UNL     1       3.805  -7.107  -2.160  0.00  0.00    +0.149 HD
ENDROOT
BRANCH   1  28
ATOM     27  N   UNL     1      -1.203  -2.187  -1.651  0.00  0.00    -0.089 NA
ATOM     28  C   UNL     1      -2.351  -2.662  -1.290  0.00  0.00    +0.084 C 
ATOM     29  C   UNL     1      -3.528  -1.738  -1.115  0.00  0.00    +0.069 C 
BRANCH  27  30
ATOM     30  O   UNL     1      -1.053  -0.798  -1.883  0.00  0.00    -0.394 OA
BRANCH  30  32
ATOM     31  C   UNL     1       0.311   1.099  -2.498  0.00  0.00    +0.051 C 
ATOM     32  C   UNL     1       0.266  -0.414  -2.276  0.00  0.00    +0.259 C 
ENDBRANCH  30  32
ENDBRANCH  27  30
ENDBRANCH   1  28
BRANCH  13  33
ATOM     33  C   UNL     1      -3.888  -9.035  -0.015  0.00  0.00    +0.082 C 
ATOM     34  C   UNL     1      -3.617  -9.591   1.384  0.00  0.00    +0.030 C 
ATOM     35  C   UNL     1      -5.193  -8.237  -0.003  0.00  0.00    +0.030 C 
ENDBRANCH  13  33
TORSDOF 4
