REMARK  Name = CHEMBL425312
REMARK  3 active torsions:
REMARK  status: ('A' for Active; 'I' for Inactive)
REMARK    1  A    between atoms: C_1  and  C_2
REMARK    2  A    between atoms: C_7  and  N_8
REMARK    3  A    between atoms: C_26  and  C_29
REMARK                            x       y       z     vdW  Elec       q    Type
REMARK                         _______ _______ _______ _____ _____    ______ ____
ROOT
ATOM      1  N   UNL     1       0.036  -0.019   2.417  0.00  0.00    -0.300 N 
ATOM      2  C   UNL     1      -0.351  -0.656   3.569  0.00  0.00    +0.123 C 
ATOM      3  N   UNL     1      -0.632  -1.929   3.546  0.00  0.00    -0.231 NA
ATOM      4  C   UNL     1      -1.022  -2.627   4.656  0.00  0.00    +0.106 A 
ATOM      5  C   UNL     1      -1.676  -3.854   4.557  0.00  0.00    +0.034 A 
ATOM      6  C   UNL     1      -2.022  -4.508   5.727  0.00  0.00    +0.046 A 
ATOM      7  C   UNL     1      -1.711  -3.936   6.956  0.00  0.00    +0.123 A 
ATOM      8  N   UNL     1      -1.094  -2.762   7.025  0.00  0.00    -0.215 NA
ATOM      9  C   UNL     1      -0.759  -2.103   5.939  0.00  0.00    +0.155 A 
ATOM     10  N   UNL     1      -0.160  -0.848   5.952  0.00  0.00    -0.264 N 
ATOM     11  C   UNL     1      -0.444   0.115   4.860  0.00  0.00    +0.163 C 
ATOM     12  C   UNL     1       0.705   1.122   5.012  0.00  0.00    +0.144 C 
ATOM     13  N   UNL     1       1.301   0.775   6.313  0.00  0.00    -0.376 N 
ATOM     14  C   UNL     1       0.757  -0.294   6.775  0.00  0.00    +0.160 C 
ATOM     15  N   UNL     1      -2.051  -4.602   8.128  0.00  0.00    -0.318 N 
ATOM     16  C   UNL     1      -1.956  -3.932   9.434  0.00  0.00    +0.087 C 
ATOM     17  C   UNL     1      -1.167  -4.835  10.388  0.00  0.00    -0.063 C 
ATOM     18  N   UNL     1      -1.794  -6.163  10.433  0.00  0.00    +0.383 N 
ATOM     19  C   UNL     1      -1.701  -6.804   9.115  0.00  0.00    -0.057 C 
ATOM     20  C   UNL     1      -2.522  -5.996   8.097  0.00  0.00    +0.090 C 
ATOM     21  C   UNL     1      -2.256  -8.227   9.200  0.00  0.00    -0.012 C 
ATOM     22  H   UNL     1       0.167   0.943   2.416  0.00  0.00    +0.153 HD
ATOM     23  H   UNL     1      -1.320  -6.734  11.117  0.00  0.00    -0.085 HD
ATOM     24  H   UNL     1      -2.764  -6.067  10.692  0.00  0.00    -0.085 HD
ATOM     25  H   UNL     1       1.996   1.283   6.758  0.00  0.00    +0.160 HD
ENDROOT
BRANCH   1  32
ATOM     26  C   UNL     1       2.679  -0.177   1.376  0.00  0.00    +0.046 C 
ATOM     27  C   UNL     1       1.515  -0.858   0.704  0.00  0.00    -0.028 A 
ATOM     28  C   UNL     1       1.715  -1.591  -0.450  0.00  0.00    +0.005 A 
ATOM     29  C   UNL     1       0.648  -2.216  -1.069  0.00  0.00    +0.002 A 
ATOM     30  C   UNL     1      -0.623  -2.111  -0.534  0.00  0.00    +0.022 A 
ATOM     31  C   UNL     1      -0.831  -1.380   0.620  0.00  0.00    +0.062 A 
ATOM     32  C   UNL     1       0.241  -0.754   1.246  0.00  0.00    +0.054 A 
ATOM     33 CL   UNL     1      -2.427  -1.248   1.289  0.00  0.00    -0.082 Cl
ENDBRANCH   1  32
TORSDOF 1
