REMARK  Name = CHEMBL227652
REMARK  6 active torsions:
REMARK  status: ('A' for Active; 'I' for Inactive)
REMARK    1  A    between atoms: C_1  and  C_2
REMARK    2  A    between atoms: C_6  and  C_29
REMARK    3  A    between atoms: C_7  and  N_8
REMARK    4  A    between atoms: C_15  and  C_18
REMARK    5  A    between atoms: C_21  and  C_23
REMARK    6  A    between atoms: C_23  and  N_24
REMARK                            x       y       z     vdW  Elec       q    Type
REMARK                         _______ _______ _______ _____ _____    ______ ____
ROOT
ATOM      1  N   UNL     1       0.260  -0.911   2.587  0.00  0.00    -0.297 N 
ATOM      2  C   UNL     1       0.036  -1.790   3.632  0.00  0.00    +0.149 A 
ATOM      3  C   UNL     1      -0.027  -1.311   4.960  0.00  0.00    +0.106 A 
ATOM      4  C   UNL     1       0.088  -0.071   5.547  0.00  0.00    +0.142 A 
ATOM      5  N   UNL     1      -0.063  -0.235   6.862  0.00  0.00    -0.243 NA
ATOM      6  C   UNL     1      -0.265  -1.502   7.132  0.00  0.00    +0.204 A 
ATOM      7  N   UNL     1      -0.252  -2.208   5.990  0.00  0.00    -0.294 N 
ATOM      8  C   UNL     1      -0.407  -3.550   5.680  0.00  0.00    +0.080 A 
ATOM      9  C   UNL     1      -0.336  -3.951   4.379  0.00  0.00    +0.140 A 
ATOM     10  N   UNL     1      -0.124  -3.079   3.392  0.00  0.00    -0.236 NA
ATOM     11  H   UNL     1       0.300   0.043   2.755  0.00  0.00    +0.154 HD
ENDROOT
BRANCH   1  18
ATOM     12  C   UNL     1       2.854  -0.773   1.426  0.00  0.00    +0.045 C 
ATOM     13  C   UNL     1       1.677  -1.351   0.682  0.00  0.00    -0.029 A 
ATOM     14  C   UNL     1       1.841  -1.838  -0.599  0.00  0.00    +0.005 A 
ATOM     15  C   UNL     1       0.762  -2.369  -1.282  0.00  0.00    +0.001 A 
ATOM     16  C   UNL     1      -0.485  -2.414  -0.684  0.00  0.00    +0.005 A 
ATOM     17  C   UNL     1      -0.655  -1.928   0.597  0.00  0.00    -0.029 A 
ATOM     18  C   UNL     1       0.428  -1.399   1.288  0.00  0.00    +0.038 A 
ATOM     19  C   UNL     1      -2.014  -1.976   1.248  0.00  0.00    +0.045 C 
ENDBRANCH   1  18
BRANCH   8  20
ATOM     20  C   UNL     1      -0.647  -4.532   6.744  0.00  0.00    +0.034 C 
ATOM     21  C   UNL     1      -1.684  -5.355   6.855  0.00  0.00    -0.005 C 
ATOM     22  C   UNL     1      -1.628  -6.236   8.061  0.00  0.00    +0.064 C 
ATOM     23  C   UNL     1      -0.395  -5.992   8.894  0.00  0.00    -0.045 C 
ATOM     24  S   UNL     1       0.392  -4.867   8.140  0.00  0.00    -0.098 S 
BRANCH  23  25
ATOM     25  C   UNL     1      -0.001  -6.687  10.172  0.00  0.00    -0.040 C 
BRANCH  25  26
ATOM     26  N   UNL     1       1.276  -6.143  10.651  0.00  0.00    +0.383 N 
ATOM     27  C   UNL     1       1.097  -4.740  11.105  0.00  0.00    -0.078 C 
ATOM     28  C   UNL     1       2.299  -4.520  12.058  0.00  0.00    -0.020 C 
ATOM     29  C   UNL     1       2.427  -5.884  12.773  0.00  0.00    -0.020 C 
ATOM     30  C   UNL     1       1.737  -6.895  11.838  0.00  0.00    -0.078 C 
ATOM     31  H   UNL     1       1.970  -6.188   9.920  0.00  0.00    -0.081 HD
ENDBRANCH  25  26
ENDBRANCH  23  25
ENDBRANCH   8  20
TORSDOF 4
