REMARK  Name = CHEMBL194352
REMARK  15 active torsions:
REMARK  status: ('A' for Active; 'I' for Inactive)
REMARK    1  A    between atoms: C_1  and  O_2
REMARK    2  A    between atoms: O_2  and  C_3
REMARK    3  A    between atoms: C_12  and  O_13
REMARK    4  A    between atoms: O_13  and  C_14
REMARK    5  A    between atoms: C_14  and  C_15
REMARK    6  A    between atoms: C_15  and  N_16
REMARK    7  A    between atoms: C_22  and  N_28
REMARK    8  A    between atoms: C_23  and  C_26
REMARK    9  A    between atoms: N_28  and  C_29
REMARK   10  A    between atoms: C_31  and  O_39
REMARK   11  A    between atoms: C_32  and  O_37
REMARK   12  A    between atoms: C_33  and  O_35
REMARK   13  A    between atoms: O_35  and  C_36
REMARK   14  A    between atoms: O_37  and  C_38
REMARK   15  A    between atoms: O_39  and  C_40
REMARK                            x       y       z     vdW  Elec       q    Type
REMARK                         _______ _______ _______ _____ _____    ______ ____
ROOT
ATOM      1  C   UNL     1      -1.810   0.432   7.743  0.00  0.00    +0.162 A 
ATOM      2  C   UNL     1      -0.584   0.872   7.345  0.00  0.00    +0.058 A 
ATOM      3  C   UNL     1       0.434  -0.062   7.063  0.00  0.00    -0.012 A 
ATOM      4  C   UNL     1       1.701   0.357   6.653  0.00  0.00    +0.037 A 
ATOM      5  C   UNL     1       2.686  -0.587   6.383  0.00  0.00    +0.073 A 
ATOM      6  C   UNL     1       2.391  -2.015   6.529  0.00  0.00    +0.023 A 
ATOM      7  C   UNL     1       1.131  -2.438   6.938  0.00  0.00    +0.020 A 
ATOM      8  C   UNL     1       0.142  -1.492   7.209  0.00  0.00    -0.013 A 
ATOM      9  C   UNL     1      -1.147  -1.885   7.626  0.00  0.00    +0.058 A 
ATOM     10  C   UNL     1      -2.088  -0.936   7.888  0.00  0.00    +0.162 A 
ATOM     11  C   UNL     1       3.420  -2.952   6.246  0.00  0.00    +0.060 A 
ATOM     12  C   UNL     1       4.664  -2.450   5.840  0.00  0.00    +0.091 A 
ATOM     13  C   UNL     1       4.858  -1.064   5.726  0.00  0.00    +0.132 A 
ATOM     14  N   UNL     1       3.913  -0.201   5.987  0.00  0.00    -0.254 NA
ENDROOT
BRANCH   1  16
ATOM     15  C   UNL     1      -2.450   2.719   7.850  0.00  0.00    +0.277 C 
ATOM     16  O   UNL     1      -2.785   1.339   8.013  0.00  0.00    -0.491 OA
ENDBRANCH   1  16
BRANCH  12  17
ATOM     17  C   UNL     1       5.737  -3.351   5.542  0.00  0.00    +0.103 C 
ATOM     18  N   UNL     1       6.588  -4.065   5.305  0.00  0.00    -0.191 NA
ENDBRANCH  12  17
BRANCH  11  19
ATOM     19  N   UNL     1       3.203  -4.307   6.366  0.00  0.00    -0.313 N 
ATOM     20  H   UNL     1       2.872  -4.814   5.608  0.00  0.00    +0.152 HD
BRANCH  19  21
ATOM     21  C   UNL     1       3.460  -4.952   7.580  0.00  0.00    +0.039 A 
ATOM     22  C   UNL     1       3.802  -4.208   8.702  0.00  0.00    +0.072 A 
ATOM     23  C   UNL     1       4.057  -4.846   9.906  0.00  0.00    +0.167 A 
ATOM     24  C   UNL     1       3.969  -6.231   9.990  0.00  0.00    +0.204 A 
ATOM     25  C   UNL     1       3.626  -6.974   8.867  0.00  0.00    +0.167 A 
ATOM     26  C   UNL     1       3.366  -6.335   7.665  0.00  0.00    +0.072 A 
BRANCH  25  27
ATOM     27  O   UNL     1       3.539  -8.329   8.949  0.00  0.00    -0.491 OA
ATOM     28  C   UNL     1       3.182  -9.030   7.756  0.00  0.00    +0.277 C 
ENDBRANCH  25  27
BRANCH  24  29
ATOM     29  O   UNL     1       4.219  -6.858  11.172  0.00  0.00    -0.488 OA
ATOM     30  C   UNL     1       3.108  -7.060  12.048  0.00  0.00    +0.277 C 
ENDBRANCH  24  29
BRANCH  23  31
ATOM     31  O   UNL     1       4.393  -4.118  11.004  0.00  0.00    -0.491 OA
ATOM     32  C   UNL     1       4.348  -2.695  10.877  0.00  0.00    +0.277 C 
ENDBRANCH  23  31
ENDBRANCH  19  21
ENDBRANCH  11  19
BRANCH  10  33
ATOM     33  O   UNL     1      -3.326  -1.323   8.294  0.00  0.00    -0.490 OA
BRANCH  33  34
ATOM     34  C   UNL     1      -3.556  -2.728   8.425  0.00  0.00    +0.211 C 
BRANCH  34  35
ATOM     35  C   UNL     1      -4.995  -2.967   8.889  0.00  0.00    -0.037 C 
BRANCH  35  36
ATOM     36  N   UNL     1      -5.927  -2.466   7.870  0.00  0.00    +0.385 N 
ATOM     37  C   UNL     1      -7.303  -2.559   8.377  0.00  0.00    -0.050 C 
ATOM     38  C   UNL     1      -8.273  -2.036   7.315  0.00  0.00    +0.141 C 
ATOM     39  O   UNL     1      -8.104  -2.790   6.111  0.00  0.00    -0.383 OA
ATOM     40  C   UNL     1      -6.773  -2.750   5.590  0.00  0.00    +0.141 C 
ATOM     41  C   UNL     1      -5.801  -3.274   6.650  0.00  0.00    -0.050 C 
ATOM     42  H   UNL     1      -5.710  -1.503   7.660  0.00  0.00    -0.081 HD
ENDBRANCH  35  36
ENDBRANCH  34  35
ENDBRANCH  33  34
ENDBRANCH  10  33
TORSDOF 11
