REMARK  Name = CHEMBL338194
REMARK  15 active torsions:
REMARK  status: ('A' for Active; 'I' for Inactive)
REMARK    1  A    between atoms: C_1  and  O_2
REMARK    2  A    between atoms: O_2  and  C_3
REMARK    3  A    between atoms: C_8  and  O_9
REMARK    4  A    between atoms: O_9  and  C_10
REMARK    5  A    between atoms: C_10  and  C_11
REMARK    6  A    between atoms: C_11  and  C_12
REMARK    7  A    between atoms: C_12  and  N_13
REMARK    8  A    between atoms: N_16  and  C_19
REMARK    9  A    between atoms: C_19  and  C_20
REMARK   10  A    between atoms: C_20  and  O_21
REMARK   11  A    between atoms: C_24  and  C_37
REMARK   12  A    between atoms: C_25  and  N_26
REMARK   13  A    between atoms: N_26  and  C_27
REMARK   14  A    between atoms: C_29  and  O_35
REMARK   15  A    between atoms: O_35  and  C_36
REMARK                            x       y       z     vdW  Elec       q    Type
REMARK                         _______ _______ _______ _____ _____    ______ ____
ROOT
ATOM      1  C   UNL     1      -1.156  -0.429   0.797  0.00  0.00    +0.162 A 
ATOM      2  C   UNL     1      -2.318   0.246   0.552  0.00  0.00    +0.061 A 
ATOM      3  C   UNL     1      -3.526  -0.460   0.451  0.00  0.00    +0.026 A 
ATOM      4  C   UNL     1      -3.537  -1.867   0.603  0.00  0.00    +0.077 A 
ATOM      5  C   UNL     1      -2.330  -2.538   0.854  0.00  0.00    +0.077 A 
ATOM      6  C   UNL     1      -1.158  -1.823   0.943  0.00  0.00    +0.164 A 
ATOM      7  N   UNL     1      -4.689  -2.548   0.507  0.00  0.00    -0.253 NA
ATOM      8  C   UNL     1      -5.830  -1.951   0.272  0.00  0.00    +0.132 A 
ATOM      9  C   UNL     1      -5.912  -0.559   0.108  0.00  0.00    +0.091 A 
ATOM     10  C   UNL     1      -4.744   0.213   0.197  0.00  0.00    +0.060 A 
ENDROOT
BRANCH   1  12
ATOM     11  C   UNL     1      -0.052   1.676   0.736  0.00  0.00    +0.277 C 
ATOM     12  O   UNL     1       0.013   0.258   0.894  0.00  0.00    -0.491 OA
ENDBRANCH   1  12
BRANCH  10  13
ATOM     13  N   UNL     1      -4.782   1.584   0.042  0.00  0.00    -0.312 N 
ATOM     14  H   UNL     1      -3.981   2.065  -0.219  0.00  0.00    +0.152 HD
BRANCH  13  15
ATOM     15  C   UNL     1      -5.975   2.280   0.260  0.00  0.00    +0.053 A 
ATOM     16  C   UNL     1      -6.624   2.897  -0.801  0.00  0.00    +0.071 A 
ATOM     17  C   UNL     1      -7.806   3.585  -0.582  0.00  0.00    +0.140 A 
ATOM     18  C   UNL     1      -8.341   3.656   0.698  0.00  0.00    +0.084 A 
ATOM     19  C   UNL     1      -7.694   3.041   1.755  0.00  0.00    +0.045 A 
ATOM     20  C   UNL     1      -6.516   2.349   1.538  0.00  0.00    +0.064 A 
ATOM     21 CL   UNL     1      -5.711   1.572   2.865  0.00  0.00    -0.082 Cl
ATOM     22 CL   UNL     1      -9.822   4.518   0.973  0.00  0.00    -0.080 Cl
BRANCH  17  23
ATOM     23  O   UNL     1      -8.443   4.190  -1.619  0.00  0.00    -0.494 OA
ATOM     24  C   UNL     1      -7.901   3.981  -2.924  0.00  0.00    +0.277 C 
ENDBRANCH  17  23
ENDBRANCH  13  15
ENDBRANCH  10  13
BRANCH   9  25
ATOM     25  C   UNL     1      -7.175   0.066  -0.147  0.00  0.00    +0.103 C 
ATOM     26  N   UNL     1      -8.177   0.562  -0.350  0.00  0.00    -0.191 NA
ENDBRANCH   9  25
BRANCH   6  27
ATOM     27  O   UNL     1       0.011  -2.475   1.180  0.00  0.00    -0.488 OA
BRANCH  27  28
ATOM     28  C   UNL     1      -0.056  -3.895   1.319  0.00  0.00    +0.230 C 
BRANCH  28  29
ATOM     29  C   UNL     1       1.346  -4.449   1.580  0.00  0.00    +0.056 C 
BRANCH  29  30
ATOM     30  C   UNL     1       1.275  -5.970   1.730  0.00  0.00    +0.088 C 
BRANCH  30  31
ATOM     31  N   UNL     1       2.622  -6.501   1.980  0.00  0.00    -0.300 NA
ATOM     32  C   UNL     1       3.490  -6.308   0.810  0.00  0.00    +0.100 C 
ATOM     33  C   UNL     1       4.901  -6.801   1.138  0.00  0.00    +0.100 C 
ATOM     34  N   UNL     1       4.845  -8.218   1.521  0.00  0.00    -0.298 NA
ATOM     35  C   UNL     1       3.977  -8.411   2.691  0.00  0.00    +0.100 C 
ATOM     36  C   UNL     1       2.566  -7.918   2.363  0.00  0.00    +0.100 C 
BRANCH  34  37
ATOM     37  C   UNL     1       6.192  -8.749   1.771  0.00  0.00    +0.112 C 
BRANCH  37  38
ATOM     38  C   UNL     1       6.120 -10.271   1.921  0.00  0.00    +0.171 C 
BRANCH  38  39
ATOM     39  O   UNL     1       5.709 -10.852   0.682  0.00  0.00    -0.394 OA
ATOM     40  H   UNL     1       5.642 -11.816   0.703  0.00  0.00    +0.209 HD
ENDBRANCH  38  39
ENDBRANCH  37  38
ENDBRANCH  34  37
ENDBRANCH  30  31
ENDBRANCH  29  30
ENDBRANCH  28  29
ENDBRANCH  27  28
ENDBRANCH   6  27
TORSDOF 13
