REMARK  Name = CHEMBL214329
REMARK  4 active torsions:
REMARK  status: ('A' for Active; 'I' for Inactive)
REMARK    1  A    between atoms: C_1  and  N_2
REMARK    2  A    between atoms: N_5  and  C_8
REMARK    3  A    between atoms: C_11  and  N_14
REMARK    4  A    between atoms: N_21  and  C_24
REMARK                            x       y       z     vdW  Elec       q    Type
REMARK                         _______ _______ _______ _____ _____    ______ ____
ROOT
ATOM      1  N   UNL     1      -2.316  -6.886   3.882  0.00  0.00    -0.284 N 
ATOM      2  C   UNL     1      -1.527  -7.401   4.899  0.00  0.00    +0.221 A 
ATOM      3  N   UNL     1      -0.380  -6.797   5.187  0.00  0.00    -0.222 NA
ATOM      4  C   UNL     1       0.408  -7.249   6.147  0.00  0.00    +0.126 A 
ATOM      5  C   UNL     1       0.011  -8.380   6.859  0.00  0.00    +0.037 A 
ATOM      6  C   UNL     1       0.578  -9.165   7.956  0.00  0.00    +0.031 A 
ATOM      7  C   UNL     1      -0.288 -10.159   8.211  0.00  0.00    +0.088 A 
ATOM      8  N   UNL     1      -1.363 -10.070   7.364  0.00  0.00    -0.329 N 
ATOM      9  C   UNL     1      -1.214  -8.998   6.527  0.00  0.00    +0.146 A 
ATOM     10  N   UNL     1      -1.946  -8.473   5.550  0.00  0.00    -0.196 NA
ATOM     11  H   UNL     1      -3.195  -7.260   3.715  0.00  0.00    +0.155 HD
ENDROOT
BRANCH   1  15
ATOM     12  C   UNL     1      -0.910  -3.731   1.545  0.00  0.00    +0.030 A 
ATOM     13  C   UNL     1      -0.028  -4.696   2.013  0.00  0.00    +0.025 A 
ATOM     14  C   UNL     1      -0.493  -5.740   2.787  0.00  0.00    +0.025 A 
ATOM     15  C   UNL     1      -1.844  -5.826   3.098  0.00  0.00    +0.034 A 
ATOM     16  C   UNL     1      -2.727  -4.862   2.630  0.00  0.00    +0.025 A 
ATOM     17  C   UNL     1      -2.260  -3.814   1.861  0.00  0.00    +0.025 A 
BRANCH  12  22
ATOM     18  C   UNL     1       0.676  -0.982  -2.915  0.00  0.00    +0.105 C 
ATOM     19  N   UNL     1       0.369  -1.271  -1.508  0.00  0.00    -0.302 NA
ATOM     20  C   UNL     1       1.222  -2.351  -0.994  0.00  0.00    +0.103 C 
ATOM     21  C   UNL     1       1.001  -2.498   0.515  0.00  0.00    +0.120 C 
ATOM     22  N   UNL     1      -0.439  -2.673   0.761  0.00  0.00    -0.327 N 
ATOM     23  C   UNL     1      -1.369  -1.704   0.161  0.00  0.00    +0.120 C 
ATOM     24  C   UNL     1      -1.055  -1.588  -1.334  0.00  0.00    +0.103 C 
ENDBRANCH  12  22
ENDBRANCH   1  15
BRANCH   8  25
ATOM     25  C   UNL     1      -2.504 -10.989   7.356  0.00  0.00    +0.089 C 
ATOM     26  C   UNL     1      -2.013 -12.409   7.067  0.00  0.00    +0.025 C 
ATOM     27  C   UNL     1      -3.205 -13.368   7.059  0.00  0.00    +0.002 C 
ATOM     28  C   UNL     1      -3.896 -13.335   8.423  0.00  0.00    +0.000 C 
ATOM     29  C   UNL     1      -4.387 -11.915   8.711  0.00  0.00    +0.002 C 
ATOM     30  C   UNL     1      -3.196 -10.955   8.720  0.00  0.00    +0.025 C 
ENDBRANCH   8  25
TORSDOF 3
