REMARK  Name = CHEMBL281492
REMARK  14 active torsions:
REMARK  status: ('A' for Active; 'I' for Inactive)
REMARK    1  A    between atoms: C_1  and  C_2
REMARK    2  A    between atoms: N_4  and  C_5
REMARK    3  A    between atoms: C_5  and  C_7
REMARK    4  A    between atoms: C_5  and  C_19
REMARK    5  A    between atoms: C_7  and  C_8
REMARK    6  A    between atoms: C_11  and  O_14
REMARK    7  A    between atoms: O_14  and  P_15
REMARK    8  A    between atoms: P_15  and  O_18
REMARK    9  A    between atoms: N_21  and  C_22
REMARK   10  A    between atoms: N_28  and  C_31
REMARK   11  A    between atoms: C_31  and  C_32
REMARK   12  A    between atoms: C_35  and  C_38
REMARK   13  A    between atoms: C_38  and  O_40
REMARK   14  A    between atoms: O_40  and  C_41
REMARK                            x       y       z     vdW  Elec       q    Type
REMARK                         _______ _______ _______ _____ _____    ______ ____
ROOT
ATOM      1  C   UNL     1      -1.197  -2.659  -0.458  0.00  0.00    +0.234 C 
ATOM      2  O   UNL     1      -1.800  -1.943   0.314  0.00  0.00    -0.274 OA
ATOM      3  N   UNL     1      -1.615  -3.923  -0.671  0.00  0.00    -0.302 N 
ATOM      4  H   UNL     1      -1.133  -4.495  -1.288  0.00  0.00    +0.150 HD
ENDROOT
BRANCH   3   5
ATOM      5  C   UNL     1      -2.798  -4.431   0.028  0.00  0.00    +0.159 C 
ATOM      6  C   UNL     1      -3.420  -5.574  -0.778  0.00  0.00    +0.032 C 
ATOM      7  C   UNL     1      -4.896  -5.719  -0.454  0.00  0.00    +0.004 C 
ATOM      8  C   UNL     1      -5.170  -6.177   0.967  0.00  0.00    +0.019 C 
ATOM      9  C   UNL     1      -4.755  -5.104   1.975  0.00  0.00    +0.108 C 
ATOM     10  N   UNL     1      -3.327  -5.278   2.288  0.00  0.00    -0.296 N 
ATOM     11  C   UNL     1      -2.396  -4.960   1.389  0.00  0.00    +0.236 C 
ATOM     12  O   UNL     1      -1.222  -5.099   1.661  0.00  0.00    -0.274 OA
BRANCH  10  13
ATOM     13  C   UNL     1      -2.928  -5.799   3.597  0.00  0.00    +0.143 C 
BRANCH  13  14
ATOM     14  C   UNL     1      -2.840  -7.302   3.535  0.00  0.00    -0.030 A 
ATOM     15  C   UNL     1      -3.955  -8.069   3.821  0.00  0.00    +0.006 A 
ATOM     16  C   UNL     1      -3.882  -9.446   3.765  0.00  0.00    +0.015 A 
ATOM     17  C   UNL     1      -2.679 -10.064   3.419  0.00  0.00    +0.059 A 
ATOM     18  C   UNL     1      -1.557  -9.283   3.132  0.00  0.00    +0.015 A 
ATOM     19  C   UNL     1      -1.646  -7.908   3.186  0.00  0.00    +0.006 A 
BRANCH  17  20
ATOM     20  C   UNL     1      -2.592 -11.537   3.358  0.00  0.00    +0.339 C 
ATOM     21  O   UNL     1      -3.570 -12.214   3.609  0.00  0.00    -0.245 OA
BRANCH  20  22
ATOM     22  O   UNL     1      -1.430 -12.131   3.024  0.00  0.00    -0.464 OA
ATOM     23  C   UNL     1      -1.419 -13.559   2.985  0.00  0.00    +0.280 C 
ENDBRANCH  20  22
ENDBRANCH  17  20
ENDBRANCH  13  14
ENDBRANCH  10  13
ENDBRANCH   3   5
BRANCH   1  24
ATOM     24  C   UNL     1       0.020  -2.136  -1.177  0.00  0.00    +0.163 C 
BRANCH  24  28
ATOM     25  C   UNL     1      -0.018   1.503   0.010  0.00  0.00    +0.109 C 
ATOM     26  C   UNL     1       0.002  -0.004   0.002  0.00  0.00    +0.211 C 
ATOM     27  O   UNL     1       0.020  -0.616   1.049  0.00  0.00    -0.276 OA
ATOM     28  N   UNL     1       0.000  -0.672  -1.169  0.00  0.00    -0.304 N 
ATOM     29  H   UNL     1      -0.015  -0.182  -2.006  0.00  0.00    +0.149 HD
ENDBRANCH  24  28
BRANCH  24  30
ATOM     30  C   UNL     1       1.283  -2.633  -0.470  0.00  0.00    +0.067 C 
BRANCH  30  31
ATOM     31  C   UNL     1       2.497  -2.214  -1.258  0.00  0.00    -0.045 A 
ATOM     32  C   UNL     1       2.998  -3.040  -2.247  0.00  0.00    +0.007 A 
ATOM     33  C   UNL     1       4.111  -2.658  -2.970  0.00  0.00    +0.046 A 
ATOM     34  C   UNL     1       4.727  -1.444  -2.704  0.00  0.00    +0.132 A 
ATOM     35  C   UNL     1       4.222  -0.616  -1.711  0.00  0.00    +0.046 A 
ATOM     36  C   UNL     1       3.106  -1.000  -0.994  0.00  0.00    +0.007 A 
BRANCH  34  37
ATOM     37  O   UNL     1       5.822  -1.066  -3.413  0.00  0.00    -0.403 OA
BRANCH  37  38
ATOM     38  P   UNL     1       5.483  -0.227  -4.745  0.00  0.00    +0.558 P 
ATOM     39  O   UNL     1       4.503  -1.033  -5.626  0.00  0.00    -0.213 OA
ATOM     40  O   UNL     1       4.834   1.120  -4.353  0.00  0.00    -0.106 OA
BRANCH  38  41
ATOM     41  O   UNL     1       6.840   0.050  -5.566  0.00  0.00    -0.291 OA
ATOM     42  H   UNL     1       6.710   0.552  -6.382  0.00  0.00    +0.223 HD
ENDBRANCH  38  41
ENDBRANCH  37  38
ENDBRANCH  34  37
ENDBRANCH  30  31
ENDBRANCH  24  30
ENDBRANCH   1  24
TORSDOF 12
