REMARK  Name = CHEMBL105084
REMARK  6 active torsions:
REMARK  status: ('A' for Active; 'I' for Inactive)
REMARK    1  A    between atoms: C_5  and  C_23
REMARK    2  A    between atoms: N_7  and  C_10
REMARK    3  A    between atoms: C_14  and  P_16
REMARK    4  A    between atoms: P_16  and  C_18
REMARK    5  A    between atoms: C_18  and  C_19
REMARK    6  A    between atoms: C_25  and  O_29
REMARK                            x       y       z     vdW  Elec       q    Type
REMARK                         _______ _______ _______ _____ _____    ______ ____
ROOT
ATOM      1  C   UNL     1      -0.084   1.346   0.473  0.00  0.00    +0.225 A 
ATOM      2  N   UNL     1       1.004   2.092   0.541  0.00  0.00    -0.220 NA
ATOM      3  C   UNL     1       2.212   1.562   0.380  0.00  0.00    +0.131 A 
ATOM      4  C   UNL     1       2.307   0.182   0.135  0.00  0.00    +0.086 A 
ATOM      5  C   UNL     1       3.407  -0.755  -0.091  0.00  0.00    +0.105 A 
ATOM      6  N   UNL     1       2.880  -1.945  -0.269  0.00  0.00    -0.164 NA
ATOM      7  N   UNL     1       1.487  -1.866  -0.176  0.00  0.00    -0.214 N 
ATOM      8  C   UNL     1       1.121  -0.573   0.071  0.00  0.00    +0.169 A 
ATOM      9  N   UNL     1      -0.043   0.051   0.245  0.00  0.00    -0.216 NA
ATOM     10  N   UNL     1       3.346   2.348   0.453  0.00  0.00    -0.342 N 
ATOM     11  H   UNL     1       3.264   3.311   0.526  0.00  0.00    +0.144 HD
ATOM     12  H   UNL     1       4.224   1.936   0.430  0.00  0.00    +0.144 HD
ENDROOT
BRANCH   7  13
ATOM     13  C   UNL     1       0.605  -2.944  -0.313  0.00  0.00    +0.064 C 
ATOM     14  C   UNL     1      -0.712  -2.749  -0.211  0.00  0.00    +0.001 C 
ATOM     15  C   UNL     1      -1.660  -3.913  -0.332  0.00  0.00    +0.034 C 
ATOM     16  C   UNL     1      -1.122  -4.923  -1.344  0.00  0.00    +0.045 C 
ATOM     17  C   UNL     1       0.320  -5.239  -1.044  0.00  0.00    +0.019 C 
ATOM     18  C   UNL     1       1.127  -4.297  -0.578  0.00  0.00    +0.036 C 
BRANCH  17  19
ATOM     19  P   UNL     1       0.956  -6.913  -1.330  0.00  0.00    +0.272 P 
ATOM     20  O   UNL     1       0.794  -7.278  -2.822  0.00  0.00    -0.283 OA
ATOM     21  O   UNL     1       0.164  -7.919  -0.465  0.00  0.00    -0.164 OA
BRANCH  19  22
ATOM     22  C   UNL     1       2.720  -6.979  -0.876  0.00  0.00    +0.229 C 
BRANCH  22  23
ATOM     23  C   UNL     1       3.280  -8.333  -1.228  0.00  0.00    +0.366 C 
ATOM     24  O   UNL     1       3.766  -8.525  -2.329  0.00  0.00    -0.246 OA
ATOM     25  O   UNL     1       3.246  -9.238  -0.410  0.00  0.00    -0.246 OA
ENDBRANCH  22  23
ENDBRANCH  19  22
ENDBRANCH  17  19
ENDBRANCH   7  13
BRANCH   5  26
ATOM     26  C   UNL     1       4.851  -0.423  -0.116  0.00  0.00    +0.001 C 
ATOM     27  C   UNL     1       5.682  -0.949   0.799  0.00  0.00    +0.014 C 
ATOM     28  C   UNL     1       7.149  -0.609   0.766  0.00  0.00    +0.142 C 
ATOM     29  C   UNL     1       7.338   0.836   0.308  0.00  0.00    +0.062 C 
ATOM     30  C   UNL     1       6.558   1.083  -0.955  0.00  0.00    -0.023 C 
ATOM     31  C   UNL     1       5.389   0.485  -1.151  0.00  0.00    +0.006 C 
BRANCH  28  32
ATOM     32  O   UNL     1       7.819  -1.486  -0.141  0.00  0.00    -0.387 OA
ATOM     33  H   UNL     1       7.747  -2.422   0.092  0.00  0.00    +0.210 HD
ENDBRANCH  28  32
ENDBRANCH   5  26
TORSDOF 6
