REMARK  Name = CHEMBL241040
REMARK  11 active torsions:
REMARK  status: ('A' for Active; 'I' for Inactive)
REMARK    1  A    between atoms: C_1  and  N_2
REMARK    2  A    between atoms: N_5  and  C_8
REMARK    3  A    between atoms: C_8  and  C_9
REMARK    4  A    between atoms: C_10  and  C_11
REMARK    5  A    between atoms: C_16  and  O_17
REMARK    6  A    between atoms: O_17  and  C_18
REMARK    7  A    between atoms: C_19  and  N_25
REMARK    8  A    between atoms: C_20  and  C_23
REMARK    9  A    between atoms: N_25  and  C_26
REMARK   10  A    between atoms: C_28  and  O_34
REMARK   11  A    between atoms: O_34  and  C_35
REMARK                            x       y       z     vdW  Elec       q    Type
REMARK                         _______ _______ _______ _____ _____    ______ ____
ROOT
ATOM      1  C   UNL     1      -1.211  -4.743   8.838  0.00  0.00    +0.069 A 
ATOM      2  C   UNL     1      -0.096  -4.056   8.386  0.00  0.00    +0.048 A 
ATOM      3  C   UNL     1       1.111  -4.741   8.192  0.00  0.00    +0.074 A 
ATOM      4  C   UNL     1       1.169  -6.130   8.462  0.00  0.00    +0.026 A 
ATOM      5  C   UNL     1       0.028  -6.806   8.919  0.00  0.00    +0.058 A 
ATOM      6  C   UNL     1      -1.139  -6.124   9.108  0.00  0.00    +0.136 A 
ATOM      7  C   UNL     1       2.390  -6.817   8.264  0.00  0.00    +0.060 A 
ATOM      8  C   UNL     1       3.490  -6.077   7.806  0.00  0.00    +0.091 A 
ATOM      9  C   UNL     1       3.342  -4.702   7.564  0.00  0.00    +0.132 A 
ATOM     10  N   UNL     1       2.201  -4.091   7.756  0.00  0.00    -0.254 NA
ENDROOT
BRANCH   1  12
ATOM     11  C   UNL     1      -3.456  -3.471   9.201  0.00  0.00    -0.081 C 
ATOM     12  C   UNL     1      -2.445  -4.044   9.037  0.00  0.00    -0.061 C 
BRANCH  11  13
ATOM     13  C   UNL     1      -4.724  -2.752   9.406  0.00  0.00    +0.174 C 
BRANCH  13  18
ATOM     14  C   UNL     1      -5.015   2.512   7.378  0.00  0.00    +0.105 C 
ATOM     15  N   UNL     1      -5.193   1.096   7.726  0.00  0.00    -0.303 NA
ATOM     16  C   UNL     1      -5.454   0.935   9.163  0.00  0.00    +0.099 C 
ATOM     17  C   UNL     1      -5.712  -0.541   9.471  0.00  0.00    +0.100 C 
ATOM     18  N   UNL     1      -4.546  -1.336   9.058  0.00  0.00    -0.289 NA
ATOM     19  C   UNL     1      -4.285  -1.175   7.621  0.00  0.00    +0.100 C 
ATOM     20  C   UNL     1      -4.028   0.302   7.313  0.00  0.00    +0.099 C 
ENDBRANCH  13  18
ENDBRANCH  11  13
ENDBRANCH   1  12
BRANCH   6  21
ATOM     21  O   UNL     1      -2.240  -6.782   9.555  0.00  0.00    -0.494 OA
ATOM     22  C   UNL     1      -2.100  -8.181   9.810  0.00  0.00    +0.277 C 
ENDBRANCH   6  21
BRANCH   8  23
ATOM     23  C   UNL     1       4.752  -6.718   7.588  0.00  0.00    +0.103 C 
ATOM     24  N   UNL     1       5.753  -7.226   7.415  0.00  0.00    -0.191 NA
ENDBRANCH   8  23
BRANCH   7  25
ATOM     25  N   UNL     1       2.495  -8.171   8.515  0.00  0.00    -0.312 N 
ATOM     26  H   UNL     1       2.416  -8.806   7.786  0.00  0.00    +0.152 HD
BRANCH  25  27
ATOM     27  C   UNL     1       2.717  -8.626   9.818  0.00  0.00    +0.053 A 
ATOM     28  C   UNL     1       2.713  -7.728  10.877  0.00  0.00    +0.071 A 
ATOM     29  C   UNL     1       2.933  -8.182  12.168  0.00  0.00    +0.140 A 
ATOM     30  C   UNL     1       3.155  -9.533  12.400  0.00  0.00    +0.084 A 
ATOM     31  C   UNL     1       3.159 -10.426  11.344  0.00  0.00    +0.045 A 
ATOM     32  C   UNL     1       2.934  -9.978  10.056  0.00  0.00    +0.064 A 
ATOM     33 CL   UNL     1       2.932 -11.102   8.733  0.00  0.00    -0.082 Cl
ATOM     34 CL   UNL     1       3.431 -10.101  14.017  0.00  0.00    -0.080 Cl
BRANCH  29  35
ATOM     35  O   UNL     1       2.930  -7.305  13.207  0.00  0.00    -0.494 OA
ATOM     36  C   UNL     1       2.576  -5.952  12.913  0.00  0.00    +0.277 C 
ENDBRANCH  29  35
ENDBRANCH  25  27
ENDBRANCH   7  25
TORSDOF 8
