REMARK  Name = CHEMBL352877
REMARK  8 active torsions:
REMARK  status: ('A' for Active; 'I' for Inactive)
REMARK    1  A    between atoms: C_1  and  O_2
REMARK    2  A    between atoms: O_2  and  C_3
REMARK    3  A    between atoms: C_8  and  O_9
REMARK    4  A    between atoms: O_9  and  C_10
REMARK    5  A    between atoms: C_10  and  C_11
REMARK    6  A    between atoms: C_11  and  C_12
REMARK    7  A    between atoms: C_12  and  N_13
REMARK    8  A    between atoms: N_23  and  C_24
REMARK                            x       y       z     vdW  Elec       q    Type
REMARK                         _______ _______ _______ _____ _____    ______ ____
ROOT
ATOM      1  C   UNL     1       1.192  -1.360   0.199  0.00  0.00    +0.164 A 
ATOM      2  C   UNL     1       2.558  -1.210   0.285  0.00  0.00    +0.078 A 
ATOM      3  C   UNL     1       3.253  -1.809   1.343  0.00  0.00    +0.080 A 
ATOM      4  C   UNL     1       2.538  -2.560   2.308  0.00  0.00    +0.044 A 
ATOM      5  C   UNL     1       1.150  -2.698   2.198  0.00  0.00    +0.062 A 
ATOM      6  C   UNL     1       0.491  -2.100   1.161  0.00  0.00    +0.163 A 
ATOM      7  C   UNL     1       3.268  -3.154   3.366  0.00  0.00    +0.134 A 
ATOM      8  N   UNL     1       4.582  -2.976   3.399  0.00  0.00    -0.220 NA
ATOM      9  C   UNL     1       5.207  -2.265   2.474  0.00  0.00    +0.223 A 
ATOM     10  N   UNL     1       4.584  -1.692   1.472  0.00  0.00    -0.235 NA
ATOM     11  N   UNL     1       2.629  -3.897   4.337  0.00  0.00    -0.295 N 
ATOM     12  H   UNL     1       1.667  -4.014   4.304  0.00  0.00    +0.154 HD
ENDROOT
BRANCH  11  13
ATOM     13  C   UNL     1       3.370  -4.484   5.371  0.00  0.00    +0.097 A 
ATOM     14  C   UNL     1       3.814  -5.795   5.252  0.00  0.00    +0.066 A 
ATOM     15  C   UNL     1       4.546  -6.373   6.272  0.00  0.00    +0.025 A 
ATOM     16  C   UNL     1       4.839  -5.650   7.414  0.00  0.00    +0.051 A 
ATOM     17  C   UNL     1       4.401  -4.341   7.541  0.00  0.00    +0.168 A 
ATOM     18  C   UNL     1       3.669  -3.752   6.516  0.00  0.00    +0.189 A 
ATOM     19  O   UNL     1       3.364  -2.470   6.876  0.00  0.00    -0.451 OA
ATOM     20  C   UNL     1       3.571  -2.412   8.300  0.00  0.00    +0.466 C 
ATOM     21  O   UNL     1       4.556  -3.430   8.546  0.00  0.00    -0.453 OA
ATOM     22 CL   UNL     1       3.447  -6.708   3.822  0.00  0.00    -0.081 Cl
ENDBRANCH  11  13
BRANCH   1  24
ATOM     23  C   UNL     1       1.285  -0.037  -1.774  0.00  0.00    +0.277 C 
ATOM     24  O   UNL     1       0.515  -0.779  -0.826  0.00  0.00    -0.491 OA
ENDBRANCH   1  24
BRANCH   6  25
ATOM     25  O   UNL     1      -0.859  -2.230   1.058  0.00  0.00    -0.488 OA
BRANCH  25  26
ATOM     26  C   UNL     1      -1.516  -2.997   2.068  0.00  0.00    +0.230 C 
BRANCH  26  27
ATOM     27  C   UNL     1      -3.019  -3.030   1.786  0.00  0.00    +0.056 C 
BRANCH  27  28
ATOM     28  C   UNL     1      -3.723  -3.851   2.869  0.00  0.00    +0.088 C 
BRANCH  28  29
ATOM     29  N   UNL     1      -5.167  -3.883   2.598  0.00  0.00    -0.298 NA
ATOM     30  C   UNL     1      -5.760  -2.546   2.742  0.00  0.00    +0.112 C 
ATOM     31  C   UNL     1      -7.249  -2.613   2.394  0.00  0.00    +0.175 C 
ATOM     32  O   UNL     1      -7.886  -3.581   3.232  0.00  0.00    -0.377 OA
ATOM     33  C   UNL     1      -7.334  -4.895   3.117  0.00  0.00    +0.175 C 
ATOM     34  C   UNL     1      -5.845  -4.851   3.472  0.00  0.00    +0.112 C 
ENDBRANCH  28  29
ENDBRANCH  27  28
ENDBRANCH  26  27
ENDBRANCH  25  26
ENDBRANCH   6  25
TORSDOF 7
