REMARK  Name = CHEMBL57207
REMARK  9 active torsions:
REMARK  status: ('A' for Active; 'I' for Inactive)
REMARK    1  A    between atoms: C_1  and  C_2
REMARK    2  A    between atoms: C_2  and  C_3
REMARK    3  A    between atoms: C_2  and  N_4
REMARK    4  A    between atoms: C_9  and  C_29
REMARK    5  A    between atoms: N_18  and  C_19
REMARK    6  A    between atoms: C_19  and  C_20
REMARK    7  A    between atoms: C_20  and  C_21
REMARK    8  A    between atoms: C_21  and  N_22
REMARK    9  A    between atoms: N_25  and  C_28
REMARK                            x       y       z     vdW  Elec       q    Type
REMARK                         _______ _______ _______ _____ _____    ______ ____
ROOT
ATOM      1  N   UNL     1      -1.372  -0.511   0.012  0.00  0.00    -0.297 N 
ATOM      2  C   UNL     1      -1.643  -1.734  -0.485  0.00  0.00    +0.305 C 
ATOM      3  O   UNL     1      -0.747  -2.417  -0.942  0.00  0.00    -0.252 OA
ATOM      4  N   UNL     1      -2.908  -2.201  -0.475  0.00  0.00    -0.254 N 
ATOM      5  C   UNL     1      -3.186  -3.460  -0.987  0.00  0.00    +0.136 A 
ATOM      6  C   UNL     1      -4.517  -3.930  -0.975  0.00  0.00    +0.026 A 
ATOM      7  C   UNL     1      -4.800  -5.187  -1.486  0.00  0.00    +0.025 A 
ATOM      8  C   UNL     1      -3.734  -5.944  -1.999  0.00  0.00    +0.038 A 
ATOM      9  C   UNL     1      -3.926  -7.228  -2.537  0.00  0.00    +0.126 A 
ATOM     10  N   UNL     1      -2.879  -7.879  -3.001  0.00  0.00    -0.222 NA
ATOM     11  C   UNL     1      -1.660  -7.345  -2.967  0.00  0.00    +0.217 A 
ATOM     12  N   UNL     1      -1.421  -6.145  -2.473  0.00  0.00    -0.195 NA
ATOM     13  C   UNL     1      -2.421  -5.405  -1.978  0.00  0.00    +0.167 A 
ATOM     14  N   UNL     1      -2.204  -4.187  -1.479  0.00  0.00    -0.212 NA
ATOM     15  N   UNL     1      -0.601  -8.078  -3.469  0.00  0.00    -0.313 N 
ATOM     16  H   UNL     1      -2.087   0.033   0.377  0.00  0.00    +0.151 HD
ATOM     17  H   UNL     1      -3.623  -1.656  -0.111  0.00  0.00    +0.158 HD
ATOM     18  H   UNL     1       0.295  -7.708  -3.454  0.00  0.00    +0.149 HD
ENDROOT
BRANCH   6  19
ATOM     19  C   UNL     1      -5.603  -3.088  -0.419  0.00  0.00    +0.022 A 
ATOM     20  C   UNL     1      -6.301  -2.209  -1.248  0.00  0.00    +0.050 A 
ATOM     21  C   UNL     1      -7.312  -1.427  -0.724  0.00  0.00    +0.021 A 
ATOM     22  C   UNL     1      -7.632  -1.514   0.618  0.00  0.00    +0.003 A 
ATOM     23  C   UNL     1      -6.943  -2.382   1.445  0.00  0.00    +0.021 A 
ATOM     24  C   UNL     1      -5.934  -3.174   0.933  0.00  0.00    +0.050 A 
ATOM     25 CL   UNL     1      -5.075  -4.268   1.971  0.00  0.00    -0.083 Cl
ATOM     26 CL   UNL     1      -5.900  -2.099  -2.933  0.00  0.00    -0.083 Cl
ENDBRANCH   6  19
BRANCH   1  28
ATOM     27  C   UNL     1      -0.019   1.526   0.010  0.00  0.00    +0.027 C 
ATOM     28  C   UNL     1       0.002  -0.004   0.002  0.00  0.00    +0.068 C 
ATOM     29  C   UNL     1       0.742  -0.511   1.242  0.00  0.00    +0.027 C 
ENDBRANCH   1  28
BRANCH  15  30
ATOM     30  C   UNL     1      -0.833  -9.414  -4.024  0.00  0.00    +0.102 C 
BRANCH  30  31
ATOM     31  C   UNL     1       0.494 -10.003  -4.507  0.00  0.00    +0.000 C 
BRANCH  31  32
ATOM     32  C   UNL     1       0.252 -11.398  -5.086  0.00  0.00    -0.077 C 
BRANCH  32  33
ATOM     33  N   UNL     1       1.526 -11.964  -5.550  0.00  0.00    +0.381 N 
ATOM     34  C   UNL     1       2.040 -11.161  -6.667  0.00  0.00    -0.063 C 
ATOM     35  C   UNL     1       3.376 -11.739  -7.138  0.00  0.00    +0.065 C 
ATOM     36  N   UNL     1       3.182 -13.133  -7.562  0.00  0.00    -0.309 NA
ATOM     37  C   UNL     1       2.644 -13.943  -6.461  0.00  0.00    +0.065 C 
ATOM     38  C   UNL     1       1.313 -13.347  -5.995  0.00  0.00    -0.063 C 
ATOM     39  C   UNL     1       4.433 -13.706  -8.076  0.00  0.00    +0.104 C 
ATOM     40  H   UNL     1       2.193 -11.953  -4.793  0.00  0.00    -0.082 HD
ENDBRANCH  32  33
ENDBRANCH  31  32
ENDBRANCH  30  31
ENDBRANCH  15  30
TORSDOF 6
