REMARK  Name = CHEMBL485304
REMARK  8 active torsions:
REMARK  status: ('A' for Active; 'I' for Inactive)
REMARK    1  A    between atoms: C_1  and  O_2
REMARK    2  A    between atoms: O_2  and  C_3
REMARK    3  A    between atoms: C_3  and  C_4
REMARK    4  A    between atoms: C_4  and  O_5
REMARK    5  A    between atoms: O_5  and  C_6
REMARK    6  A    between atoms: C_11  and  N_12
REMARK    7  A    between atoms: C_13  and  C_15
REMARK    8  A    between atoms: N_25  and  C_26
REMARK                            x       y       z     vdW  Elec       q    Type
REMARK                         _______ _______ _______ _____ _____    ______ ____
ROOT
ATOM      1  C   UNL     1       1.645  -3.624  -0.405  0.00  0.00    +0.144 A 
ATOM      2  C   UNL     1       1.078  -4.298   0.653  0.00  0.00    +0.076 A 
ATOM      3  C   UNL     1       1.007  -5.696   0.627  0.00  0.00    +0.080 A 
ATOM      4  C   UNL     1       1.519  -6.401  -0.491  0.00  0.00    +0.042 A 
ATOM      5  C   UNL     1       2.091  -5.698  -1.557  0.00  0.00    +0.040 A 
ATOM      6  C   UNL     1       2.147  -4.323  -1.513  0.00  0.00    +0.076 A 
ATOM      7  C   UNL     1       1.431  -7.814  -0.487  0.00  0.00    +0.134 A 
ATOM      8  N   UNL     1       0.873  -8.405   0.562  0.00  0.00    -0.220 NA
ATOM      9  C   UNL     1       0.408  -7.705   1.584  0.00  0.00    +0.223 A 
ATOM     10  N   UNL     1       0.463  -6.395   1.635  0.00  0.00    -0.235 NA
ATOM     11  N   UNL     1       1.911  -8.556  -1.546  0.00  0.00    -0.299 N 
ATOM     12  H   UNL     1       2.384  -8.118  -2.271  0.00  0.00    +0.154 HD
ENDROOT
BRANCH  11  13
ATOM     13  C   UNL     1       1.717  -9.941  -1.575  0.00  0.00    +0.034 A 
ATOM     14  C   UNL     1       2.674 -10.766  -2.152  0.00  0.00    +0.026 A 
ATOM     15  C   UNL     1       2.480 -12.134  -2.180  0.00  0.00    +0.041 A 
ATOM     16  C   UNL     1       1.333 -12.683  -1.633  0.00  0.00    +0.142 A 
ATOM     17  C   UNL     1       0.376 -11.862  -1.057  0.00  0.00    +0.078 A 
ATOM     18  C   UNL     1       0.569 -10.494  -1.022  0.00  0.00    +0.046 A 
ATOM     19 CL   UNL     1      -1.062 -12.553  -0.373  0.00  0.00    -0.081 Cl
ATOM     20  F   UNL     1       1.145 -14.020  -1.662  0.00  0.00    -0.204 F 
ENDBRANCH  11  13
BRANCH   6  21
ATOM     21  N   UNL     1       2.714  -3.616  -2.581  0.00  0.00    -0.284 N 
ATOM     22  C   UNL     1       3.740  -4.150  -3.273  0.00  0.00    +0.203 C 
ATOM     23  O   UNL     1       4.117  -5.276  -3.027  0.00  0.00    -0.277 OA
ATOM     24  H   UNL     1       2.369  -2.742  -2.823  0.00  0.00    +0.155 HD
BRANCH  22  25
ATOM     25  C   UNL     1       4.420  -3.347  -4.353  0.00  0.00    +0.016 C 
ATOM     26  C   UNL     1       3.409  -3.005  -5.467  0.00  0.00    -0.009 C 
ATOM     27  C   UNL     1       4.254  -3.143  -6.761  0.00  0.00    -0.020 C 
ATOM     28  C   UNL     1       5.183  -4.330  -6.402  0.00  0.00    -0.082 C 
ATOM     29  N   UNL     1       5.498  -4.143  -4.966  0.00  0.00    +0.387 N 
ATOM     30  H   UNL     1       6.377  -3.656  -4.869  0.00  0.00    -0.085 HD
ATOM     31  H   UNL     1       5.558  -5.042  -4.511  0.00  0.00    -0.085 HD
ENDBRANCH  22  25
ENDBRANCH   6  21
BRANCH   1  32
ATOM     32  O   UNL     1       1.713  -2.268  -0.378  0.00  0.00    -0.488 OA
BRANCH  32  33
ATOM     33  C   UNL     1       1.185  -1.614   0.778  0.00  0.00    +0.257 C 
BRANCH  33  34
ATOM     34  C   UNL     1       1.350  -0.100   0.627  0.00  0.00    +0.200 C 
BRANCH  34  36
ATOM     35  C   UNL     1       0.634   1.768  -0.693  0.00  0.00    +0.194 C 
ATOM     36  O   UNL     1       0.552   0.360  -0.465  0.00  0.00    -0.380 OA
ENDBRANCH  34  36
ENDBRANCH  33  34
ENDBRANCH  32  33
ENDBRANCH   1  32
TORSDOF 7
