REMARK  Name = CHEMBL359482
REMARK  3 active torsions:
REMARK  status: ('A' for Active; 'I' for Inactive)
REMARK    1  A    between atoms: C_1  and  C_2
REMARK    2  A    between atoms: C_4  and  N_8
REMARK    3  A    between atoms: C_17  and  C_19
REMARK                            x       y       z     vdW  Elec       q    Type
REMARK                         _______ _______ _______ _____ _____    ______ ____
ROOT
ATOM      1  N   UNL     1       0.017  -3.237  -1.544  0.00  0.00    -0.284 N 
ATOM      2  C   UNL     1      -0.085  -3.094  -2.912  0.00  0.00    +0.136 A 
ATOM      3  C   UNL     1      -0.177  -4.229  -3.757  0.00  0.00    +0.041 A 
ATOM      4  C   UNL     1      -0.168  -5.532  -3.251  0.00  0.00    +0.013 A 
ATOM      5  C   UNL     1      -0.260  -6.588  -4.111  0.00  0.00    +0.001 A 
ATOM      6  C   UNL     1      -0.362  -6.385  -5.484  0.00  0.00    +0.002 A 
ATOM      7  C   UNL     1      -0.373  -5.127  -6.009  0.00  0.00    +0.028 A 
ATOM      8  C   UNL     1      -0.281  -4.019  -5.154  0.00  0.00    +0.077 A 
ATOM      9  N   UNL     1      -0.288  -2.763  -5.620  0.00  0.00    -0.227 NA
ATOM     10  C   UNL     1      -0.201  -1.741  -4.789  0.00  0.00    +0.162 A 
ATOM     11  N   UNL     1      -0.106  -1.892  -3.470  0.00  0.00    -0.212 NA
ATOM     12  H   UNL     1       0.110  -4.121  -1.154  0.00  0.00    +0.155 HD
ENDROOT
BRANCH   1  16
ATOM     13  C   UNL     1      -0.098   1.501   0.016  0.00  0.00    +0.067 C 
ATOM     14  C   UNL     1      -0.065  -0.006   0.006  0.00  0.00    +0.062 A 
ATOM     15  C   UNL     1      -0.039  -0.815  -1.132  0.00  0.00    +0.068 A 
ATOM     16  C   UNL     1      -0.012  -2.113  -0.722  0.00  0.00    +0.120 A 
ATOM     17  N   UNL     1      -0.021  -2.111   0.637  0.00  0.00    -0.264 N 
ATOM     18  H   UNL     1      -0.006  -2.894   1.209  0.00  0.00    +0.190 HD
ATOM     19  N   UNL     1      -0.049  -0.777   1.063  0.00  0.00    -0.178 NA
ENDBRANCH   1  16
BRANCH  10  20
ATOM     20  C   UNL     1      -0.212  -0.368  -5.348  0.00  0.00    +0.019 A 
ATOM     21  C   UNL     1      -0.000   0.729  -4.514  0.00  0.00    +0.011 A 
ATOM     22  C   UNL     1      -0.012   2.005  -5.040  0.00  0.00    +0.001 A 
ATOM     23  C   UNL     1      -0.234   2.197  -6.391  0.00  0.00    +0.000 A 
ATOM     24  C   UNL     1      -0.445   1.112  -7.224  0.00  0.00    +0.001 A 
ATOM     25  C   UNL     1      -0.429  -0.169  -6.710  0.00  0.00    +0.011 A 
ENDBRANCH  10  20
TORSDOF 2
