REMARK  Name = CHEMBL194969
REMARK  12 active torsions:
REMARK  status: ('A' for Active; 'I' for Inactive)
REMARK    1  A    between atoms: C_1  and  N_2
REMARK    2  A    between atoms: N_5  and  C_8
REMARK    3  A    between atoms: C_8  and  C_9
REMARK    4  A    between atoms: C_9  and  O_10
REMARK    5  A    between atoms: O_10  and  C_11
REMARK    6  A    between atoms: C_20  and  O_21
REMARK    7  A    between atoms: O_21  and  C_22
REMARK    8  A    between atoms: C_25  and  C_38
REMARK    9  A    between atoms: C_26  and  N_27
REMARK   10  A    between atoms: N_27  and  C_28
REMARK   11  A    between atoms: C_30  and  O_36
REMARK   12  A    between atoms: O_36  and  C_37
REMARK                            x       y       z     vdW  Elec       q    Type
REMARK                         _______ _______ _______ _____ _____    ______ ____
ROOT
ATOM      1  C   UNL     1      -1.025  -5.539   4.478  0.00  0.00    +0.163 A 
ATOM      2  C   UNL     1       0.222  -6.001   4.769  0.00  0.00    +0.058 A 
ATOM      3  C   UNL     1       0.583  -6.233   6.113  0.00  0.00    -0.013 A 
ATOM      4  C   UNL     1       1.852  -6.706   6.446  0.00  0.00    +0.020 A 
ATOM      5  C   UNL     1       2.175  -6.923   7.782  0.00  0.00    +0.023 A 
ATOM      6  C   UNL     1       1.194  -6.659   8.838  0.00  0.00    +0.073 A 
ATOM      7  C   UNL     1      -0.073  -6.187   8.506  0.00  0.00    +0.037 A 
ATOM      8  C   UNL     1      -0.402  -5.968   7.167  0.00  0.00    -0.012 A 
ATOM      9  C   UNL     1      -1.677  -5.489   6.801  0.00  0.00    +0.058 A 
ATOM     10  C   UNL     1      -1.966  -5.280   5.487  0.00  0.00    +0.162 A 
ATOM     11  N   UNL     1       1.528  -6.876  10.123  0.00  0.00    -0.254 NA
ATOM     12  C   UNL     1       2.709  -7.318  10.464  0.00  0.00    +0.132 A 
ATOM     13  C   UNL     1       3.710  -7.597   9.519  0.00  0.00    +0.091 A 
ATOM     14  C   UNL     1       3.458  -7.403   8.154  0.00  0.00    +0.060 A 
ENDROOT
BRANCH  10  15
ATOM     15  O   UNL     1      -3.195  -4.814   5.144  0.00  0.00    -0.491 OA
ATOM     16  C   UNL     1      -4.115  -4.567   6.209  0.00  0.00    +0.277 C 
ENDBRANCH  10  15
BRANCH  14  17
ATOM     17  N   UNL     1       4.423  -7.669   7.207  0.00  0.00    -0.312 N 
ATOM     18  H   UNL     1       4.381  -7.239   6.338  0.00  0.00    +0.152 HD
BRANCH  17  19
ATOM     19  C   UNL     1       5.462  -8.558   7.497  0.00  0.00    +0.053 A 
ATOM     20  C   UNL     1       6.767  -8.095   7.591  0.00  0.00    +0.071 A 
ATOM     21  C   UNL     1       7.795  -8.979   7.880  0.00  0.00    +0.140 A 
ATOM     22  C   UNL     1       7.517 -10.326   8.074  0.00  0.00    +0.084 A 
ATOM     23  C   UNL     1       6.217 -10.786   7.980  0.00  0.00    +0.045 A 
ATOM     24  C   UNL     1       5.189  -9.906   7.698  0.00  0.00    +0.064 A 
ATOM     25 CL   UNL     1       3.556 -10.487   7.587  0.00  0.00    -0.082 Cl
ATOM     26 CL   UNL     1       8.805 -11.432   8.436  0.00  0.00    -0.080 Cl
BRANCH  21  27
ATOM     27  O   UNL     1       9.074  -8.528   7.972  0.00  0.00    -0.494 OA
ATOM     28  C   UNL     1       9.272  -7.116   7.875  0.00  0.00    +0.277 C 
ENDBRANCH  21  27
ENDBRANCH  17  19
ENDBRANCH  14  17
BRANCH  13  29
ATOM     29  C   UNL     1       4.987  -8.081   9.950  0.00  0.00    +0.103 C 
ATOM     30  N   UNL     1       6.000  -8.464  10.292  0.00  0.00    -0.191 NA
ENDBRANCH  13  29
BRANCH   1  31
ATOM     31  O   UNL     1      -1.364  -5.318   3.180  0.00  0.00    -0.487 OA
BRANCH  31  32
ATOM     32  C   UNL     1      -0.370  -5.597   2.193  0.00  0.00    +0.244 C 
BRANCH  32  33
ATOM     33  C   UNL     1      -0.931  -5.290   0.803  0.00  0.00    +0.125 C 
BRANCH  33  38
ATOM     34  C   UNL     1      -1.297   0.147  -0.632  0.00  0.00    -0.096 C 
ATOM     35  N   UNL     1      -1.002  -1.291  -0.565  0.00  0.00    +0.379 N 
ATOM     36  C   UNL     1      -2.260  -2.050  -0.585  0.00  0.00    -0.064 C 
ATOM     37  C   UNL     1      -1.952  -3.548  -0.534  0.00  0.00    +0.066 C 
ATOM     38  N   UNL     1      -1.197  -3.850   0.690  0.00  0.00    -0.303 NA
ATOM     39  C   UNL     1       0.053  -3.078   0.735  0.00  0.00    +0.066 C 
ATOM     40  C   UNL     1      -0.270  -1.584   0.674  0.00  0.00    -0.064 C 
ATOM     41  H   UNL     1      -0.438  -1.555  -1.359  0.00  0.00    -0.082 HD
ENDBRANCH  33  38
ENDBRANCH  32  33
ENDBRANCH  31  32
ENDBRANCH   1  31
TORSDOF 9
