REMARK  Name = CHEMBL195382
REMARK  8 active torsions:
REMARK  status: ('A' for Active; 'I' for Inactive)
REMARK    1  A    between atoms: C_1  and  N_2
REMARK    2  A    between atoms: C_8  and  C_10
REMARK    3  A    between atoms: C_13  and  C_16
REMARK    4  A    between atoms: C_21  and  N_27
REMARK    5  A    between atoms: C_22  and  C_25
REMARK    6  A    between atoms: N_27  and  C_28
REMARK    7  A    between atoms: C_30  and  O_36
REMARK    8  A    between atoms: O_36  and  C_37
REMARK                            x       y       z     vdW  Elec       q    Type
REMARK                         _______ _______ _______ _____ _____    ______ ____
ROOT
ATOM      1  C   UNL     1       8.664  -4.780   7.396  0.00  0.00    +0.022 A 
ATOM      2  C   UNL     1       8.399  -5.952   6.759  0.00  0.00    +0.044 A 
ATOM      3  C   UNL     1       7.285  -6.721   7.135  0.00  0.00    +0.080 A 
ATOM      4  C   UNL     1       6.509  -6.185   8.186  0.00  0.00    +0.060 A 
ATOM      5  S   UNL     1       7.348  -4.676   8.597  0.00  0.00    -0.085 S 
ATOM      6  C   UNL     1       5.381  -6.828   8.667  0.00  0.00    +0.066 A 
ATOM      7  C   UNL     1       5.020  -8.055   8.070  0.00  0.00    +0.092 A 
ATOM      8  C   UNL     1       5.823  -8.544   7.032  0.00  0.00    +0.132 A 
ATOM      9  N   UNL     1       6.879  -7.904   6.610  0.00  0.00    -0.253 NA
ENDROOT
BRANCH   1  13
ATOM     10  C   UNL     1      11.848  -2.050   6.709  0.00  0.00    +0.037 A 
ATOM     11  C   UNL     1      10.975  -1.849   7.781  0.00  0.00    +0.013 A 
ATOM     12  C   UNL     1       9.944  -2.733   8.003  0.00  0.00    +0.010 A 
ATOM     13  C   UNL     1       9.770  -3.831   7.157  0.00  0.00    -0.011 A 
ATOM     14  C   UNL     1      10.644  -4.032   6.085  0.00  0.00    +0.010 A 
ATOM     15  C   UNL     1      11.672  -3.146   5.860  0.00  0.00    +0.013 A 
BRANCH  10  23
ATOM     16  C   UNL     1      16.809  -0.766  10.255  0.00  0.00    -0.096 C 
ATOM     17  N   UNL     1      15.619  -0.379   9.486  0.00  0.00    +0.380 N 
ATOM     18  C   UNL     1      15.989  -0.191   8.077  0.00  0.00    -0.060 C 
ATOM     19  C   UNL     1      14.775   0.322   7.296  0.00  0.00    +0.089 C 
ATOM     20  N   UNL     1      13.654  -0.606   7.511  0.00  0.00    -0.301 N 
ATOM     21  C   UNL     1      13.319  -0.979   8.894  0.00  0.00    +0.089 C 
ATOM     22  C   UNL     1      14.601  -1.431   9.600  0.00  0.00    -0.060 C 
ATOM     23  C   UNL     1      12.955  -1.101   6.471  0.00  0.00    +0.246 C 
ATOM     24  O   UNL     1      13.235  -0.767   5.336  0.00  0.00    -0.270 OA
ATOM     25  H   UNL     1      15.249   0.486   9.852  0.00  0.00    -0.082 HD
ENDBRANCH  10  23
ENDBRANCH   1  13
BRANCH   7  26
ATOM     26  C   UNL     1       3.866  -8.779   8.514  0.00  0.00    +0.103 C 
ATOM     27  N   UNL     1       2.952  -9.353   8.866  0.00  0.00    -0.191 NA
ENDBRANCH   7  26
BRANCH   6  28
ATOM     28  N   UNL     1       4.632  -6.285   9.699  0.00  0.00    -0.311 N 
ATOM     29  H   UNL     1       4.893  -6.439  10.621  0.00  0.00    +0.152 HD
BRANCH  28  30
ATOM     30  C   UNL     1       3.501  -5.515   9.413  0.00  0.00    +0.054 A 
ATOM     31  C   UNL     1       3.053  -5.398   8.104  0.00  0.00    +0.071 A 
ATOM     32  C   UNL     1       1.931  -4.635   7.823  0.00  0.00    +0.140 A 
ATOM     33  C   UNL     1       1.258  -3.988   8.851  0.00  0.00    +0.084 A 
ATOM     34  C   UNL     1       1.704  -4.105  10.154  0.00  0.00    +0.045 A 
ATOM     35  C   UNL     1       2.820  -4.871  10.439  0.00  0.00    +0.064 A 
ATOM     36 CL   UNL     1       3.373  -5.022  12.077  0.00  0.00    -0.082 Cl
ATOM     37 CL   UNL     1      -0.147  -3.031   8.499  0.00  0.00    -0.080 Cl
BRANCH  32  38
ATOM     38  O   UNL     1       1.491  -4.518   6.543  0.00  0.00    -0.494 OA
ATOM     39  C   UNL     1       2.180  -5.279   5.548  0.00  0.00    +0.277 C 
ENDBRANCH  32  38
ENDBRANCH  28  30
ENDBRANCH   6  28
TORSDOF 6
