REMARK  Name = CHEMBL261743
REMARK  10 active torsions:
REMARK  status: ('A' for Active; 'I' for Inactive)
REMARK    1  A    between atoms: C_1  and  O_2
REMARK    2  A    between atoms: O_2  and  C_3
REMARK    3  A    between atoms: C_5  and  N_11
REMARK    4  A    between atoms: C_7  and  O_9
REMARK    5  A    between atoms: O_9  and  C_10
REMARK    6  A    between atoms: C_13  and  C_32
REMARK    7  A    between atoms: C_16  and  C_29
REMARK    8  A    between atoms: C_18  and  N_21
REMARK    9  A    between atoms: C_25  and  C_27
REMARK   10  A    between atoms: C_27  and  O_28
REMARK                            x       y       z     vdW  Elec       q    Type
REMARK                         _______ _______ _______ _____ _____    ______ ____
ROOT
ATOM      1  N   UNL     1       1.385  -4.025   2.208  0.00  0.00    -0.297 N 
ATOM      2  C   UNL     1       2.113  -4.652   3.216  0.00  0.00    +0.160 A 
ATOM      3  C   UNL     1       2.344  -6.043   3.326  0.00  0.00    +0.122 A 
ATOM      4  C   UNL     1       3.121  -6.238   4.485  0.00  0.00    +0.172 A 
ATOM      5  N   UNL     1       3.619  -7.335   5.057  0.00  0.00    -0.232 NA
ATOM      6  C   UNL     1       4.332  -7.265   6.164  0.00  0.00    +0.050 A 
ATOM      7  C   UNL     1       4.579  -6.033   6.761  0.00  0.00    +0.067 A 
ATOM      8  C   UNL     1       4.068  -4.889   6.178  0.00  0.00    +0.127 A 
ATOM      9  N   UNL     1       3.334  -5.004   5.030  0.00  0.00    -0.198 N 
ATOM     10  N   UNL     1       2.705  -4.051   4.221  0.00  0.00    -0.147 NA
ATOM     11  H   UNL     1       0.915  -4.556   1.547  0.00  0.00    +0.154 HD
ENDROOT
BRANCH   1  14
ATOM     12  C   UNL     1       2.303  -0.487   2.642  0.00  0.00    +0.125 A 
ATOM     13  C   UNL     1       2.356  -1.871   2.701  0.00  0.00    +0.069 A 
ATOM     14  C   UNL     1       1.332  -2.630   2.150  0.00  0.00    +0.039 A 
ATOM     15  C   UNL     1       0.255  -2.001   1.539  0.00  0.00    +0.069 A 
ATOM     16  C   UNL     1       0.203  -0.617   1.481  0.00  0.00    +0.125 A 
ATOM     17  C   UNL     1       1.224   0.140   2.037  0.00  0.00    +0.091 A 
BRANCH  12  19
ATOM     18  C   UNL     1       3.182   1.675   3.091  0.00  0.00    +0.277 C 
ATOM     19  O   UNL     1       3.305   0.255   3.182  0.00  0.00    -0.495 OA
ENDBRANCH  12  19
BRANCH  16  20
ATOM     20  O   UNL     1      -0.850  -0.001   0.883  0.00  0.00    -0.495 OA
ATOM     21  C   UNL     1      -0.839   1.428   0.859  0.00  0.00    +0.277 C 
ENDBRANCH  16  20
ENDBRANCH   1  14
BRANCH   8  22
ATOM     22  N   UNL     1       4.294  -3.654   6.743  0.00  0.00    -0.310 N 
ATOM     23  C   UNL     1       3.799  -2.367   6.223  0.00  0.00    +0.107 C 
ATOM     24  C   UNL     1       3.761  -1.429   7.455  0.00  0.00    +0.021 C 
ATOM     25  C   UNL     1       5.027  -1.881   8.229  0.00  0.00    +0.026 C 
ATOM     26  C   UNL     1       5.064  -3.401   7.971  0.00  0.00    +0.100 C 
BRANCH  26  27
ATOM     27  C   UNL     1       6.511  -3.860   7.780  0.00  0.00    +0.178 C 
BRANCH  27  28
ATOM     28  O   UNL     1       7.136  -3.059   6.776  0.00  0.00    -0.393 OA
ATOM     29  H   UNL     1       8.058  -3.294   6.603  0.00  0.00    +0.209 HD
ENDBRANCH  27  28
ENDBRANCH  26  27
ENDBRANCH   8  22
BRANCH   3  30
ATOM     30  C   UNL     1       1.867  -7.080   2.412  0.00  0.00    +0.249 C 
ATOM     31  O   UNL     1       2.548  -7.411   1.459  0.00  0.00    -0.270 OA
ATOM     32  N   UNL     1       0.674  -7.669   2.625  0.00  0.00    -0.325 N 
ATOM     33  H   UNL     1       0.131  -7.405   3.385  0.00  0.00    +0.145 HD
ATOM     34  H   UNL     1       0.358  -8.357   2.019  0.00  0.00    +0.145 HD
ENDBRANCH   3  30
BRANCH   6  35
ATOM     35  C   UNL     1       4.880  -8.524   6.784  0.00  0.00    +0.038 C 
ATOM     36  C   UNL     1       5.902  -9.325   5.974  0.00  0.00    +0.010 C 
ATOM     37  C   UNL     1       4.478  -9.857   6.150  0.00  0.00    +0.010 C 
ENDBRANCH   6  35
TORSDOF 8
