REMARK  Name = CHEMBL169186
REMARK  8 active torsions:
REMARK  status: ('A' for Active; 'I' for Inactive)
REMARK    1  A    between atoms: C_1  and  O_2
REMARK    2  A    between atoms: O_2  and  C_3
REMARK    3  A    between atoms: C_8  and  O_9
REMARK    4  A    between atoms: O_9  and  C_10
REMARK    5  A    between atoms: C_10  and  C_11
REMARK    6  A    between atoms: C_11  and  C_12
REMARK    7  A    between atoms: C_12  and  N_13
REMARK    8  A    between atoms: N_23  and  C_24
REMARK                            x       y       z     vdW  Elec       q    Type
REMARK                         _______ _______ _______ _____ _____    ______ ____
ROOT
ATOM      1  C   UNL     1      -1.157  -0.556   0.213  0.00  0.00    +0.162 A 
ATOM      2  C   UNL     1      -2.336   0.134   0.192  0.00  0.00    +0.062 A 
ATOM      3  C   UNL     1      -3.149   0.083  -0.947  0.00  0.00    +0.044 A 
ATOM      4  C   UNL     1      -2.746  -0.683  -2.069  0.00  0.00    +0.080 A 
ATOM      5  C   UNL     1      -1.534  -1.382  -2.026  0.00  0.00    +0.078 A 
ATOM      6  C   UNL     1      -0.749  -1.311  -0.896  0.00  0.00    +0.164 A 
ATOM      7  N   UNL     1      -3.543  -0.715  -3.148  0.00  0.00    -0.235 NA
ATOM      8  C   UNL     1      -4.673  -0.048  -3.160  0.00  0.00    +0.223 A 
ATOM      9  N   UNL     1      -5.090   0.679  -2.136  0.00  0.00    -0.220 NA
ATOM     10  C   UNL     1      -4.379   0.779  -1.021  0.00  0.00    +0.134 A 
ATOM     11  N   UNL     1      -4.826   1.541   0.039  0.00  0.00    -0.295 N 
ATOM     12  H   UNL     1      -4.299   1.600   0.851  0.00  0.00    +0.154 HD
ENDROOT
BRANCH  11  13
ATOM     13  C   UNL     1      -6.042   2.230  -0.057  0.00  0.00    +0.097 A 
ATOM     14  C   UNL     1      -6.060   3.555  -0.474  0.00  0.00    +0.066 A 
ATOM     15  C   UNL     1      -7.261   4.234  -0.569  0.00  0.00    +0.025 A 
ATOM     16  C   UNL     1      -8.447   3.598  -0.251  0.00  0.00    +0.051 A 
ATOM     17  C   UNL     1      -8.438   2.276   0.166  0.00  0.00    +0.168 A 
ATOM     18  C   UNL     1      -7.234   1.586   0.258  0.00  0.00    +0.189 A 
ATOM     19  O   UNL     1      -7.491   0.312   0.680  0.00  0.00    -0.451 OA
ATOM     20  C   UNL     1      -8.822   0.351   1.230  0.00  0.00    +0.466 C 
ATOM     21  O   UNL     1      -9.452   1.437   0.531  0.00  0.00    -0.453 OA
ATOM     22 CL   UNL     1      -4.574   4.359  -0.874  0.00  0.00    -0.081 Cl
ENDBRANCH  11  13
BRANCH   1  24
ATOM     23  C   UNL     1      -0.839   0.280   2.416  0.00  0.00    +0.277 C 
ATOM     24  O   UNL     1      -0.368  -0.506   1.319  0.00  0.00    -0.491 OA
ENDBRANCH   1  24
BRANCH   6  25
ATOM     25  O   UNL     1       0.430  -1.984  -0.853  0.00  0.00    -0.488 OA
BRANCH  25  26
ATOM     26  C   UNL     1       0.791  -2.735  -2.014  0.00  0.00    +0.227 C 
BRANCH  26  27
ATOM     27  C   UNL     1       2.140  -3.419  -1.780  0.00  0.00    +0.022 C 
BRANCH  27  28
ATOM     28  C   UNL     1       2.526  -4.223  -3.023  0.00  0.00    -0.076 C 
BRANCH  28  29
ATOM     29  N   UNL     1       3.821  -4.879  -2.799  0.00  0.00    +0.380 N 
ATOM     30  C   UNL     1       4.865  -3.859  -2.647  0.00  0.00    -0.079 C 
ATOM     31  C   UNL     1       6.202  -4.534  -2.332  0.00  0.00    -0.019 C 
ATOM     32  C   UNL     1       6.572  -5.479  -3.479  0.00  0.00    -0.004 C 
ATOM     33  C   UNL     1       5.442  -6.493  -3.678  0.00  0.00    -0.019 C 
ATOM     34  C   UNL     1       4.134  -5.745  -3.942  0.00  0.00    -0.079 C 
ATOM     35  H   UNL     1       3.773  -5.437  -1.959  0.00  0.00    -0.082 HD
ENDBRANCH  28  29
ENDBRANCH  27  28
ENDBRANCH  26  27
ENDBRANCH  25  26
ENDBRANCH   6  25
TORSDOF 7
