REMARK  Name = CHEMBL1160760
REMARK  12 active torsions:
REMARK  status: ('A' for Active; 'I' for Inactive)
REMARK    1  A    between atoms: C_1  and  C_2
REMARK    2  A    between atoms: N_4  and  C_5
REMARK    3  A    between atoms: C_5  and  C_7
REMARK    4  A    between atoms: C_5  and  C_21
REMARK    5  A    between atoms: C_7  and  C_8
REMARK    6  A    between atoms: C_11  and  C_14
REMARK    7  A    between atoms: C_14  and  P_17
REMARK    8  A    between atoms: N_23  and  C_24
REMARK    9  A    between atoms: N_30  and  C_33
REMARK   10  A    between atoms: C_33  and  C_34
REMARK   11  A    between atoms: C_34  and  C_35
REMARK   12  A    between atoms: C_35  and  C_36
REMARK                            x       y       z     vdW  Elec       q    Type
REMARK                         _______ _______ _______ _____ _____    ______ ____
ROOT
ATOM      1  C   UNL     1      -0.726  -3.244   1.203  0.00  0.00    +0.234 C 
ATOM      2  O   UNL     1       0.016  -2.568   1.884  0.00  0.00    -0.274 OA
ATOM      3  N   UNL     1      -0.950  -4.533   1.526  0.00  0.00    -0.302 N 
ATOM      4  H   UNL     1      -1.544  -5.073   0.981  0.00  0.00    +0.150 HD
ENDROOT
BRANCH   3   5
ATOM      5  C   UNL     1      -0.298  -5.118   2.700  0.00  0.00    +0.159 C 
ATOM      6  C   UNL     1      -1.123  -6.302   3.210  0.00  0.00    +0.032 C 
ATOM      7  C   UNL     1      -0.860  -6.545   4.685  0.00  0.00    +0.004 C 
ATOM      8  C   UNL     1       0.550  -7.018   4.986  0.00  0.00    +0.019 C 
ATOM      9  C   UNL     1       1.570  -5.917   4.687  0.00  0.00    +0.108 C 
ATOM     10  N   UNL     1       1.942  -5.994   3.265  0.00  0.00    -0.300 N 
ATOM     11  C   UNL     1       1.081  -5.615   2.321  0.00  0.00    +0.236 C 
ATOM     12  O   UNL     1       1.402  -5.675   1.153  0.00  0.00    -0.274 OA
BRANCH  10  13
ATOM     13  C   UNL     1       3.270  -6.484   2.886  0.00  0.00    +0.108 C 
BRANCH  13  14
ATOM     14  C   UNL     1       3.217  -8.000   2.692  0.00  0.00    +0.019 C 
BRANCH  14  15
ATOM     15  C   UNL     1       4.604  -8.512   2.296  0.00  0.00    +0.005 C 
BRANCH  15  16
ATOM     16  C   UNL     1       4.551 -10.029   2.102  0.00  0.00    -0.011 C 
ATOM     17  C   UNL     1       4.238 -10.703   3.439  0.00  0.00    +0.003 C 
ATOM     18  C   UNL     1       4.185 -12.220   3.245  0.00  0.00    +0.000 C 
ATOM     19  C   UNL     1       5.538 -12.715   2.729  0.00  0.00    +0.000 C 
ATOM     20  C   UNL     1       5.852 -12.041   1.392  0.00  0.00    +0.000 C 
ATOM     21  C   UNL     1       5.904 -10.524   1.586  0.00  0.00    +0.003 C 
ENDBRANCH  15  16
ENDBRANCH  14  15
ENDBRANCH  13  14
ENDBRANCH  10  13
ENDBRANCH   3   5
BRANCH   1  22
ATOM     22  C   UNL     1      -1.397  -2.642  -0.005  0.00  0.00    +0.163 C 
BRANCH  22  26
ATOM     23  C   UNL     1      -0.230   0.989   0.328  0.00  0.00    +0.109 C 
ATOM     24  C   UNL     1      -0.230  -0.513   0.205  0.00  0.00    +0.211 C 
ATOM     25  O   UNL     1       0.820  -1.120   0.190  0.00  0.00    -0.276 OA
ATOM     26  N   UNL     1      -1.397  -1.181   0.114  0.00  0.00    -0.304 N 
ATOM     27  H   UNL     1      -2.236  -0.696   0.127  0.00  0.00    +0.149 HD
ENDBRANCH  22  26
BRANCH  22  28
ATOM     28  C   UNL     1      -0.636  -3.051  -1.268  0.00  0.00    +0.067 C 
BRANCH  28  29
ATOM     29  C   UNL     1      -1.375  -2.552  -2.483  0.00  0.00    -0.045 A 
ATOM     30  C   UNL     1      -2.338  -3.344  -3.079  0.00  0.00    +0.004 A 
ATOM     31  C   UNL     1      -3.016  -2.887  -4.194  0.00  0.00    +0.010 A 
ATOM     32  C   UNL     1      -2.731  -1.637  -4.712  0.00  0.00    +0.033 A 
ATOM     33  C   UNL     1      -1.768  -0.845  -4.115  0.00  0.00    +0.010 A 
ATOM     34  C   UNL     1      -1.093  -1.301  -2.998  0.00  0.00    +0.004 A 
BRANCH  32  35
ATOM     35  C   UNL     1      -3.469  -1.139  -5.927  0.00  0.00    +0.375 C 
ATOM     36  F   UNL     1      -4.744  -1.714  -5.967  0.00  0.00    -0.186 F 
ATOM     37  F   UNL     1      -3.587   0.254  -5.863  0.00  0.00    -0.186 F 
BRANCH  35  38
ATOM     38  P   UNL     1      -2.547  -1.602  -7.430  0.00  0.00    +0.459 P 
ATOM     39  O   UNL     1      -1.167  -0.861  -7.445  0.00  0.00    -0.247 OA
ATOM     40  O   UNL     1      -2.308  -3.150  -7.441  0.00  0.00    -0.134 OA
ATOM     41  O   UNL     1      -3.373  -1.192  -8.697  0.00  0.00    -0.134 OA
ENDBRANCH  35  38
ENDBRANCH  32  35
ENDBRANCH  28  29
ENDBRANCH  22  28
ENDBRANCH   1  22
TORSDOF 11
