REMARK  Name = CHEMBL110403
REMARK  9 active torsions:
REMARK  status: ('A' for Active; 'I' for Inactive)
REMARK    1  A    between atoms: C_1  and  N_2
REMARK    2  A    between atoms: C_5  and  N_21
REMARK    3  A    between atoms: C_10  and  C_13
REMARK    4  A    between atoms: N_21  and  C_22
REMARK    5  A    between atoms: C_25  and  O_28
REMARK    6  A    between atoms: O_28  and  C_29
REMARK    7  A    between atoms: C_29  and  C_30
REMARK    8  A    between atoms: C_30  and  N_31
REMARK    9  A    between atoms: N_34  and  C_37
REMARK                            x       y       z     vdW  Elec       q    Type
REMARK                         _______ _______ _______ _____ _____    ______ ____
ROOT
ATOM      1  C   UNL     1      -4.037  -4.867   0.605  0.00  0.00    +0.152 C 
ATOM      2  N   UNL     1      -5.159  -4.364  -0.192  0.00  0.00    -0.311 N 
ATOM      3  C   UNL     1      -5.276  -3.015  -0.431  0.00  0.00    +0.056 A 
ATOM      4  C   UNL     1      -4.344  -2.114   0.071  0.00  0.00    +0.070 A 
ATOM      5  C   UNL     1      -4.506  -0.762  -0.198  0.00  0.00    +0.125 A 
ATOM      6  N   UNL     1      -5.529  -0.320  -0.922  0.00  0.00    -0.239 NA
ATOM      7  C   UNL     1      -6.437  -1.131  -1.420  0.00  0.00    +0.122 A 
ATOM      8  C   UNL     1      -6.350  -2.511  -1.197  0.00  0.00    +0.018 A 
ATOM      9  C   UNL     1      -7.318  -3.397  -1.724  0.00  0.00    +0.025 A 
ATOM     10  C   UNL     1      -7.196  -4.738  -1.481  0.00  0.00    +0.050 A 
ATOM     11  C   UNL     1      -6.065  -5.229  -0.690  0.00  0.00    +0.259 A 
ATOM     12  O   UNL     1      -5.947  -6.422  -0.474  0.00  0.00    -0.267 OA
ENDROOT
BRANCH  10  13
ATOM     13  C   UNL     1      -8.195  -5.689  -2.021  0.00  0.00    +0.024 A 
ATOM     14  C   UNL     1      -9.330  -6.012  -1.275  0.00  0.00    +0.050 A 
ATOM     15  C   UNL     1     -10.258  -6.898  -1.785  0.00  0.00    +0.021 A 
ATOM     16  C   UNL     1     -10.065  -7.466  -3.031  0.00  0.00    +0.003 A 
ATOM     17  C   UNL     1      -8.943  -7.150  -3.776  0.00  0.00    +0.021 A 
ATOM     18  C   UNL     1      -8.010  -6.260  -3.280  0.00  0.00    +0.050 A 
ATOM     19 CL   UNL     1      -6.606  -5.860  -4.219  0.00  0.00    -0.083 Cl
ATOM     20 CL   UNL     1      -9.573  -5.301   0.290  0.00  0.00    -0.083 Cl
ENDBRANCH  10  13
BRANCH   5  21
ATOM     21  N   UNL     1      -3.582   0.146   0.299  0.00  0.00    -0.299 N 
ATOM     22  H   UNL     1      -2.783  -0.172   0.748  0.00  0.00    +0.154 HD
BRANCH  21  23
ATOM     23  C   UNL     1      -3.802   1.521   0.152  0.00  0.00    +0.033 A 
ATOM     24  C   UNL     1      -2.731   2.376  -0.070  0.00  0.00    +0.027 A 
ATOM     25  C   UNL     1      -2.950   3.732  -0.215  0.00  0.00    +0.047 A 
ATOM     26  C   UNL     1      -4.238   4.239  -0.139  0.00  0.00    +0.121 A 
ATOM     27  C   UNL     1      -5.309   3.385   0.083  0.00  0.00    +0.047 A 
ATOM     28  C   UNL     1      -5.093   2.029   0.222  0.00  0.00    +0.027 A 
BRANCH  26  29
ATOM     29  O   UNL     1      -4.453   5.575  -0.281  0.00  0.00    -0.491 OA
BRANCH  29  30
ATOM     30  C   UNL     1      -5.805   6.028  -0.191  0.00  0.00    +0.244 C 
BRANCH  30  31
ATOM     31  C   UNL     1      -5.847   7.547  -0.374  0.00  0.00    +0.125 C 
BRANCH  31  32
ATOM     32  N   UNL     1      -5.380   7.890  -1.724  0.00  0.00    -0.303 NA
ATOM     33  C   UNL     1      -4.976   9.301  -1.798  0.00  0.00    +0.066 C 
ATOM     34  C   UNL     1      -4.441   9.603  -3.200  0.00  0.00    -0.064 C 
ATOM     35  N   UNL     1      -5.486   9.322  -4.193  0.00  0.00    +0.379 N 
ATOM     36  C   UNL     1      -5.862   7.904  -4.124  0.00  0.00    -0.064 C 
ATOM     37  C   UNL     1      -6.408   7.588  -2.730  0.00  0.00    +0.066 C 
ATOM     38  C   UNL     1      -4.978   9.629  -5.537  0.00  0.00    -0.096 C 
ATOM     39  H   UNL     1      -6.295   9.894  -4.001  0.00  0.00    -0.082 HD
ENDBRANCH  31  32
ENDBRANCH  30  31
ENDBRANCH  29  30
ENDBRANCH  26  29
ENDBRANCH  21  23
ENDBRANCH   5  21
TORSDOF 7
