REMARK  Name = CHEMBL262721
REMARK  6 active torsions:
REMARK  status: ('A' for Active; 'I' for Inactive)
REMARK    1  A    between atoms: C_1  and  N_2
REMARK    2  A    between atoms: C_5  and  O_8
REMARK    3  A    between atoms: O_8  and  C_9
REMARK    4  A    between atoms: C_11  and  O_30
REMARK    5  A    between atoms: N_19  and  C_20
REMARK    6  A    between atoms: O_30  and  C_31
REMARK                            x       y       z     vdW  Elec       q    Type
REMARK                         _______ _______ _______ _____ _____    ______ ____
ROOT
ATOM      1  C   UNL     1      -0.274  -4.679   2.119  0.00  0.00    +0.137 A 
ATOM      2  C   UNL     1      -0.299  -4.003   3.320  0.00  0.00    +0.092 A 
ATOM      3  C   UNL     1      -0.741  -4.635   4.483  0.00  0.00    +0.126 A 
ATOM      4  C   UNL     1      -1.161  -5.950   4.457  0.00  0.00    +0.074 A 
ATOM      5  C   UNL     1      -1.146  -6.659   3.252  0.00  0.00    +0.083 A 
ATOM      6  C   UNL     1      -0.703  -6.015   2.069  0.00  0.00    +0.082 A 
ATOM      7  C   UNL     1      -0.704  -6.756   0.866  0.00  0.00    +0.138 A 
ATOM      8  N   UNL     1      -1.125  -8.015   0.903  0.00  0.00    -0.220 NA
ATOM      9  C   UNL     1      -1.535  -8.573   2.030  0.00  0.00    +0.223 A 
ATOM     10  N   UNL     1      -1.545  -7.939   3.178  0.00  0.00    -0.235 NA
ATOM     11  N   UNL     1      -0.279  -6.186  -0.317  0.00  0.00    -0.296 N 
ATOM     12  H   UNL     1       0.057  -5.276  -0.323  0.00  0.00    +0.154 HD
ENDROOT
BRANCH  11  13
ATOM     13  C   UNL     1      -0.334  -6.921  -1.507  0.00  0.00    +0.078 A 
ATOM     14  C   UNL     1      -0.146  -8.296  -1.484  0.00  0.00    +0.027 A 
ATOM     15  C   UNL     1      -0.199  -9.022  -2.659  0.00  0.00    +0.006 A 
ATOM     16  C   UNL     1      -0.437  -8.381  -3.860  0.00  0.00    +0.049 A 
ATOM     17  C   UNL     1      -0.625  -7.006  -3.893  0.00  0.00    +0.164 A 
ATOM     18  C   UNL     1      -0.581  -6.274  -2.715  0.00  0.00    +0.183 A 
ATOM     19  O   UNL     1      -0.776  -4.926  -2.724  0.00  0.00    -0.483 OA
ATOM     20  C   UNL     1      -0.650  -4.266  -3.988  0.00  0.00    +0.270 C 
ATOM     21  C   UNL     1      -1.427  -5.078  -5.033  0.00  0.00    +0.270 C 
ATOM     22  O   UNL     1      -0.854  -6.393  -5.087  0.00  0.00    -0.485 OA
ENDBRANCH  11  13
BRANCH   3  23
ATOM     23  O   UNL     1      -0.757  -3.949   5.654  0.00  0.00    -0.495 OA
ATOM     24  C   UNL     1      -1.219  -4.651   6.811  0.00  0.00    +0.277 C 
ENDBRANCH   3  23
BRANCH   1  25
ATOM     25  O   UNL     1       0.157  -4.056   0.993  0.00  0.00    -0.488 OA
BRANCH  25  30
ATOM     26  C   UNL     1       2.559   0.969   0.356  0.00  0.00    -0.096 C 
ATOM     27  N   UNL     1       2.152  -0.442   0.330  0.00  0.00    +0.378 N 
ATOM     28  C   UNL     1       0.781  -0.545  -0.185  0.00  0.00    -0.076 C 
ATOM     29  C   UNL     1       0.382  -2.018  -0.291  0.00  0.00    +0.026 C 
ATOM     30  C   UNL     1       0.458  -2.663   1.096  0.00  0.00    +0.170 C 
ATOM     31  C   UNL     1       1.872  -2.484   1.655  0.00  0.00    +0.026 C 
ATOM     32  C   UNL     1       2.217  -0.993   1.688  0.00  0.00    -0.076 C 
ATOM     33  H   UNL     1       2.775  -0.959  -0.273  0.00  0.00    -0.082 HD
ENDBRANCH  25  30
ENDBRANCH   1  25
TORSDOF 4
