REMARK  Name = CHEMBL386996
REMARK  10 active torsions:
REMARK  status: ('A' for Active; 'I' for Inactive)
REMARK    1  A    between atoms: C_1  and  C_2
REMARK    2  A    between atoms: C_2  and  C_3
REMARK    3  A    between atoms: C_2  and  O_4
REMARK    4  A    between atoms: O_4  and  C_5
REMARK    5  A    between atoms: C_7  and  O_26
REMARK    6  A    between atoms: N_15  and  C_16
REMARK    7  A    between atoms: O_26  and  C_27
REMARK    8  A    between atoms: C_27  and  C_28
REMARK    9  A    between atoms: C_28  and  N_29
REMARK   10  A    between atoms: C_35  and  C_37
REMARK                            x       y       z     vdW  Elec       q    Type
REMARK                         _______ _______ _______ _____ _____    ______ ____
ROOT
ATOM      1  C   UNL     1      -0.707  -1.542  -0.566  0.00  0.00    +0.137 A 
ATOM      2  C   UNL     1       0.415  -2.135  -1.105  0.00  0.00    +0.092 A 
ATOM      3  C   UNL     1       0.545  -3.524  -1.123  0.00  0.00    +0.126 A 
ATOM      4  C   UNL     1      -0.444  -4.334  -0.603  0.00  0.00    +0.074 A 
ATOM      5  C   UNL     1      -1.592  -3.758  -0.049  0.00  0.00    +0.083 A 
ATOM      6  C   UNL     1      -1.723  -2.347  -0.025  0.00  0.00    +0.082 A 
ATOM      7  C   UNL     1      -2.892  -1.795   0.545  0.00  0.00    +0.138 A 
ATOM      8  N   UNL     1      -3.805  -2.625   1.034  0.00  0.00    -0.220 NA
ATOM      9  C   UNL     1      -3.639  -3.937   0.995  0.00  0.00    +0.223 A 
ATOM     10  N   UNL     1      -2.579  -4.506   0.469  0.00  0.00    -0.235 NA
ATOM     11  N   UNL     1      -3.079  -0.429   0.593  0.00  0.00    -0.294 N 
ATOM     12  H   UNL     1      -2.447   0.162   0.154  0.00  0.00    +0.154 HD
ENDROOT
BRANCH  11  13
ATOM     13  C   UNL     1      -4.182   0.104   1.274  0.00  0.00    +0.114 A 
ATOM     14  C   UNL     1      -5.472  -0.242   0.889  0.00  0.00    +0.148 A 
ATOM     15  C   UNL     1      -6.559   0.284   1.562  0.00  0.00    +0.044 A 
ATOM     16  C   UNL     1      -6.368   1.155   2.619  0.00  0.00    +0.052 A 
ATOM     17  C   UNL     1      -5.085   1.506   3.009  0.00  0.00    +0.168 A 
ATOM     18  C   UNL     1      -3.987   0.975   2.340  0.00  0.00    +0.190 A 
ATOM     19  O   UNL     1      -2.847   1.464   2.913  0.00  0.00    -0.451 OA
ATOM     20  C   UNL     1      -3.264   2.611   3.678  0.00  0.00    +0.466 C 
ATOM     21  O   UNL     1      -4.635   2.330   4.001  0.00  0.00    -0.453 OA
ATOM     22  F   UNL     1      -5.663  -1.093  -0.143  0.00  0.00    -0.203 F 
ENDBRANCH  11  13
BRANCH   1  23
ATOM     23  O   UNL     1      -0.826  -0.190  -0.552  0.00  0.00    -0.488 OA
BRANCH  23  25
ATOM     24  C   UNL     1      -0.429   1.826  -1.824  0.00  0.00    +0.051 C 
ATOM     25  C   UNL     1       0.186   0.557  -1.230  0.00  0.00    +0.167 C 
ATOM     26  C   UNL     1       1.288   0.940  -0.240  0.00  0.00    +0.051 C 
ENDBRANCH  23  25
ENDBRANCH   1  23
BRANCH   3  27
ATOM     27  O   UNL     1       1.658  -4.086  -1.660  0.00  0.00    -0.491 OA
BRANCH  27  28
ATOM     28  C   UNL     1       1.734  -5.513  -1.650  0.00  0.00    +0.244 C 
BRANCH  28  29
ATOM     29  C   UNL     1       3.050  -5.958  -2.292  0.00  0.00    +0.125 C 
BRANCH  29  30
ATOM     30  N   UNL     1       4.177  -5.491  -1.474  0.00  0.00    -0.296 NA
ATOM     31  C   UNL     1       5.421  -5.469  -2.255  0.00  0.00    +0.103 C 
ATOM     32  C   UNL     1       6.528  -4.809  -1.426  0.00  0.00    +0.123 C 
ATOM     33  N   UNL     1       6.619  -5.501  -0.132  0.00  0.00    -0.299 N 
ATOM     34  C   UNL     1       5.385  -5.683   0.648  0.00  0.00    +0.123 C 
ATOM     35  C   UNL     1       4.322  -6.309  -0.262  0.00  0.00    +0.103 C 
ATOM     36  C   UNL     1       7.801  -5.956   0.329  0.00  0.00    +0.213 C 
ATOM     37  O   UNL     1       8.822  -5.711  -0.278  0.00  0.00    -0.276 OA
ATOM     38  C   UNL     1       7.854  -6.768   1.597  0.00  0.00    +0.109 C 
ENDBRANCH  29  30
ENDBRANCH  28  29
ENDBRANCH  27  28
ENDBRANCH   3  27
TORSDOF 7
