REMARK  Name = CHEMBL197287
REMARK  12 active torsions:
REMARK  status: ('A' for Active; 'I' for Inactive)
REMARK    1  A    between atoms: C_1  and  C_2
REMARK    2  A    between atoms: C_2  and  C_3
REMARK    3  A    between atoms: C_2  and  O_4
REMARK    4  A    between atoms: O_4  and  C_5
REMARK    5  A    between atoms: C_7  and  O_25
REMARK    6  A    between atoms: N_15  and  C_16
REMARK    7  A    between atoms: C_18  and  O_23
REMARK    8  A    between atoms: O_23  and  C_24
REMARK    9  A    between atoms: O_25  and  C_26
REMARK   10  A    between atoms: C_26  and  C_27
REMARK   11  A    between atoms: C_27  and  C_28
REMARK   12  A    between atoms: C_28  and  N_29
REMARK                            x       y       z     vdW  Elec       q    Type
REMARK                         _______ _______ _______ _____ _____    ______ ____
ROOT
ATOM      1  C   UNL     1      -1.974  -0.479  -1.159  0.00  0.00    +0.137 A 
ATOM      2  C   UNL     1      -1.276  -0.186  -2.311  0.00  0.00    +0.092 A 
ATOM      3  C   UNL     1      -1.665  -0.730  -3.536  0.00  0.00    +0.126 A 
ATOM      4  C   UNL     1      -2.755  -1.572  -3.621  0.00  0.00    +0.074 A 
ATOM      5  C   UNL     1      -3.480  -1.887  -2.468  0.00  0.00    +0.083 A 
ATOM      6  C   UNL     1      -3.082  -1.340  -1.222  0.00  0.00    +0.082 A 
ATOM      7  C   UNL     1      -3.832  -1.679  -0.074  0.00  0.00    +0.137 A 
ATOM      8  N   UNL     1      -4.867  -2.499  -0.218  0.00  0.00    -0.220 NA
ATOM      9  C   UNL     1      -5.198  -2.991  -1.401  0.00  0.00    +0.223 A 
ATOM     10  N   UNL     1      -4.547  -2.702  -2.502  0.00  0.00    -0.235 NA
ATOM     11  N   UNL     1      -3.497  -1.174   1.166  0.00  0.00    -0.296 N 
ATOM     12  H   UNL     1      -2.755  -0.555   1.252  0.00  0.00    +0.154 HD
ENDROOT
BRANCH  11  13
ATOM     13  C   UNL     1      -4.227  -1.554   2.297  0.00  0.00    +0.073 A 
ATOM     14  C   UNL     1      -5.561  -1.929   2.181  0.00  0.00    +0.073 A 
ATOM     15  C   UNL     1      -6.245  -2.299   3.334  0.00  0.00    +0.140 A 
ATOM     16  C   UNL     1      -5.577  -2.280   4.551  0.00  0.00    +0.158 A 
ATOM     17  N   UNL     1      -4.312  -1.917   4.622  0.00  0.00    -0.238 NA
ATOM     18  C   UNL     1      -3.627  -1.566   3.551  0.00  0.00    +0.150 A 
ATOM     19 CL   UNL     1      -1.960  -1.107   3.711  0.00  0.00    -0.060 Cl
BRANCH  15  20
ATOM     20  O   UNL     1      -7.550  -2.673   3.271  0.00  0.00    -0.494 OA
ATOM     21  C   UNL     1      -8.181  -3.038   4.500  0.00  0.00    +0.277 C 
ENDBRANCH  15  20
ENDBRANCH  11  13
BRANCH   1  22
ATOM     22  O   UNL     1      -1.589   0.055   0.028  0.00  0.00    -0.488 OA
BRANCH  22  24
ATOM     23  C   UNL     1      -0.671   2.237  -0.458  0.00  0.00    +0.051 C 
ATOM     24  C   UNL     1      -0.381   0.818   0.035  0.00  0.00    +0.167 C 
ATOM     25  C   UNL     1       0.178   0.876   1.458  0.00  0.00    +0.051 C 
ENDBRANCH  22  24
ENDBRANCH   1  22
BRANCH   3  26
ATOM     26  O   UNL     1      -0.963  -0.426  -4.658  0.00  0.00    -0.492 OA
BRANCH  26  27
ATOM     27  C   UNL     1      -1.410  -1.014  -5.881  0.00  0.00    +0.227 C 
BRANCH  27  28
ATOM     28  C   UNL     1      -0.502  -0.559  -7.026  0.00  0.00    +0.022 C 
BRANCH  28  29
ATOM     29  C   UNL     1      -0.981  -1.188  -8.336  0.00  0.00    -0.075 C 
BRANCH  29  30
ATOM     30  N   UNL     1      -0.109  -0.752  -9.436  0.00  0.00    +0.383 N 
ATOM     31  C   UNL     1      -0.251   0.698  -9.627  0.00  0.00    -0.050 C 
ATOM     32  C   UNL     1       0.658   1.150 -10.773  0.00  0.00    +0.141 C 
ATOM     33  O   UNL     1       0.316   0.428 -11.959  0.00  0.00    -0.383 OA
ATOM     34  C   UNL     1       0.416  -0.992 -11.815  0.00  0.00    +0.141 C 
ATOM     35  C   UNL     1      -0.494  -1.448 -10.671  0.00  0.00    -0.050 C 
ATOM     36  H   UNL     1       0.850  -0.969  -9.211  0.00  0.00    -0.082 HD
ENDBRANCH  29  30
ENDBRANCH  28  29
ENDBRANCH  27  28
ENDBRANCH  26  27
ENDBRANCH   3  26
TORSDOF 9
