REMARK  Name = CHEMBL198650
REMARK  12 active torsions:
REMARK  status: ('A' for Active; 'I' for Inactive)
REMARK    1  A    between atoms: C_1  and  N_2
REMARK    2  A    between atoms: N_5  and  C_8
REMARK    3  A    between atoms: C_8  and  C_9
REMARK    4  A    between atoms: C_9  and  O_10
REMARK    5  A    between atoms: O_10  and  C_11
REMARK    6  A    between atoms: C_20  and  O_21
REMARK    7  A    between atoms: O_21  and  C_22
REMARK    8  A    between atoms: C_23  and  N_29
REMARK    9  A    between atoms: C_24  and  C_27
REMARK   10  A    between atoms: N_29  and  C_30
REMARK   11  A    between atoms: C_32  and  O_38
REMARK   12  A    between atoms: O_38  and  C_39
REMARK                            x       y       z     vdW  Elec       q    Type
REMARK                         _______ _______ _______ _____ _____    ______ ____
ROOT
ATOM      1  C   UNL     1       5.893  -2.063   8.711  0.00  0.00    +0.163 A 
ATOM      2  C   UNL     1       5.725  -3.296   8.155  0.00  0.00    +0.058 A 
ATOM      3  C   UNL     1       4.758  -4.173   8.687  0.00  0.00    -0.012 A 
ATOM      4  C   UNL     1       4.563  -5.443   8.140  0.00  0.00    +0.037 A 
ATOM      5  C   UNL     1       3.601  -6.288   8.685  0.00  0.00    +0.073 A 
ATOM      6  C   UNL     1       2.800  -5.843   9.828  0.00  0.00    +0.023 A 
ATOM      7  C   UNL     1       2.991  -4.580  10.376  0.00  0.00    +0.020 A 
ATOM      8  C   UNL     1       3.955  -3.731   9.831  0.00  0.00    -0.013 A 
ATOM      9  C   UNL     1       4.175  -2.443  10.361  0.00  0.00    +0.058 A 
ATOM     10  C   UNL     1       5.128  -1.642   9.809  0.00  0.00    +0.162 A 
ATOM     11  C   UNL     1       1.828  -6.732  10.360  0.00  0.00    +0.060 A 
ATOM     12  C   UNL     1       1.694  -7.988   9.755  0.00  0.00    +0.091 A 
ATOM     13  C   UNL     1       2.506  -8.331   8.661  0.00  0.00    +0.132 A 
ATOM     14  N   UNL     1       3.400  -7.516   8.171  0.00  0.00    -0.254 NA
ENDROOT
BRANCH  10  15
ATOM     15  O   UNL     1       5.338  -0.405  10.331  0.00  0.00    -0.491 OA
ATOM     16  C   UNL     1       4.532  -0.025  11.448  0.00  0.00    +0.277 C 
ENDBRANCH  10  15
BRANCH  12  17
ATOM     17  C   UNL     1       0.729  -8.923  10.252  0.00  0.00    +0.103 C 
ATOM     18  N   UNL     1      -0.036  -9.665  10.646  0.00  0.00    -0.191 NA
ENDBRANCH  12  17
BRANCH  11  19
ATOM     19  N   UNL     1       1.044  -6.371  11.434  0.00  0.00    -0.312 N 
ATOM     20  H   UNL     1       0.150  -6.024  11.288  0.00  0.00    +0.152 HD
BRANCH  19  21
ATOM     21  C   UNL     1       1.538  -6.504  12.736  0.00  0.00    +0.053 A 
ATOM     22  C   UNL     1       2.857  -6.884  12.944  0.00  0.00    +0.071 A 
ATOM     23  C   UNL     1       3.343  -7.014  14.235  0.00  0.00    +0.140 A 
ATOM     24  C   UNL     1       2.510  -6.766  15.318  0.00  0.00    +0.084 A 
ATOM     25  C   UNL     1       1.196  -6.388  15.110  0.00  0.00    +0.045 A 
ATOM     26  C   UNL     1       0.709  -6.251  13.823  0.00  0.00    +0.064 A 
ATOM     27 CL   UNL     1      -0.939  -5.770  13.566  0.00  0.00    -0.082 Cl
ATOM     28 CL   UNL     1       3.119  -6.930  16.935  0.00  0.00    -0.080 Cl
BRANCH  23  29
ATOM     29  O   UNL     1       4.634  -7.386  14.441  0.00  0.00    -0.494 OA
ATOM     30  C   UNL     1       5.466  -7.510  13.285  0.00  0.00    +0.277 C 
ENDBRANCH  23  29
ENDBRANCH  19  21
ENDBRANCH  11  19
BRANCH   1  31
ATOM     31  O   UNL     1       6.828  -1.224   8.192  0.00  0.00    -0.487 OA
BRANCH  31  32
ATOM     32  C   UNL     1       7.580  -1.700   7.075  0.00  0.00    +0.244 C 
BRANCH  32  33
ATOM     33  C   UNL     1       8.574  -0.625   6.633  0.00  0.00    +0.125 C 
BRANCH  33  38
ATOM     34  C   UNL     1      13.155   0.055   9.843  0.00  0.00    -0.096 C 
ATOM     35  N   UNL     1      12.210  -0.174   8.742  0.00  0.00    +0.379 N 
ATOM     36  C   UNL     1      11.357   1.010   8.575  0.00  0.00    -0.064 C 
ATOM     37  C   UNL     1      10.386   0.780   7.415  0.00  0.00    +0.066 C 
ATOM     38  N   UNL     1       9.561  -0.403   7.699  0.00  0.00    -0.303 NA
ATOM     39  C   UNL     1      10.402  -1.592   7.893  0.00  0.00    +0.066 C 
ATOM     40  C   UNL     1      11.374  -1.342   9.049  0.00  0.00    -0.064 C 
ATOM     41  H   UNL     1      12.722  -0.342   7.889  0.00  0.00    -0.082 HD
ENDBRANCH  33  38
ENDBRANCH  32  33
ENDBRANCH  31  32
ENDBRANCH   1  31
TORSDOF 9
