REMARK  Name = CHEMBL197339
REMARK  12 active torsions:
REMARK  status: ('A' for Active; 'I' for Inactive)
REMARK    1  A    between atoms: C_1  and  C_2
REMARK    2  A    between atoms: C_2  and  C_3
REMARK    3  A    between atoms: C_2  and  O_4
REMARK    4  A    between atoms: O_4  and  C_5
REMARK    5  A    between atoms: C_7  and  O_25
REMARK    6  A    between atoms: N_15  and  C_16
REMARK    7  A    between atoms: C_18  and  O_23
REMARK    8  A    between atoms: O_23  and  C_24
REMARK    9  A    between atoms: O_25  and  C_26
REMARK   10  A    between atoms: C_26  and  C_27
REMARK   11  A    between atoms: C_27  and  C_28
REMARK   12  A    between atoms: C_28  and  N_29
REMARK                            x       y       z     vdW  Elec       q    Type
REMARK                         _______ _______ _______ _____ _____    ______ ____
ROOT
ATOM      1  C   UNL     1      -1.972  -0.481  -1.159  0.00  0.00    +0.137 A 
ATOM      2  C   UNL     1      -1.275  -0.189  -2.312  0.00  0.00    +0.092 A 
ATOM      3  C   UNL     1      -1.673  -0.721  -3.538  0.00  0.00    +0.126 A 
ATOM      4  C   UNL     1      -2.772  -1.552  -3.626  0.00  0.00    +0.074 A 
ATOM      5  C   UNL     1      -3.498  -1.865  -2.472  0.00  0.00    +0.083 A 
ATOM      6  C   UNL     1      -3.091  -1.329  -1.224  0.00  0.00    +0.082 A 
ATOM      7  C   UNL     1      -3.841  -1.668  -0.076  0.00  0.00    +0.137 A 
ATOM      8  N   UNL     1      -4.884  -2.476  -0.223  0.00  0.00    -0.220 NA
ATOM      9  C   UNL     1      -5.225  -2.957  -1.407  0.00  0.00    +0.223 A 
ATOM     10  N   UNL     1      -4.573  -2.668  -2.509  0.00  0.00    -0.235 NA
ATOM     11  N   UNL     1      -3.496  -1.174   1.166  0.00  0.00    -0.297 N 
ATOM     12  H   UNL     1      -2.748  -0.562   1.254  0.00  0.00    +0.154 HD
ENDROOT
BRANCH  11  13
ATOM     13  C   UNL     1      -4.224  -1.553   2.293  0.00  0.00    +0.058 A 
ATOM     14  C   UNL     1      -5.559  -1.931   2.187  0.00  0.00    +0.092 A 
ATOM     15  C   UNL     1      -6.247  -2.302   3.332  0.00  0.00    +0.216 A 
ATOM     16  N   UNL     1      -5.647  -2.297   4.512  0.00  0.00    -0.220 NA
ATOM     17  C   UNL     1      -4.382  -1.944   4.650  0.00  0.00    +0.136 A 
ATOM     18  C   UNL     1      -3.630  -1.568   3.557  0.00  0.00    +0.080 A 
ATOM     19 CL   UNL     1      -1.966  -1.113   3.751  0.00  0.00    -0.080 Cl
BRANCH  15  20
ATOM     20  O   UNL     1      -7.549  -2.673   3.242  0.00  0.00    -0.480 OA
ATOM     21  C   UNL     1      -8.203  -3.044   4.457  0.00  0.00    +0.279 C 
ENDBRANCH  15  20
ENDBRANCH  11  13
BRANCH   1  22
ATOM     22  O   UNL     1      -1.578   0.040   0.030  0.00  0.00    -0.488 OA
BRANCH  22  24
ATOM     23  C   UNL     1      -0.636   2.214  -0.449  0.00  0.00    +0.051 C 
ATOM     24  C   UNL     1      -0.362   0.790   0.038  0.00  0.00    +0.167 C 
ATOM     25  C   UNL     1       0.199   0.837   1.461  0.00  0.00    +0.051 C 
ENDBRANCH  22  24
ENDBRANCH   1  22
BRANCH   3  26
ATOM     26  O   UNL     1      -0.972  -0.417  -4.660  0.00  0.00    -0.492 OA
BRANCH  26  27
ATOM     27  C   UNL     1      -1.428  -0.993  -5.886  0.00  0.00    +0.230 C 
BRANCH  27  28
ATOM     28  C   UNL     1      -0.519  -0.540  -7.031  0.00  0.00    +0.056 C 
BRANCH  28  29
ATOM     29  C   UNL     1      -1.008  -1.156  -8.344  0.00  0.00    +0.088 C 
BRANCH  29  30
ATOM     30  N   UNL     1      -0.135  -0.722  -9.443  0.00  0.00    -0.298 NA
ATOM     31  C   UNL     1      -0.260   0.724  -9.675  0.00  0.00    +0.112 C 
ATOM     32  C   UNL     1       0.708   1.143 -10.785  0.00  0.00    +0.175 C 
ATOM     33  O   UNL     1       0.433   0.380 -11.963  0.00  0.00    -0.377 OA
ATOM     34  C   UNL     1       0.546  -1.033 -11.773  0.00  0.00    +0.175 C 
ATOM     35  C   UNL     1      -0.423  -1.474 -10.673  0.00  0.00    +0.112 C 
ENDBRANCH  29  30
ENDBRANCH  28  29
ENDBRANCH  27  28
ENDBRANCH  26  27
ENDBRANCH   3  26
TORSDOF 9
