REMARK  Name = CHEMBL61967
REMARK  8 active torsions:
REMARK  status: ('A' for Active; 'I' for Inactive)
REMARK    1  A    between atoms: C_1  and  O_2
REMARK    2  A    between atoms: O_2  and  C_3
REMARK    3  A    between atoms: C_5  and  N_11
REMARK    4  A    between atoms: N_11  and  C_12
REMARK    5  A    between atoms: C_16  and  C_24
REMARK    6  A    between atoms: C_21  and  C_22
REMARK    7  A    between atoms: C_28  and  C_29
REMARK    8  A    between atoms: C_29  and  N_30
REMARK                            x       y       z     vdW  Elec       q    Type
REMARK                         _______ _______ _______ _____ _____    ______ ____
ROOT
ATOM      1  C   UNL     1       2.188   0.981  -4.478  0.00  0.00    +0.060 A 
ATOM      2  C   UNL     1       2.581   1.967  -5.413  0.00  0.00    +0.023 A 
ATOM      3  C   UNL     1       2.759   1.646  -6.768  0.00  0.00    +0.012 A 
ATOM      4  C   UNL     1       3.137   2.610  -7.650  0.00  0.00    +0.009 A 
ATOM      5  C   UNL     1       3.352   3.928  -7.220  0.00  0.00    -0.015 A 
ATOM      6  C   UNL     1       3.184   4.272  -5.889  0.00  0.00    +0.037 A 
ATOM      7  C   UNL     1       2.794   3.293  -4.965  0.00  0.00    +0.073 A 
ATOM      8  N   UNL     1       2.624   3.604  -3.671  0.00  0.00    -0.254 NA
ATOM      9  C   UNL     1       2.261   2.713  -2.785  0.00  0.00    +0.132 A 
ATOM     10  C   UNL     1       2.023   1.376  -3.142  0.00  0.00    +0.091 A 
ENDROOT
BRANCH   5  11
ATOM     11  C   UNL     1       3.764   4.962  -8.199  0.00  0.00    -0.006 A 
ATOM     12  C   UNL     1       3.034   6.108  -8.356  0.00  0.00    +0.054 A 
ATOM     13  S   UNL     1       3.956   6.965  -9.621  0.00  0.00    -0.104 S 
ATOM     14  C   UNL     1       5.246   5.755  -9.862  0.00  0.00    +0.050 A 
ATOM     15  C   UNL     1       4.906   4.792  -8.976  0.00  0.00    -0.019 A 
BRANCH  15  16
ATOM     16  C   UNL     1       5.748   3.550  -8.836  0.00  0.00    +0.120 C 
BRANCH  16  17
ATOM     17  N   UNL     1       6.581   3.657  -7.630  0.00  0.00    -0.294 NA
ATOM     18  C   UNL     1       7.575   4.731  -7.770  0.00  0.00    +0.113 C 
ATOM     19  C   UNL     1       8.379   4.846  -6.472  0.00  0.00    +0.175 C 
ATOM     20  O   UNL     1       8.983   3.584  -6.178  0.00  0.00    -0.377 OA
ATOM     21  C   UNL     1       8.044   2.515  -6.035  0.00  0.00    +0.175 C 
ATOM     22  C   UNL     1       7.237   2.376  -7.329  0.00  0.00    +0.113 C 
ENDBRANCH  16  17
ENDBRANCH  15  16
ENDBRANCH   5  11
BRANCH   1  23
ATOM     23  N   UNL     1       1.968  -0.324  -4.868  0.00  0.00    -0.312 N 
ATOM     24  H   UNL     1       2.393  -0.669  -5.669  0.00  0.00    +0.152 HD
BRANCH  23  27
ATOM     25  C   UNL     1       0.830  -3.066  -2.695  0.00  0.00    +0.140 A 
ATOM     26  C   UNL     1       1.660  -2.250  -3.447  0.00  0.00    +0.071 A 
ATOM     27  C   UNL     1       1.133  -1.150  -4.109  0.00  0.00    +0.053 A 
ATOM     28  C   UNL     1      -0.225  -0.869  -4.015  0.00  0.00    +0.064 A 
ATOM     29  C   UNL     1      -1.050  -1.685  -3.264  0.00  0.00    +0.045 A 
ATOM     30  C   UNL     1      -0.527  -2.785  -2.608  0.00  0.00    +0.084 A 
ATOM     31 CL   UNL     1      -1.567  -3.812  -1.672  0.00  0.00    -0.080 Cl
ATOM     32 CL   UNL     1      -0.886   0.508  -4.841  0.00  0.00    -0.082 Cl
BRANCH  25  34
ATOM     33  C   UNL     1       2.762  -4.312  -2.087  0.00  0.00    +0.277 C 
ATOM     34  O   UNL     1       1.343  -4.145  -2.046  0.00  0.00    -0.494 OA
ENDBRANCH  25  34
ENDBRANCH  23  27
ENDBRANCH   1  23
BRANCH  10  35
ATOM     35  C   UNL     1       1.621   0.423  -2.151  0.00  0.00    +0.103 C 
ATOM     36  N   UNL     1       1.302  -0.332  -1.364  0.00  0.00    -0.191 NA
ENDBRANCH  10  35
TORSDOF 7
