REMARK  Name = CHEMBL484311
REMARK  8 active torsions:
REMARK  status: ('A' for Active; 'I' for Inactive)
REMARK    1  A    between atoms: C_1  and  C_2
REMARK    2  A    between atoms: C_7  and  O_8
REMARK    3  A    between atoms: O_8  and  C_9
REMARK    4  A    between atoms: C_9  and  C_10
REMARK    5  A    between atoms: C_10  and  C_11
REMARK    6  A    between atoms: C_11  and  N_12
REMARK    7  A    between atoms: C_20  and  C_32
REMARK    8  A    between atoms: C_21  and  N_22
REMARK                            x       y       z     vdW  Elec       q    Type
REMARK                         _______ _______ _______ _____ _____    ______ ____
ROOT
ATOM      1  C   UNL     1      -4.787  -0.977  -2.180  0.00  0.00    +0.047 C 
ATOM      2  C   UNL     1      -3.654  -1.777  -1.591  0.00  0.00    -0.008 A 
ATOM      3  C   UNL     1      -2.478  -1.879  -2.269  0.00  0.00    +0.018 A 
ATOM      4  C   UNL     1      -1.420  -2.622  -1.726  0.00  0.00    +0.023 A 
ATOM      5  C   UNL     1      -1.579  -3.264  -0.473  0.00  0.00    +0.076 A 
ATOM      6  C   UNL     1      -2.800  -3.144   0.204  0.00  0.00    +0.074 A 
ATOM      7  C   UNL     1      -3.820  -2.402  -0.353  0.00  0.00    +0.125 A 
ATOM      8  N   UNL     1      -0.571  -3.975   0.054  0.00  0.00    -0.253 NA
ATOM      9  C   UNL     1       0.580  -4.104  -0.556  0.00  0.00    +0.132 A 
ATOM     10  C   UNL     1       0.825  -3.501  -1.800  0.00  0.00    +0.092 A 
ATOM     11  C   UNL     1      -0.187  -2.743  -2.408  0.00  0.00    +0.061 A 
ENDROOT
BRANCH  11  12
ATOM     12  N   UNL     1       0.014  -2.135  -3.632  0.00  0.00    -0.292 N 
ATOM     13  C   UNL     1      -0.189  -2.847  -4.799  0.00  0.00    +0.163 A 
ATOM     14  N   UNL     1      -0.477  -4.120  -4.948  0.00  0.00    -0.225 NA
ATOM     15  C   UNL     1      -0.650  -4.687  -6.162  0.00  0.00    +0.080 A 
ATOM     16  C   UNL     1      -0.960  -6.035  -6.459  0.00  0.00    +0.029 A 
ATOM     17  C   UNL     1      -1.102  -6.450  -7.757  0.00  0.00    +0.002 A 
ATOM     18  C   UNL     1      -0.949  -5.572  -8.820  0.00  0.00    +0.001 A 
ATOM     19  C   UNL     1      -0.645  -4.247  -8.566  0.00  0.00    +0.017 A 
ATOM     20  C   UNL     1      -0.501  -3.822  -7.269  0.00  0.00    +0.041 A 
ATOM     21  S   UNL     1      -0.134  -2.268  -6.489  0.00  0.00    -0.052 S 
ATOM     22  H   UNL     1       0.298  -1.208  -3.672  0.00  0.00    +0.154 HD
ENDBRANCH  11  12
BRANCH  10  23
ATOM     23  C   UNL     1       2.095  -3.659  -2.442  0.00  0.00    +0.103 C 
ATOM     24  N   UNL     1       3.102  -3.784  -2.952  0.00  0.00    -0.191 NA
ENDBRANCH  10  23
BRANCH   7  25
ATOM     25  O   UNL     1      -5.000  -2.282   0.307  0.00  0.00    -0.492 OA
BRANCH  25  26
ATOM     26  C   UNL     1      -5.109  -2.944   1.569  0.00  0.00    +0.230 C 
BRANCH  26  27
ATOM     27  C   UNL     1      -6.499  -2.696   2.157  0.00  0.00    +0.056 C 
BRANCH  27  28
ATOM     28  C   UNL     1      -6.615  -3.405   3.508  0.00  0.00    +0.088 C 
BRANCH  28  29
ATOM     29  N   UNL     1      -7.951  -3.167   4.073  0.00  0.00    -0.298 NA
ATOM     30  C   UNL     1      -8.134  -1.749   4.412  0.00  0.00    +0.112 C 
ATOM     31  C   UNL     1      -9.555  -1.536   4.940  0.00  0.00    +0.175 C 
ATOM     32  O   UNL     1      -9.775  -2.394   6.063  0.00  0.00    -0.377 OA
ATOM     33  C   UNL     1      -9.606  -3.783   5.767  0.00  0.00    +0.175 C 
ATOM     34  C   UNL     1      -8.185  -4.019   5.248  0.00  0.00    +0.112 C 
ENDBRANCH  28  29
ENDBRANCH  27  28
ENDBRANCH  26  27
ENDBRANCH  25  26
ENDBRANCH   7  25
TORSDOF 7
