REMARK  Name = CHEMBL214329
REMARK  4 active torsions:
REMARK  status: ('A' for Active; 'I' for Inactive)
REMARK    1  A    between atoms: C_1  and  N_2
REMARK    2  A    between atoms: N_5  and  C_8
REMARK    3  A    between atoms: C_11  and  N_14
REMARK    4  A    between atoms: N_21  and  C_24
REMARK                            x       y       z     vdW  Elec       q    Type
REMARK                         _______ _______ _______ _____ _____    ______ ____
ROOT
ATOM      1  N   UNL     1      -2.348  -6.678   4.247  0.00  0.00    -0.284 N 
ATOM      2  C   UNL     1      -1.536  -7.173   5.255  0.00  0.00    +0.221 A 
ATOM      3  N   UNL     1      -0.368  -6.585   5.482  0.00  0.00    -0.222 NA
ATOM      4  C   UNL     1       0.443  -7.019   6.433  0.00  0.00    +0.126 A 
ATOM      5  C   UNL     1       0.046  -8.114   7.199  0.00  0.00    +0.037 A 
ATOM      6  C   UNL     1       0.634  -8.872   8.305  0.00  0.00    +0.031 A 
ATOM      7  C   UNL     1      -0.244  -9.835   8.625  0.00  0.00    +0.088 A 
ATOM      8  N   UNL     1      -1.345  -9.754   7.811  0.00  0.00    -0.329 N 
ATOM      9  C   UNL     1      -1.201  -8.716   6.931  0.00  0.00    +0.146 A 
ATOM     10  N   UNL     1      -1.956  -8.211   5.959  0.00  0.00    -0.196 NA
ATOM     11  H   UNL     1      -3.240  -7.038   4.122  0.00  0.00    +0.155 HD
ENDROOT
BRANCH   1  15
ATOM     12  C   UNL     1      -0.957  -3.643   1.749  0.00  0.00    +0.030 A 
ATOM     13  C   UNL     1      -0.079  -4.609   2.223  0.00  0.00    +0.025 A 
ATOM     14  C   UNL     1      -0.540  -5.614   3.050  0.00  0.00    +0.025 A 
ATOM     15  C   UNL     1      -1.881  -5.659   3.409  0.00  0.00    +0.034 A 
ATOM     16  C   UNL     1      -2.758  -4.692   2.935  0.00  0.00    +0.025 A 
ATOM     17  C   UNL     1      -2.297  -3.684   2.112  0.00  0.00    +0.025 A 
BRANCH  12  22
ATOM     18  C   UNL     1       0.527  -1.113  -2.856  0.00  0.00    -0.096 C 
ATOM     19  N   UNL     1       0.282  -1.286  -1.418  0.00  0.00    +0.380 N 
ATOM     20  C   UNL     1       1.113  -2.384  -0.909  0.00  0.00    -0.060 C 
ATOM     21  C   UNL     1       0.944  -2.490   0.610  0.00  0.00    +0.086 C 
ATOM     22  N   UNL     1      -0.490  -2.624   0.911  0.00  0.00    -0.333 N 
ATOM     23  C   UNL     1      -1.419  -1.657   0.306  0.00  0.00    +0.086 C 
ATOM     24  C   UNL     1      -1.138  -1.590  -1.199  0.00  0.00    -0.060 C 
ATOM     25  H   UNL     1       0.520  -0.434  -0.933  0.00  0.00    -0.082 HD
ENDBRANCH  12  22
ENDBRANCH   1  15
BRANCH   8  26
ATOM     26  C   UNL     1      -2.505 -10.646   7.875  0.00  0.00    +0.089 C 
ATOM     27  C   UNL     1      -2.054 -12.087   7.623  0.00  0.00    +0.025 C 
ATOM     28  C   UNL     1      -3.265 -13.019   7.690  0.00  0.00    +0.002 C 
ATOM     29  C   UNL     1      -3.909 -12.921   9.074  0.00  0.00    +0.000 C 
ATOM     30  C   UNL     1      -4.360 -11.480   9.326  0.00  0.00    +0.002 C 
ATOM     31  C   UNL     1      -3.149 -10.548   9.259  0.00  0.00    +0.025 C 
ENDBRANCH   8  26
TORSDOF 3
