REMARK  Name = CHEMBL1083091
REMARK  6 active torsions:
REMARK  status: ('A' for Active; 'I' for Inactive)
REMARK    1  A    between atoms: C_1  and  N_2
REMARK    2  A    between atoms: N_5  and  C_8
REMARK    3  A    between atoms: C_12  and  C_14
REMARK    4  A    between atoms: C_21  and  C_24
REMARK    5  A    between atoms: C_22  and  N_23
REMARK    6  A    between atoms: C_27  and  O_30
REMARK                            x       y       z     vdW  Elec       q    Type
REMARK                         _______ _______ _______ _____ _____    ______ ____
ROOT
ATOM      1  C   UNL     1       0.310  -5.810   4.547  0.00  0.00    +0.046 A 
ATOM      2  C   UNL     1       1.607  -6.287   4.322  0.00  0.00    +0.145 A 
ATOM      3  N   UNL     1       2.087  -6.754   5.447  0.00  0.00    -0.171 NA
ATOM      4  N   UNL     1       1.129  -6.603   6.455  0.00  0.00    -0.200 N 
ATOM      5  C   UNL     1       0.024  -6.011   5.903  0.00  0.00    +0.165 A 
ATOM      6  N   UNL     1      -1.056  -5.739   6.644  0.00  0.00    -0.235 NA
ATOM      7  C   UNL     1      -1.095  -6.025   7.926  0.00  0.00    +0.125 A 
ATOM      8  C   UNL     1       0.010  -6.629   8.550  0.00  0.00    +0.040 A 
ATOM      9  C   UNL     1       1.135  -6.924   7.786  0.00  0.00    +0.129 A 
ENDROOT
BRANCH   1  14
ATOM     10  C   UNL     1      -0.972  -3.610   1.777  0.00  0.00    +0.030 A 
ATOM     11  C   UNL     1      -2.280  -4.065   1.658  0.00  0.00    +0.023 A 
ATOM     12  C   UNL     1      -2.740  -5.081   2.474  0.00  0.00    +0.002 A 
ATOM     13  C   UNL     1      -1.904  -5.650   3.412  0.00  0.00    +0.009 A 
ATOM     14  C   UNL     1      -0.589  -5.200   3.540  0.00  0.00    -0.011 A 
ATOM     15  C   UNL     1      -0.123  -4.180   2.713  0.00  0.00    +0.031 A 
BRANCH  10  20
ATOM     16  C   UNL     1      -0.038   1.464  -0.002  0.00  0.00    -0.096 C 
ATOM     17  N   UNL     1      -0.008  -0.004  -0.004  0.00  0.00    +0.380 N 
ATOM     18  C   UNL     1      -1.382  -0.520  -0.014  0.00  0.00    -0.060 C 
ATOM     19  C   UNL     1      -1.353  -2.048  -0.132  0.00  0.00    +0.086 C 
ATOM     20  N   UNL     1      -0.511  -2.583   0.950  0.00  0.00    -0.333 N 
ATOM     21  C   UNL     1       0.828  -2.005   1.137  0.00  0.00    +0.086 C 
ATOM     22  C   UNL     1       0.696  -0.479   1.195  0.00  0.00    -0.060 C 
ATOM     23  H   UNL     1       0.477  -0.328  -0.827  0.00  0.00    -0.082 HD
ENDBRANCH  10  20
ENDBRANCH   1  14
BRANCH   8  24
ATOM     24  C   UNL     1      -0.026  -6.955   9.996  0.00  0.00    -0.013 A 
ATOM     25  C   UNL     1       0.027  -8.284  10.414  0.00  0.00    +0.012 A 
ATOM     26  C   UNL     1      -0.006  -8.584  11.760  0.00  0.00    +0.046 A 
ATOM     27  C   UNL     1      -0.092  -7.564  12.698  0.00  0.00    +0.117 A 
ATOM     28  C   UNL     1      -0.145  -6.240  12.285  0.00  0.00    +0.046 A 
ATOM     29  C   UNL     1      -0.107  -5.933  10.941  0.00  0.00    +0.012 A 
BRANCH  27  30
ATOM     30  O   UNL     1      -0.125  -7.862  14.024  0.00  0.00    -0.507 OA
ATOM     31  H   UNL     1       0.747  -7.904  14.439  0.00  0.00    +0.292 HD
ENDBRANCH  27  30
ENDBRANCH   8  24
BRANCH   9  32
ATOM     32  N   UNL     1       2.237  -7.513   8.361  0.00  0.00    -0.343 N 
ATOM     33  H   UNL     1       3.021  -7.705   7.822  0.00  0.00    +0.144 HD
ATOM     34  H   UNL     1       2.231  -7.737   9.305  0.00  0.00    +0.144 HD
ENDBRANCH   9  32
TORSDOF 5
