REMARK  Name = CHEMBL340944
REMARK  12 active torsions:
REMARK  status: ('A' for Active; 'I' for Inactive)
REMARK    1  A    between atoms: C_1  and  O_2
REMARK    2  A    between atoms: O_2  and  C_3
REMARK    3  A    between atoms: C_8  and  O_9
REMARK    4  A    between atoms: O_9  and  C_10
REMARK    5  A    between atoms: C_10  and  C_11
REMARK    6  A    between atoms: C_11  and  C_12
REMARK    7  A    between atoms: C_12  and  N_13
REMARK    8  A    between atoms: C_20  and  C_33
REMARK    9  A    between atoms: C_21  and  N_22
REMARK   10  A    between atoms: N_22  and  C_23
REMARK   11  A    between atoms: C_25  and  O_31
REMARK   12  A    between atoms: O_31  and  C_32
REMARK                            x       y       z     vdW  Elec       q    Type
REMARK                         _______ _______ _______ _____ _____    ______ ____
ROOT
ATOM      1  C   UNL     1       1.280  -0.395   0.609  0.00  0.00    +0.162 A 
ATOM      2  C   UNL     1       1.631   0.293   1.735  0.00  0.00    +0.061 A 
ATOM      3  C   UNL     1       2.165  -0.396   2.835  0.00  0.00    +0.026 A 
ATOM      4  C   UNL     1       2.338  -1.800   2.773  0.00  0.00    +0.077 A 
ATOM      5  C   UNL     1       1.969  -2.483   1.605  0.00  0.00    +0.077 A 
ATOM      6  C   UNL     1       1.442  -1.785   0.542  0.00  0.00    +0.164 A 
ATOM      7  N   UNL     1       2.847  -2.464   3.821  0.00  0.00    -0.253 NA
ATOM      8  C   UNL     1       3.199  -1.854   4.924  0.00  0.00    +0.132 A 
ATOM      9  C   UNL     1       3.063  -0.465   5.073  0.00  0.00    +0.091 A 
ATOM     10  C   UNL     1       2.538   0.291   4.014  0.00  0.00    +0.060 A 
ENDROOT
BRANCH   1  12
ATOM     11  C   UNL     1       0.622   1.691  -0.324  0.00  0.00    +0.277 C 
ATOM     12  O   UNL     1       0.762   0.275  -0.455  0.00  0.00    -0.491 OA
ENDBRANCH   1  12
BRANCH  10  13
ATOM     13  N   UNL     1       2.388   1.659   4.120  0.00  0.00    -0.312 N 
ATOM     14  H   UNL     1       1.750   2.122   3.554  0.00  0.00    +0.152 HD
BRANCH  13  15
ATOM     15  C   UNL     1       3.155   2.377   5.042  0.00  0.00    +0.053 A 
ATOM     16  C   UNL     1       2.545   2.983   6.132  0.00  0.00    +0.071 A 
ATOM     17  C   UNL     1       3.309   3.694   7.044  0.00  0.00    +0.140 A 
ATOM     18  C   UNL     1       4.682   3.799   6.866  0.00  0.00    +0.084 A 
ATOM     19  C   UNL     1       5.289   3.195   5.780  0.00  0.00    +0.045 A 
ATOM     20  C   UNL     1       4.531   2.481   4.871  0.00  0.00    +0.064 A 
ATOM     21 CL   UNL     1       5.296   1.718   3.513  0.00  0.00    -0.082 Cl
ATOM     22 CL   UNL     1       5.638   4.689   8.009  0.00  0.00    -0.080 Cl
BRANCH  17  23
ATOM     23  O   UNL     1       2.714   4.288   8.112  0.00  0.00    -0.494 OA
ATOM     24  C   UNL     1       1.318   4.044   8.296  0.00  0.00    +0.277 C 
ENDBRANCH  17  23
ENDBRANCH  13  15
ENDBRANCH  10  13
BRANCH   9  25
ATOM     25  C   UNL     1       3.458   0.175   6.292  0.00  0.00    +0.103 C 
ATOM     26  N   UNL     1       3.771   0.682   7.259  0.00  0.00    -0.191 NA
ENDBRANCH   9  25
BRANCH   6  27
ATOM     27  O   UNL     1       1.080  -2.450  -0.586  0.00  0.00    -0.488 OA
BRANCH  27  28
ATOM     28  C   UNL     1       1.270  -3.867  -0.593  0.00  0.00    +0.231 C 
BRANCH  28  29
ATOM     29  C   UNL     1       0.808  -4.436  -1.936  0.00  0.00    +0.062 C 
BRANCH  29  30
ATOM     30  C   UNL     1       1.011  -5.953  -1.943  0.00  0.00    +0.126 C 
BRANCH  30  31
ATOM     31  N   UNL     1       0.570  -6.498  -3.229  0.00  0.00    -0.337 N 
ATOM     32  C   UNL     1      -0.691  -6.934  -3.537  0.00  0.00    +0.106 A 
ATOM     33  C   UNL     1      -0.658  -7.351  -4.817  0.00  0.00    +0.130 A 
ATOM     34  N   UNL     1       0.590  -7.175  -5.278  0.00  0.00    -0.244 NA
ATOM     35  C   UNL     1       1.329  -6.660  -4.334  0.00  0.00    +0.199 A 
ENDBRANCH  30  31
ENDBRANCH  29  30
ENDBRANCH  28  29
ENDBRANCH  27  28
ENDBRANCH   6  27
TORSDOF 10
