REMARK  Name = CHEMBL248393
REMARK  12 active torsions:
REMARK  status: ('A' for Active; 'I' for Inactive)
REMARK    1  A    between atoms: C_1  and  N_2
REMARK    2  A    between atoms: N_5  and  C_8
REMARK    3  A    between atoms: C_8  and  C_9
REMARK    4  A    between atoms: C_9  and  C_10
REMARK    5  A    between atoms: C_10  and  O_11
REMARK    6  A    between atoms: O_11  and  C_12
REMARK    7  A    between atoms: C_17  and  O_18
REMARK    8  A    between atoms: O_18  and  C_19
REMARK    9  A    between atoms: C_20  and  N_26
REMARK   10  A    between atoms: C_21  and  C_24
REMARK   11  A    between atoms: N_26  and  C_27
REMARK   12  A    between atoms: C_30  and  C_32
REMARK                            x       y       z     vdW  Elec       q    Type
REMARK                         _______ _______ _______ _____ _____    ______ ____
ROOT
ATOM      1  C   UNL     1       1.222  -8.021   3.469  0.00  0.00    +0.164 A 
ATOM      2  C   UNL     1       0.382  -8.830   2.738  0.00  0.00    +0.077 A 
ATOM      3  C   UNL     1       0.150 -10.150   3.155  0.00  0.00    +0.076 A 
ATOM      4  C   UNL     1       0.788 -10.626   4.326  0.00  0.00    +0.026 A 
ATOM      5  C   UNL     1       1.640  -9.781   5.052  0.00  0.00    +0.061 A 
ATOM      6  C   UNL     1       1.854  -8.502   4.624  0.00  0.00    +0.162 A 
ATOM      7  C   UNL     1       0.552 -11.956   4.743  0.00  0.00    +0.056 A 
ATOM      8  C   UNL     1      -0.312 -12.742   3.966  0.00  0.00    +0.091 A 
ATOM      9  C   UNL     1      -0.902 -12.188   2.819  0.00  0.00    +0.132 A 
ATOM     10  N   UNL     1      -0.666 -10.953   2.456  0.00  0.00    -0.253 NA
ENDROOT
BRANCH   6  11
ATOM     11  O   UNL     1       2.684  -7.686   5.327  0.00  0.00    -0.491 OA
ATOM     12  C   UNL     1       3.298  -8.236   6.495  0.00  0.00    +0.277 C 
ENDBRANCH   6  11
BRANCH   8  13
ATOM     13  C   UNL     1      -0.589 -14.097   4.339  0.00  0.00    +0.103 C 
ATOM     14  N   UNL     1      -0.808 -15.172   4.635  0.00  0.00    -0.191 NA
ENDBRANCH   8  13
BRANCH   7  15
ATOM     15  N   UNL     1       1.152 -12.464   5.878  0.00  0.00    -0.339 N 
ATOM     16  H   UNL     1       1.401 -11.870   6.602  0.00  0.00    +0.146 HD
BRANCH  15  17
ATOM     17  C   UNL     1       1.413 -13.902   5.987  0.00  0.00    +0.078 C 
ATOM     18  C   UNL     1       0.842 -14.633   7.204  0.00  0.00    +0.032 C 
ATOM     19  C   UNL     1       2.346 -14.367   7.106  0.00  0.00    +0.041 C 
BRANCH  19  20
ATOM     20  C   UNL     1       3.243 -15.544   6.819  0.00  0.00    -0.042 A 
ATOM     21  C   UNL     1       2.693 -16.765   6.475  0.00  0.00    +0.004 A 
ATOM     22  C   UNL     1       3.516 -17.844   6.212  0.00  0.00    +0.000 A 
ATOM     23  C   UNL     1       4.888 -17.703   6.293  0.00  0.00    +0.000 A 
ATOM     24  C   UNL     1       5.439 -16.482   6.637  0.00  0.00    +0.000 A 
ATOM     25  C   UNL     1       4.616 -15.401   6.895  0.00  0.00    +0.004 A 
ENDBRANCH  19  20
ENDBRANCH  15  17
ENDBRANCH   7  15
BRANCH   1  26
ATOM     26  O   UNL     1       1.446  -6.744   3.063  0.00  0.00    -0.488 OA
BRANCH  26  27
ATOM     27  C   UNL     1       0.773  -6.312   1.879  0.00  0.00    +0.230 C 
BRANCH  27  28
ATOM     28  C   UNL     1       1.145  -4.858   1.581  0.00  0.00    +0.056 C 
BRANCH  28  29
ATOM     29  C   UNL     1       0.425  -4.396   0.313  0.00  0.00    +0.087 C 
BRANCH  29  34
ATOM     30  C   UNL     1       2.059   0.534  -1.871  0.00  0.00    -0.096 C 
ATOM     31  N   UNL     1       1.715  -0.875  -1.637  0.00  0.00    +0.379 N 
ATOM     32  C   UNL     1       0.298  -0.977  -1.263  0.00  0.00    -0.064 C 
ATOM     33  C   UNL     1      -0.065  -2.447  -1.038  0.00  0.00    +0.066 C 
ATOM     34  N   UNL     1       0.782  -3.000   0.028  0.00  0.00    -0.306 NA
ATOM     35  C   UNL     1       2.205  -2.882  -0.322  0.00  0.00    +0.066 C 
ATOM     36  C   UNL     1       2.550  -1.409  -0.553  0.00  0.00    -0.064 C 
ATOM     37  H   UNL     1       1.879  -1.405  -2.480  0.00  0.00    -0.082 HD
ENDBRANCH  29  34
ENDBRANCH  28  29
ENDBRANCH  27  28
ENDBRANCH  26  27
ENDBRANCH   1  26
TORSDOF 10
