REMARK  Name = CHEMBL193452
REMARK  10 active torsions:
REMARK  status: ('A' for Active; 'I' for Inactive)
REMARK    1  A    between atoms: C_1  and  N_2
REMARK    2  A    between atoms: N_2  and  C_3
REMARK    3  A    between atoms: N_2  and  C_4
REMARK    4  A    between atoms: C_4  and  C_5
REMARK    5  A    between atoms: C_8  and  C_11
REMARK    6  A    between atoms: C_16  and  N_22
REMARK    7  A    between atoms: C_17  and  C_20
REMARK    8  A    between atoms: N_22  and  C_23
REMARK    9  A    between atoms: C_25  and  O_31
REMARK   10  A    between atoms: O_31  and  C_32
REMARK                            x       y       z     vdW  Elec       q    Type
REMARK                         _______ _______ _______ _____ _____    ______ ____
ROOT
ATOM      1  C   UNL     1      -6.925  -1.129  -7.493  0.00  0.00    +0.040 A 
ATOM      2  C   UNL     1      -5.670  -1.209  -8.009  0.00  0.00    +0.046 A 
ATOM      3  C   UNL     1      -5.012  -0.044  -8.442  0.00  0.00    +0.081 A 
ATOM      4  C   UNL     1      -5.746   1.153  -8.295  0.00  0.00    +0.061 A 
ATOM      5  S   UNL     1      -7.282   0.617  -7.587  0.00  0.00    -0.083 S 
ATOM      6  C   UNL     1      -5.231   2.380  -8.677  0.00  0.00    +0.066 A 
ATOM      7  C   UNL     1      -3.932   2.405  -9.227  0.00  0.00    +0.092 A 
ATOM      8  C   UNL     1      -3.246   1.189  -9.351  0.00  0.00    +0.132 A 
ATOM      9  N   UNL     1      -3.770   0.055  -8.977  0.00  0.00    -0.253 NA
ENDROOT
BRANCH   1  13
ATOM     10  C   UNL     1      -9.345  -4.252  -6.061  0.00  0.00    -0.015 A 
ATOM     11  C   UNL     1      -9.794  -2.948  -5.905  0.00  0.00    +0.008 A 
ATOM     12  C   UNL     1      -9.001  -1.916  -6.375  0.00  0.00    +0.029 A 
ATOM     13  C   UNL     1      -7.784  -2.220  -6.985  0.00  0.00    +0.078 A 
ATOM     14  N   UNL     1      -7.391  -3.482  -7.114  0.00  0.00    -0.254 NA
ATOM     15  C   UNL     1      -8.125  -4.482  -6.670  0.00  0.00    +0.116 A 
BRANCH  10  16
ATOM     16  C   UNL     1     -10.176  -5.407  -5.564  0.00  0.00    +0.120 C 
BRANCH  16  18
ATOM     17  C   UNL     1     -10.190  -4.598  -3.282  0.00  0.00    +0.104 C 
ATOM     18  N   UNL     1      -9.817  -5.706  -4.172  0.00  0.00    -0.304 NA
ATOM     19  C   UNL     1     -10.429  -6.966  -3.729  0.00  0.00    +0.104 C 
ENDBRANCH  16  18
ENDBRANCH  10  16
ENDBRANCH   1  13
BRANCH   7  20
ATOM     20  C   UNL     1      -3.332   3.636  -9.645  0.00  0.00    +0.103 C 
ATOM     21  N   UNL     1      -2.857   4.613  -9.978  0.00  0.00    -0.191 NA
ENDBRANCH   7  20
BRANCH   6  22
ATOM     22  N   UNL     1      -5.968   3.544  -8.525  0.00  0.00    -0.311 N 
ATOM     23  H   UNL     1      -6.606   3.807  -9.207  0.00  0.00    +0.152 HD
BRANCH  22  24
ATOM     24  C   UNL     1      -5.791   4.340  -7.389  0.00  0.00    +0.054 A 
ATOM     25  C   UNL     1      -4.803   4.025  -6.466  0.00  0.00    +0.071 A 
ATOM     26  C   UNL     1      -4.631   4.815  -5.341  0.00  0.00    +0.140 A 
ATOM     27  C   UNL     1      -5.445   5.922  -5.139  0.00  0.00    +0.084 A 
ATOM     28  C   UNL     1      -6.429   6.236  -6.059  0.00  0.00    +0.045 A 
ATOM     29  C   UNL     1      -6.600   5.452  -7.186  0.00  0.00    +0.064 A 
ATOM     30 CL   UNL     1      -7.831   5.853  -8.342  0.00  0.00    -0.082 Cl
ATOM     31 CL   UNL     1      -5.229   6.912  -3.730  0.00  0.00    -0.080 Cl
BRANCH  26  32
ATOM     32  O   UNL     1      -3.664   4.508  -4.436  0.00  0.00    -0.494 OA
ATOM     33  C   UNL     1      -2.939   3.295  -4.647  0.00  0.00    +0.277 C 
ENDBRANCH  26  32
ENDBRANCH  22  24
ENDBRANCH   6  22
TORSDOF 7
