REMARK  Name = CHEMBL60408
REMARK  8 active torsions:
REMARK  status: ('A' for Active; 'I' for Inactive)
REMARK    1  A    between atoms: C_1  and  O_2
REMARK    2  A    between atoms: O_2  and  C_3
REMARK    3  A    between atoms: C_5  and  N_11
REMARK    4  A    between atoms: N_11  and  C_12
REMARK    5  A    between atoms: C_15  and  C_24
REMARK    6  A    between atoms: C_21  and  C_22
REMARK    7  A    between atoms: C_26  and  C_29
REMARK    8  A    between atoms: C_29  and  N_30
REMARK                            x       y       z     vdW  Elec       q    Type
REMARK                         _______ _______ _______ _____ _____    ______ ____
ROOT
ATOM      1  C   UNL     1      -4.637   1.720  -0.235  0.00  0.00    +0.060 A 
ATOM      2  C   UNL     1      -5.780   2.525  -0.013  0.00  0.00    +0.023 A 
ATOM      3  C   UNL     1      -6.986   1.963   0.423  0.00  0.00    +0.020 A 
ATOM      4  C   UNL     1      -8.083   2.781   0.630  0.00  0.00    -0.017 A 
ATOM      5  C   UNL     1      -7.990   4.162   0.405  0.00  0.00    +0.010 A 
ATOM      6  C   UNL     1      -6.827   4.723  -0.020  0.00  0.00    +0.029 A 
ATOM      7  C   UNL     1      -5.695   3.920  -0.239  0.00  0.00    +0.073 A 
ATOM      8  N   UNL     1      -4.543   4.465  -0.656  0.00  0.00    -0.254 NA
ATOM      9  C   UNL     1      -3.471   3.746  -0.869  0.00  0.00    +0.132 A 
ATOM     10  C   UNL     1      -3.464   2.357  -0.667  0.00  0.00    +0.091 A 
ENDROOT
BRANCH   4  11
ATOM     11  C   UNL     1      -9.365   2.193   1.093  0.00  0.00    -0.011 A 
ATOM     12  C   UNL     1     -10.482   2.997   1.302  0.00  0.00    +0.021 A 
ATOM     13  C   UNL     1     -11.632   2.425   1.723  0.00  0.00    +0.004 A 
ATOM     14  S   UNL     1     -11.177   0.703   1.843  0.00  0.00    -0.100 S 
ATOM     15  C   UNL     1      -9.477   0.850   1.318  0.00  0.00    +0.054 A 
BRANCH  13  16
ATOM     16  C   UNL     1     -12.959   3.075   2.017  0.00  0.00    +0.127 C 
BRANCH  16  17
ATOM     17  N   UNL     1     -13.777   3.093   0.796  0.00  0.00    -0.293 NA
ATOM     18  C   UNL     1     -13.183   3.971  -0.222  0.00  0.00    +0.113 C 
ATOM     19  C   UNL     1     -14.031   3.914  -1.495  0.00  0.00    +0.175 C 
ATOM     20  O   UNL     1     -15.377   4.282  -1.181  0.00  0.00    -0.377 OA
ATOM     21  C   UNL     1     -15.987   3.447  -0.193  0.00  0.00    +0.175 C 
ATOM     22  C   UNL     1     -15.158   3.499   1.093  0.00  0.00    +0.113 C 
ENDBRANCH  16  17
ENDBRANCH  13  16
ENDBRANCH   4  11
BRANCH   1  23
ATOM     23  N   UNL     1      -4.673   0.357  -0.029  0.00  0.00    -0.312 N 
ATOM     24  H   UNL     1      -5.520  -0.115  -0.054  0.00  0.00    +0.152 HD
BRANCH  23  27
ATOM     25  C   UNL     1      -1.843  -1.953  -0.466  0.00  0.00    +0.140 A 
ATOM     26  C   UNL     1      -3.017  -1.260  -0.714  0.00  0.00    +0.071 A 
ATOM     27  C   UNL     1      -3.489  -0.345   0.218  0.00  0.00    +0.053 A 
ATOM     28  C   UNL     1      -2.783  -0.127   1.395  0.00  0.00    +0.064 A 
ATOM     29  C   UNL     1      -1.612  -0.821   1.638  0.00  0.00    +0.045 A 
ATOM     30  C   UNL     1      -1.144  -1.736   0.713  0.00  0.00    +0.084 A 
ATOM     31 CL   UNL     1       0.323  -2.611   1.026  0.00  0.00    -0.080 Cl
ATOM     32 CL   UNL     1      -3.372   1.016   2.561  0.00  0.00    -0.082 Cl
BRANCH  25  34
ATOM     33  C   UNL     1      -2.083  -2.939  -2.617  0.00  0.00    +0.277 C 
ATOM     34  O   UNL     1      -1.379  -2.850  -1.377  0.00  0.00    -0.494 OA
ENDBRANCH  25  34
ENDBRANCH  23  27
ENDBRANCH   1  23
BRANCH  10  35
ATOM     35  C   UNL     1      -2.273   1.597  -0.904  0.00  0.00    +0.103 C 
ATOM     36  N   UNL     1      -1.329   0.994  -1.091  0.00  0.00    -0.191 NA
ENDBRANCH  10  35
TORSDOF 7
