REMARK  Name = CHEMBL475413
REMARK  9 active torsions:
REMARK  status: ('A' for Active; 'I' for Inactive)
REMARK    1  A    between atoms: C_1  and  O_2
REMARK    2  A    between atoms: O_2  and  C_3
REMARK    3  A    between atoms: C_7  and  C_9
REMARK    4  A    between atoms: N_11  and  C_19
REMARK    5  A    between atoms: C_14  and  N_18
REMARK    6  A    between atoms: C_22  and  O_25
REMARK    7  A    between atoms: O_25  and  C_26
REMARK    8  A    between atoms: C_26  and  C_27
REMARK    9  A    between atoms: C_27  and  N_28
REMARK                            x       y       z     vdW  Elec       q    Type
REMARK                         _______ _______ _______ _____ _____    ______ ____
ROOT
ATOM      1  C   UNL     1       1.332  -4.082  -2.300  0.00  0.00    +0.013 A 
ATOM      2  C   UNL     1       1.738  -4.936  -1.327  0.00  0.00    +0.102 A 
ATOM      3  N   UNL     1       1.649  -6.225  -1.780  0.00  0.00    -0.300 N 
ATOM      4  C   UNL     1       1.180  -6.244  -3.068  0.00  0.00    +0.151 A 
ATOM      5  C   UNL     1       0.954  -4.911  -3.452  0.00  0.00    +0.066 A 
ATOM      6  C   UNL     1       0.460  -4.655  -4.738  0.00  0.00    +0.129 A 
ATOM      7  N   UNL     1       0.224  -5.689  -5.541  0.00  0.00    -0.220 NA
ATOM      8  C   UNL     1       0.447  -6.927  -5.139  0.00  0.00    +0.225 A 
ATOM      9  N   UNL     1       0.917  -7.212  -3.944  0.00  0.00    -0.217 NA
ENDROOT
BRANCH   1  14
ATOM     10  C   UNL     1       0.606  -0.607  -1.056  0.00  0.00    +0.121 A 
ATOM     11  C   UNL     1       1.173   0.163  -2.063  0.00  0.00    +0.045 A 
ATOM     12  C   UNL     1       1.788  -0.446  -3.140  0.00  0.00    +0.004 A 
ATOM     13  C   UNL     1       1.843  -1.823  -3.222  0.00  0.00    +0.009 A 
ATOM     14  C   UNL     1       1.276  -2.603  -2.215  0.00  0.00    -0.012 A 
ATOM     15  C   UNL     1       0.660  -1.989  -1.126  0.00  0.00    +0.054 A 
BRANCH  10  17
ATOM     16  C   UNL     1      -0.017   1.425   0.010  0.00  0.00    +0.277 C 
ATOM     17  O   UNL     1       0.002  -0.004   0.002  0.00  0.00    -0.495 OA
ENDBRANCH  10  17
ENDBRANCH   1  14
BRANCH   3  18
ATOM     18  C   UNL     1       1.989  -7.362  -1.033  0.00  0.00    +0.048 A 
ATOM     19  C   UNL     1       1.105  -8.429  -0.951  0.00  0.00    +0.030 A 
ATOM     20  C   UNL     1       1.440  -9.549  -0.216  0.00  0.00    +0.047 A 
ATOM     21  C   UNL     1       2.661  -9.607   0.441  0.00  0.00    +0.121 A 
ATOM     22  C   UNL     1       3.545  -8.541   0.360  0.00  0.00    +0.047 A 
ATOM     23  C   UNL     1       3.213  -7.424  -0.380  0.00  0.00    +0.030 A 
BRANCH  21  24
ATOM     24  O   UNL     1       2.990 -10.710   1.165  0.00  0.00    -0.490 OA
BRANCH  24  25
ATOM     25  C   UNL     1       4.263 -10.703   1.815  0.00  0.00    +0.250 C 
BRANCH  25  26
ATOM     26  C   UNL     1       4.455 -12.017   2.575  0.00  0.00    +0.163 C 
BRANCH  26  27
ATOM     27  N   UNL     1       5.760 -12.009   3.241  0.00  0.00    -0.335 N 
ATOM     28  C   UNL     1       6.944 -12.449   2.714  0.00  0.00    +0.104 A 
ATOM     29  C   UNL     1       7.885 -12.260   3.658  0.00  0.00    +0.101 A 
ATOM     30  N   UNL     1       7.292 -11.719   4.733  0.00  0.00    -0.352 N 
ATOM     31  C   UNL     1       6.020 -11.561   4.488  0.00  0.00    +0.173 A 
ATOM     32  H   UNL     1       7.739 -11.479   5.559  0.00  0.00    +0.166 HD
ENDBRANCH  26  27
ENDBRANCH  25  26
ENDBRANCH  24  25
ENDBRANCH  21  24
ENDBRANCH   3  18
BRANCH   6  33
ATOM     33  N   UNL     1       0.225  -3.359  -5.162  0.00  0.00    -0.343 N 
ATOM     34  H   UNL     1       0.402  -2.614  -4.567  0.00  0.00    +0.144 HD
ATOM     35  H   UNL     1      -0.117  -3.196  -6.056  0.00  0.00    +0.144 HD
ENDBRANCH   6  33
TORSDOF 8
