REMARK  Name = CHEMBL445162
REMARK  5 active torsions:
REMARK  status: ('A' for Active; 'I' for Inactive)
REMARK    1  A    between atoms: C_1  and  S_2
REMARK    2  A    between atoms: S_2  and  C_5
REMARK    3  A    between atoms: C_9  and  N_11
REMARK    4  A    between atoms: C_16  and  N_18
REMARK    5  A    between atoms: N_18  and  C_19
REMARK                            x       y       z     vdW  Elec       q    Type
REMARK                         _______ _______ _______ _____ _____    ______ ____
ROOT
ATOM      1  N   UNL     1       4.349  -4.401  -2.916  0.00  0.00    -0.284 N 
ATOM      2  C   UNL     1       5.178  -4.208  -4.010  0.00  0.00    +0.221 A 
ATOM      3  N   UNL     1       4.859  -4.765  -5.169  0.00  0.00    -0.223 NA
ATOM      4  C   UNL     1       5.626  -4.603  -6.237  0.00  0.00    +0.118 A 
ATOM      5  C   UNL     1       6.774  -3.841  -6.135  0.00  0.00    +0.063 A 
ATOM      6  C   UNL     1       7.085  -3.267  -4.900  0.00  0.00    +0.128 A 
ATOM      7  N   UNL     1       6.267  -3.467  -3.871  0.00  0.00    -0.199 NA
ATOM      8  H   UNL     1       4.529  -3.937  -2.084  0.00  0.00    +0.155 HD
ENDROOT
BRANCH   1  13
ATOM      9  C   UNL     1       2.187  -7.160  -4.023  0.00  0.00    +0.090 A 
ATOM     10  C   UNL     1       1.087  -6.974  -3.206  0.00  0.00    +0.027 A 
ATOM     11  C   UNL     1       1.067  -5.935  -2.293  0.00  0.00    +0.004 A 
ATOM     12  C   UNL     1       2.148  -5.080  -2.195  0.00  0.00    +0.023 A 
ATOM     13  C   UNL     1       3.254  -5.265  -3.013  0.00  0.00    +0.035 A 
ATOM     14  C   UNL     1       3.273  -6.313  -3.925  0.00  0.00    +0.050 A 
BRANCH   9  16
ATOM     15  C   UNL     1       2.922  -9.886  -4.281  0.00  0.00    +0.200 C 
ATOM     16  S   UNL     1       2.206  -8.485  -5.184  0.00  0.00    -0.006 S 
ATOM     17  O   UNL     1       3.094  -8.057  -6.208  0.00  0.00    -0.170 OA
ATOM     18  O   UNL     1       0.837  -8.736  -5.471  0.00  0.00    -0.170 OA
ENDBRANCH   9  16
ENDBRANCH   1  13
BRANCH   6  19
ATOM     19  N   UNL     1       8.226  -2.495  -4.752  0.00  0.00    -0.295 N 
ATOM     20  H   UNL     1       8.462  -2.140  -3.880  0.00  0.00    +0.154 HD
BRANCH  19  21
ATOM     21  C   UNL     1       9.040  -2.226  -5.860  0.00  0.00    +0.097 A 
ATOM     22  C   UNL     1      10.351  -2.683  -5.887  0.00  0.00    +0.066 A 
ATOM     23  C   UNL     1      11.154  -2.418  -6.981  0.00  0.00    +0.025 A 
ATOM     24  C   UNL     1      10.655  -1.698  -8.052  0.00  0.00    +0.051 A 
ATOM     25  C   UNL     1       9.347  -1.239  -8.033  0.00  0.00    +0.168 A 
ATOM     26  C   UNL     1       8.533  -1.508  -6.938  0.00  0.00    +0.189 A 
ATOM     27  O   UNL     1       7.302  -0.960  -7.162  0.00  0.00    -0.451 OA
ATOM     28  C   UNL     1       7.494  -0.010  -8.228  0.00  0.00    +0.466 C 
ATOM     29  O   UNL     1       8.628  -0.521  -8.946  0.00  0.00    -0.453 OA
ATOM     30 CL   UNL     1      10.984  -3.586  -4.546  0.00  0.00    -0.081 Cl
ENDBRANCH  19  21
ENDBRANCH   6  19
TORSDOF 4
