REMARK  Name = CHEMBL227836
REMARK  8 active torsions:
REMARK  status: ('A' for Active; 'I' for Inactive)
REMARK    1  A    between atoms: C_1  and  C_2
REMARK    2  A    between atoms: C_6  and  C_33
REMARK    3  A    between atoms: C_7  and  N_8
REMARK    4  A    between atoms: C_15  and  C_18
REMARK    5  A    between atoms: C_21  and  O_24
REMARK    6  A    between atoms: O_24  and  C_25
REMARK    7  A    between atoms: C_25  and  C_26
REMARK    8  A    between atoms: C_26  and  N_27
REMARK                            x       y       z     vdW  Elec       q    Type
REMARK                         _______ _______ _______ _____ _____    ______ ____
ROOT
ATOM      1  N   UNL     1       1.030  -0.939   1.879  0.00  0.00    -0.297 N 
ATOM      2  C   UNL     1       0.751  -1.513   3.107  0.00  0.00    +0.149 A 
ATOM      3  C   UNL     1       0.774  -0.725   4.281  0.00  0.00    +0.106 A 
ATOM      4  C   UNL     1       1.027   0.601   4.550  0.00  0.00    +0.142 A 
ATOM      5  N   UNL     1       0.899   0.774   5.867  0.00  0.00    -0.243 NA
ATOM      6  C   UNL     1       0.580  -0.364   6.436  0.00  0.00    +0.204 A 
ATOM      7  N   UNL     1       0.491  -1.321   5.498  0.00  0.00    -0.294 N 
ATOM      8  C   UNL     1       0.195  -2.673   5.522  0.00  0.00    +0.073 A 
ATOM      9  C   UNL     1       0.188  -3.380   4.360  0.00  0.00    +0.139 A 
ATOM     10  N   UNL     1       0.456  -2.798   3.188  0.00  0.00    -0.236 NA
ATOM     11  H   UNL     1       1.167   0.019   1.811  0.00  0.00    +0.154 HD
ENDROOT
BRANCH   1  18
ATOM     12  C   UNL     1       3.594  -1.354   0.717  0.00  0.00    +0.045 C 
ATOM     13  C   UNL     1       2.347  -1.969   0.137  0.00  0.00    -0.029 A 
ATOM     14  C   UNL     1       2.428  -2.765  -0.988  0.00  0.00    +0.005 A 
ATOM     15  C   UNL     1       1.284  -3.330  -1.522  0.00  0.00    +0.001 A 
ATOM     16  C   UNL     1       0.055  -3.099  -0.930  0.00  0.00    +0.005 A 
ATOM     17  C   UNL     1      -0.033  -2.304   0.195  0.00  0.00    -0.029 A 
ATOM     18  C   UNL     1       1.115  -1.740   0.737  0.00  0.00    +0.038 A 
ATOM     19  C   UNL     1      -1.373  -2.053   0.838  0.00  0.00    +0.045 C 
ENDBRANCH   1  18
BRANCH   8  20
ATOM     20  C   UNL     1      -0.111  -3.344   6.801  0.00  0.00    +0.001 A 
ATOM     21  C   UNL     1      -1.258  -2.994   7.519  0.00  0.00    +0.013 A 
ATOM     22  C   UNL     1      -1.540  -3.623   8.712  0.00  0.00    +0.046 A 
ATOM     23  C   UNL     1      -0.686  -4.604   9.201  0.00  0.00    +0.120 A 
ATOM     24  C   UNL     1       0.454  -4.955   8.491  0.00  0.00    +0.046 A 
ATOM     25  C   UNL     1       0.741  -4.335   7.294  0.00  0.00    +0.013 A 
BRANCH  23  26
ATOM     26  O   UNL     1      -0.968  -5.221  10.379  0.00  0.00    -0.494 OA
BRANCH  26  27
ATOM     27  C   UNL     1      -0.049  -6.220  10.824  0.00  0.00    +0.210 C 
BRANCH  27  28
ATOM     28  C   UNL     1      -0.529  -6.798  12.156  0.00  0.00    -0.037 C 
BRANCH  28  29
ATOM     29  N   UNL     1      -1.780  -7.539  11.946  0.00  0.00    +0.385 N 
ATOM     30  C   UNL     1      -2.275  -8.042  13.235  0.00  0.00    -0.050 C 
ATOM     31  C   UNL     1      -3.579  -8.812  13.013  0.00  0.00    +0.141 C 
ATOM     32  O   UNL     1      -3.345  -9.878  12.088  0.00  0.00    -0.383 OA
ATOM     33  C   UNL     1      -2.839  -9.441  10.824  0.00  0.00    +0.141 C 
ATOM     34  C   UNL     1      -1.534  -8.671  11.042  0.00  0.00    -0.050 C 
ATOM     35  H   UNL     1      -2.470  -6.926  11.537  0.00  0.00    -0.081 HD
ENDBRANCH  28  29
ENDBRANCH  27  28
ENDBRANCH  26  27
ENDBRANCH  23  26
ENDBRANCH   8  20
TORSDOF 6
