REMARK  Name = CHEMBL418652
REMARK  9 active torsions:
REMARK  status: ('A' for Active; 'I' for Inactive)
REMARK    1  A    between atoms: C_1  and  O_2
REMARK    2  A    between atoms: O_2  and  C_3
REMARK    3  A    between atoms: C_5  and  N_11
REMARK    4  A    between atoms: N_11  and  C_12
REMARK    5  A    between atoms: C_16  and  C_24
REMARK    6  A    between atoms: C_21  and  C_22
REMARK    7  A    between atoms: C_26  and  C_29
REMARK    8  A    between atoms: C_29  and  N_30
REMARK    9  A    between atoms: C_33  and  O_36
REMARK                            x       y       z     vdW  Elec       q    Type
REMARK                         _______ _______ _______ _____ _____    ______ ____
ROOT
ATOM      1  C   UNL     1       2.071   1.788   4.132  0.00  0.00    +0.060 A 
ATOM      2  C   UNL     1       2.814   2.613   5.008  0.00  0.00    +0.023 A 
ATOM      3  C   UNL     1       3.812   2.075   5.836  0.00  0.00    +0.012 A 
ATOM      4  C   UNL     1       4.514   2.887   6.670  0.00  0.00    +0.009 A 
ATOM      5  C   UNL     1       4.252   4.265   6.713  0.00  0.00    -0.015 A 
ATOM      6  C   UNL     1       3.274   4.823   5.908  0.00  0.00    +0.037 A 
ATOM      7  C   UNL     1       2.539   4.002   5.041  0.00  0.00    +0.073 A 
ATOM      8  N   UNL     1       1.588   4.521   4.251  0.00  0.00    -0.254 NA
ATOM      9  C   UNL     1       0.886   3.781   3.432  0.00  0.00    +0.132 A 
ATOM     10  C   UNL     1       1.094   2.396   3.329  0.00  0.00    +0.091 A 
ENDROOT
BRANCH   5  11
ATOM     11  C   UNL     1       5.030   5.132   7.631  0.00  0.00    -0.011 A 
ATOM     12  C   UNL     1       6.022   4.596   8.447  0.00  0.00    +0.021 A 
ATOM     13  C   UNL     1       6.710   5.418   9.271  0.00  0.00    +0.004 A 
ATOM     14  S   UNL     1       5.974   7.006   8.921  0.00  0.00    -0.100 S 
ATOM     15  C   UNL     1       4.794   6.478   7.691  0.00  0.00    +0.054 A 
BRANCH  13  16
ATOM     16  C   UNL     1       7.815   5.080  10.237  0.00  0.00    +0.126 C 
BRANCH  16  17
ATOM     17  N   UNL     1       9.112   5.184   9.555  0.00  0.00    -0.297 NA
ATOM     18  C   UNL     1       9.236   4.167   8.503  0.00  0.00    +0.087 C 
ATOM     19  C   UNL     1      10.531   4.397   7.720  0.00  0.00    +0.046 C 
ATOM     20  C   UNL     1      11.723   4.316   8.678  0.00  0.00    +0.117 C 
ATOM     21  C   UNL     1      11.544   5.354   9.790  0.00  0.00    +0.046 C 
ATOM     22  C   UNL     1      10.220   5.096  10.514  0.00  0.00    +0.087 C 
BRANCH  20  23
ATOM     23  O   UNL     1      12.930   4.587   7.962  0.00  0.00    -0.392 OA
ATOM     24  H   UNL     1      13.727   4.553   8.509  0.00  0.00    +0.210 HD
ENDBRANCH  20  23
ENDBRANCH  16  17
ENDBRANCH  13  16
ENDBRANCH   5  11
BRANCH   1  25
ATOM     25  N   UNL     1       2.303   0.429   4.065  0.00  0.00    -0.312 N 
ATOM     26  H   UNL     1       2.717  -0.030   4.813  0.00  0.00    +0.152 HD
BRANCH  25  29
ATOM     27  C   UNL     1       0.569  -1.934   1.840  0.00  0.00    +0.140 A 
ATOM     28  C   UNL     1       0.924  -1.227   2.978  0.00  0.00    +0.071 A 
ATOM     29  C   UNL     1       1.943  -0.286   2.919  0.00  0.00    +0.053 A 
ATOM     30  C   UNL     1       2.604  -0.055   1.717  0.00  0.00    +0.064 A 
ATOM     31  C   UNL     1       2.247  -0.762   0.585  0.00  0.00    +0.045 A 
ATOM     32  C   UNL     1       1.236  -1.704   0.644  0.00  0.00    +0.084 A 
ATOM     33 CL   UNL     1       0.796  -2.595  -0.779  0.00  0.00    -0.080 Cl
ATOM     34 CL   UNL     1       3.878   1.122   1.641  0.00  0.00    -0.082 Cl
BRANCH  27  36
ATOM     35  C   UNL     1      -1.148  -2.959   3.126  0.00  0.00    +0.277 C 
ATOM     36  O   UNL     1      -0.428  -2.856   1.896  0.00  0.00    -0.494 OA
ENDBRANCH  27  36
ENDBRANCH  25  29
ENDBRANCH   1  25
BRANCH  10  37
ATOM     37  C   UNL     1       0.315   1.613   2.419  0.00  0.00    +0.103 C 
ATOM     38  N   UNL     1      -0.304   0.991   1.697  0.00  0.00    -0.191 NA
ENDBRANCH  10  37
TORSDOF 8
