REMARK  Name = CHEMBL221582
REMARK  5 active torsions:
REMARK  status: ('A' for Active; 'I' for Inactive)
REMARK    1  A    between atoms: C_1  and  C_2
REMARK    2  A    between atoms: C_6  and  C_26
REMARK    3  A    between atoms: C_7  and  C_8
REMARK    4  A    between atoms: C_10  and  C_25
REMARK    5  A    between atoms: N_18  and  C_19
REMARK                            x       y       z     vdW  Elec       q    Type
REMARK                         _______ _______ _______ _____ _____    ______ ____
ROOT
ATOM      1  C   UNL     1      -0.066  -0.122   2.577  0.00  0.00    -0.015 A 
ATOM      2  C   UNL     1       0.939  -0.386   3.523  0.00  0.00    +0.014 A 
ATOM      3  C   UNL     1       0.961   0.265   4.715  0.00  0.00    -0.022 A 
ATOM      4  C   UNL     1      -0.029   1.215   5.014  0.00  0.00    +0.097 A 
ATOM      5  C   UNL     1      -1.050   1.490   4.065  0.00  0.00    +0.112 A 
ATOM      6  C   UNL     1      -1.052   0.811   2.838  0.00  0.00    +0.040 A 
ATOM      7  N   UNL     1      -1.986   2.398   4.366  0.00  0.00    -0.144 NA
ATOM      8  N   UNL     1      -1.948   3.006   5.502  0.00  0.00    -0.112 NA
ATOM      9  C   UNL     1      -0.996   2.760   6.404  0.00  0.00    +0.240 A 
ATOM     10  N   UNL     1      -0.040   1.877   6.177  0.00  0.00    -0.211 NA
ATOM     11  N   UNL     1      -1.010   3.447   7.607  0.00  0.00    -0.282 N 
ATOM     12  C   UNL     1       2.048  -0.032   5.716  0.00  0.00    +0.046 C 
ATOM     13  H   UNL     1      -0.279   3.339   8.236  0.00  0.00    +0.155 HD
ENDROOT
BRANCH   1  20
ATOM     14  C   UNL     1       0.363   1.336   0.115  0.00  0.00    +0.044 C 
ATOM     15  C   UNL     1       0.140  -0.155   0.092  0.00  0.00    -0.042 A 
ATOM     16  C   UNL     1       0.146  -0.836  -1.108  0.00  0.00    +0.004 A 
ATOM     17  C   UNL     1      -0.059  -2.204  -1.131  0.00  0.00    +0.001 A 
ATOM     18  C   UNL     1      -0.269  -2.897   0.048  0.00  0.00    +0.004 A 
ATOM     19  C   UNL     1      -0.277  -2.225   1.254  0.00  0.00    -0.042 A 
ATOM     20  C   UNL     1      -0.066  -0.848   1.283  0.00  0.00    -0.012 A 
ATOM     21  C   UNL     1      -0.508  -2.981   2.537  0.00  0.00    +0.044 C 
ENDBRANCH   1  20
BRANCH  11  22
ATOM     22  C   UNL     1      -2.074   4.293   7.913  0.00  0.00    +0.036 A 
ATOM     23  C   UNL     1      -3.373   3.982   7.514  0.00  0.00    +0.043 A 
ATOM     24  C   UNL     1      -4.398   4.846   7.837  0.00  0.00    +0.112 A 
ATOM     25  N   UNL     1      -4.162   5.954   8.514  0.00  0.00    -0.263 NA
ATOM     26  C   UNL     1      -2.946   6.284   8.909  0.00  0.00    +0.112 A 
ATOM     27  C   UNL     1      -1.867   5.471   8.632  0.00  0.00    +0.043 A 
ENDBRANCH  11  22
TORSDOF 2
