REMARK  Name = CHEMBL1088120
REMARK  13 active torsions:
REMARK  status: ('A' for Active; 'I' for Inactive)
REMARK    1  A    between atoms: C_1  and  O_2
REMARK    2  A    between atoms: O_2  and  C_3
REMARK    3  A    between atoms: C_8  and  C_9
REMARK    4  A    between atoms: C_10  and  C_11
REMARK    5  A    between atoms: C_11  and  C_12
REMARK    6  A    between atoms: C_12  and  C_13
REMARK    7  A    between atoms: C_13  and  C_14
REMARK    8  A    between atoms: C_14  and  N_15
REMARK    9  A    between atoms: C_23  and  C_36
REMARK   10  A    between atoms: C_24  and  N_25
REMARK   11  A    between atoms: N_25  and  C_26
REMARK   12  A    between atoms: C_28  and  O_34
REMARK   13  A    between atoms: O_34  and  C_35
REMARK                            x       y       z     vdW  Elec       q    Type
REMARK                         _______ _______ _______ _____ _____    ______ ____
ROOT
ATOM      1  C   UNL     1      -0.103  -0.400  -1.406  0.00  0.00    +0.128 A 
ATOM      2  C   UNL     1       0.680   0.302  -2.276  0.00  0.00    +0.058 A 
ATOM      3  C   UNL     1       1.381  -0.371  -3.287  0.00  0.00    +0.026 A 
ATOM      4  C   UNL     1       1.278  -1.778  -3.406  0.00  0.00    +0.074 A 
ATOM      5  C   UNL     1       0.470  -2.485  -2.505  0.00  0.00    +0.040 A 
ATOM      6  C   UNL     1      -0.209  -1.801  -1.510  0.00  0.00    +0.018 A 
ATOM      7  N   UNL     1       1.950  -2.425  -4.371  0.00  0.00    -0.254 NA
ATOM      8  C   UNL     1       2.713  -1.796  -5.227  0.00  0.00    +0.132 A 
ATOM      9  C   UNL     1       2.873  -0.401  -5.183  0.00  0.00    +0.091 A 
ATOM     10  C   UNL     1       2.199   0.337  -4.199  0.00  0.00    +0.060 A 
ENDROOT
BRANCH   1  12
ATOM     11  C   UNL     1      -0.631   1.676  -0.376  0.00  0.00    +0.277 C 
ATOM     12  O   UNL     1      -0.781   0.256  -0.428  0.00  0.00    -0.495 OA
ENDBRANCH   1  12
BRANCH   6  13
ATOM     13  C   UNL     1      -1.056  -2.545  -0.556  0.00  0.00    +0.007 C 
ATOM     14  C   UNL     1      -1.159  -3.864  -0.650  0.00  0.00    -0.026 C 
BRANCH  14  15
ATOM     15  C   UNL     1      -2.023  -4.623   0.324  0.00  0.00    +0.027 C 
BRANCH  15  16
ATOM     16  C   UNL     1      -3.041  -5.466  -0.447  0.00  0.00    +0.002 C 
BRANCH  16  17
ATOM     17  C   UNL     1      -3.918  -6.237   0.542  0.00  0.00    -0.018 C 
BRANCH  17  18
ATOM     18  C   UNL     1      -4.937  -7.079  -0.229  0.00  0.00    -0.079 C 
BRANCH  18  19
ATOM     19  N   UNL     1      -5.779  -7.819   0.720  0.00  0.00    +0.383 N 
ATOM     20  C   UNL     1      -4.953  -8.787   1.456  0.00  0.00    -0.050 C 
ATOM     21  C   UNL     1      -5.833  -9.556   2.445  0.00  0.00    +0.141 C 
ATOM     22  O   UNL     1      -6.890 -10.203   1.731  0.00  0.00    -0.383 OA
ATOM     23  C   UNL     1      -7.708  -9.304   0.978  0.00  0.00    +0.141 C 
ATOM     24  C   UNL     1      -6.832  -8.534  -0.013  0.00  0.00    -0.050 C 
ATOM     25  H   UNL     1      -6.201  -7.173   1.371  0.00  0.00    -0.082 HD
ENDBRANCH  18  19
ENDBRANCH  17  18
ENDBRANCH  16  17
ENDBRANCH  15  16
ENDBRANCH  14  15
ENDBRANCH   6  13
BRANCH  10  26
ATOM     26  N   UNL     1       2.330   1.709  -4.122  0.00  0.00    -0.312 N 
ATOM     27  H   UNL     1       2.148   2.168  -3.287  0.00  0.00    +0.152 HD
BRANCH  26  28
ATOM     28  C   UNL     1       2.725   2.438  -5.248  0.00  0.00    +0.053 A 
ATOM     29  C   UNL     1       3.957   3.077  -5.265  0.00  0.00    +0.071 A 
ATOM     30  C   UNL     1       4.346   3.799  -6.382  0.00  0.00    +0.140 A 
ATOM     31  C   UNL     1       3.503   3.881  -7.483  0.00  0.00    +0.084 A 
ATOM     32  C   UNL     1       2.276   3.244  -7.465  0.00  0.00    +0.045 A 
ATOM     33  C   UNL     1       1.887   2.518  -6.355  0.00  0.00    +0.064 A 
ATOM     34 CL   UNL     1       0.349   1.714  -6.338  0.00  0.00    -0.082 Cl
ATOM     35 CL   UNL     1       3.990   4.785  -8.883  0.00  0.00    -0.080 Cl
BRANCH  30  36
ATOM     36  O   UNL     1       5.552   4.426  -6.401  0.00  0.00    -0.494 OA
ATOM     37  C   UNL     1       6.415   4.205  -5.284  0.00  0.00    +0.277 C 
ENDBRANCH  30  36
ENDBRANCH  26  28
ENDBRANCH  10  26
BRANCH   9  38
ATOM     38  C   UNL     1       3.716   0.261  -6.133  0.00  0.00    +0.103 C 
ATOM     39  N   UNL     1       4.385   0.786  -6.886  0.00  0.00    -0.191 NA
ENDBRANCH   9  38
TORSDOF 11
