REMARK  Name = CHEMBL510893
REMARK  8 active torsions:
REMARK  status: ('A' for Active; 'I' for Inactive)
REMARK    1  A    between atoms: C_1  and  C_2
REMARK    2  A    between atoms: C_7  and  C_8
REMARK    3  A    between atoms: C_9  and  N_10
REMARK    4  A    between atoms: C_18  and  N_19
REMARK    5  A    between atoms: N_19  and  C_20
REMARK    6  A    between atoms: C_23  and  P_26
REMARK    7  A    between atoms: P_26  and  C_28
REMARK    8  A    between atoms: P_26  and  C_29
REMARK                            x       y       z     vdW  Elec       q    Type
REMARK                         _______ _______ _______ _____ _____    ______ ____
ROOT
ATOM      1  N   UNL     1       0.591   2.072   3.712  0.00  0.00    -0.290 N 
ATOM      2  C   UNL     1      -0.303   1.923   4.734  0.00  0.00    +0.206 A 
ATOM      3  N   UNL     1       0.066   2.640   5.755  0.00  0.00    -0.230 NA
ATOM      4  C   UNL     1       1.215   3.293   5.459  0.00  0.00    +0.148 A 
ATOM      5  C   UNL     1       1.570   2.934   4.147  0.00  0.00    +0.169 A 
ATOM      6  N   UNL     1       2.676   3.443   3.615  0.00  0.00    -0.216 NA
ATOM      7  C   UNL     1       3.433   4.270   4.304  0.00  0.00    +0.225 A 
ATOM      8  N   UNL     1       3.143   4.634   5.540  0.00  0.00    -0.218 NA
ATOM      9  C   UNL     1       2.053   4.183   6.152  0.00  0.00    +0.154 A 
ENDROOT
BRANCH   1  11
ATOM     10  C   UNL     1      -0.488   0.641   2.175  0.00  0.00    +0.027 C 
ATOM     11  C   UNL     1       0.527   1.461   2.465  0.00  0.00    +0.095 C 
BRANCH  10  18
ATOM     12  C   UNL     1      -0.193   2.235  -0.208  0.00  0.00    +0.044 C 
ATOM     13  C   UNL     1      -0.417   0.748  -0.305  0.00  0.00    -0.043 A 
ATOM     14  C   UNL     1      -0.475   0.139  -1.549  0.00  0.00    +0.006 A 
ATOM     15  C   UNL     1      -0.678  -1.219  -1.660  0.00  0.00    +0.028 A 
ATOM     16  C   UNL     1      -0.828  -2.001  -0.516  0.00  0.00    +0.066 A 
ATOM     17  C   UNL     1      -0.771  -1.400   0.753  0.00  0.00    +0.027 A 
ATOM     18  C   UNL     1      -0.557  -0.007   0.854  0.00  0.00    -0.010 A 
ATOM     19  C   UNL     1      -0.953  -2.428   1.705  0.00  0.00    +0.143 A 
ATOM     20  N   UNL     1      -1.107  -3.558   1.075  0.00  0.00    -0.181 NA
ATOM     21  N   UNL     1      -1.037  -3.341  -0.307  0.00  0.00    -0.277 N 
ATOM     22  H   UNL     1      -1.121  -4.019  -0.995  0.00  0.00    +0.189 HD
ENDBRANCH  10  18
ENDBRANCH   1  11
BRANCH   9  23
ATOM     23  N   UNL     1       1.757   4.569   7.449  0.00  0.00    -0.298 N 
ATOM     24  H   UNL     1       1.013   4.162   7.919  0.00  0.00    +0.154 HD
BRANCH  23  25
ATOM     25  C   UNL     1       2.532   5.545   8.081  0.00  0.00    +0.032 A 
ATOM     26  C   UNL     1       3.077   6.588   7.342  0.00  0.00    +0.024 A 
ATOM     27  C   UNL     1       3.842   7.551   7.970  0.00  0.00    +0.013 A 
ATOM     28  C   UNL     1       4.066   7.478   9.332  0.00  0.00    +0.011 A 
ATOM     29  C   UNL     1       3.526   6.442  10.071  0.00  0.00    +0.013 A 
ATOM     30  C   UNL     1       2.754   5.479   9.451  0.00  0.00    +0.024 A 
BRANCH  28  31
ATOM     31  P   UNL     1       5.073   8.745  10.153  0.00  0.00    +0.111 P 
ATOM     32  O   UNL     1       4.933  10.030   9.431  0.00  0.00    -0.317 OA
ATOM     33  C   UNL     1       4.507   8.951  11.873  0.00  0.00    +0.085 C 
ATOM     34  C   UNL     1       6.822   8.231  10.145  0.00  0.00    +0.085 C 
ENDBRANCH  28  31
ENDBRANCH  23  25
ENDBRANCH   9  23
TORSDOF 5
