REMARK  Name = CHEMBL398610
REMARK  7 active torsions:
REMARK  status: ('A' for Active; 'I' for Inactive)
REMARK    1  A    between atoms: C_1  and  C_2
REMARK    2  A    between atoms: C_2  and  O_3
REMARK    3  A    between atoms: O_3  and  C_4
REMARK    4  A    between atoms: C_10  and  C_14
REMARK    5  A    between atoms: N_12  and  C_13
REMARK    6  A    between atoms: C_16  and  C_21
REMARK    7  A    between atoms: C_22  and  C_26
REMARK                            x       y       z     vdW  Elec       q    Type
REMARK                         _______ _______ _______ _____ _____    ______ ____
ROOT
ATOM      1  C   UNL     1       1.287  -1.898   1.118  0.00  0.00    +0.130 A 
ATOM      2  C   UNL     1       0.903  -2.774   0.118  0.00  0.00    +0.046 A 
ATOM      3  C   UNL     1       0.881  -4.139   0.358  0.00  0.00    +0.006 A 
ATOM      4  C   UNL     1       1.240  -4.642   1.590  0.00  0.00    +0.026 A 
ATOM      5  C   UNL     1       1.629  -3.778   2.610  0.00  0.00    +0.053 A 
ATOM      6  C   UNL     1       1.657  -2.398   2.367  0.00  0.00    +0.049 A 
ATOM      7  C   UNL     1       2.113  -1.775   3.627  0.00  0.00    +0.004 A 
ATOM      8  C   UNL     1       2.326  -2.820   4.515  0.00  0.00    +0.094 A 
ATOM      9  N   UNL     1       2.031  -3.985   3.915  0.00  0.00    -0.349 N 
ATOM     10  C   UNL     1       2.140  -5.300   4.553  0.00  0.00    +0.149 C 
ENDROOT
BRANCH   7  11
ATOM     11  C   UNL     1       2.295  -0.404   3.875  0.00  0.00    +0.025 C 
ATOM     12  C   UNL     1       3.354   0.026   4.676  0.00  0.00    +0.072 C 
ATOM     13  C   UNL     1       3.624   1.385   5.183  0.00  0.00    +0.116 C 
ATOM     14  N   UNL     1       4.736   1.283   5.891  0.00  0.00    -0.144 NA
ATOM     15  N   UNL     1       5.183   0.084   5.895  0.00  0.00    -0.105 NA
ATOM     16  C   UNL     1       4.428  -0.743   5.204  0.00  0.00    +0.298 C 
ATOM     17  O   UNL     1       4.635  -2.073   5.027  0.00  0.00    -0.264 OA
BRANCH  13  18
ATOM     18  C   UNL     1       2.822   2.601   4.948  0.00  0.00    +0.083 A 
ATOM     19  C   UNL     1       3.026   3.903   5.390  0.00  0.00    +0.078 A 
ATOM     20  N   UNL     1       2.112   4.758   4.997  0.00  0.00    -0.146 NA
ATOM     21  N   UNL     1       1.115   4.409   4.264  0.00  0.00    -0.110 NA
ATOM     22  S   UNL     1       1.320   2.821   4.010  0.00  0.00    +0.038 S 
ATOM     23  C   UNL     1       4.198   4.299   6.250  0.00  0.00    +0.069 C 
ENDBRANCH  13  18
ENDBRANCH   7  11
BRANCH   1  24
ATOM     24  O   UNL     1       1.309  -0.560   0.884  0.00  0.00    -0.492 OA
BRANCH  24  26
ATOM     25  C   UNL     1       1.004   1.403  -0.493  0.00  0.00    +0.048 C 
ATOM     26  C   UNL     1       0.916  -0.123  -0.419  0.00  0.00    +0.226 C 
ENDBRANCH  24  26
ENDBRANCH   1  24
TORSDOF 4
