REMARK  Name = CHEMBL296534
REMARK  5 active torsions:
REMARK  status: ('A' for Active; 'I' for Inactive)
REMARK    1  A    between atoms: C_4  and  O_7
REMARK    2  A    between atoms: O_7  and  C_8
REMARK    3  A    between atoms: C_11  and  C_14
REMARK    4  A    between atoms: N_16  and  C_24
REMARK    5  A    between atoms: C_19  and  N_23
REMARK                            x       y       z     vdW  Elec       q    Type
REMARK                         _______ _______ _______ _____ _____    ______ ____
ROOT
ATOM      1  C   UNL     1       3.882  -6.235   0.069  0.00  0.00    +0.012 A 
ATOM      2  C   UNL     1       3.190  -7.068   0.885  0.00  0.00    +0.097 A 
ATOM      3  N   UNL     1       3.531  -8.366   0.613  0.00  0.00    -0.325 N 
ATOM      4  C   UNL     1       4.459  -8.412  -0.392  0.00  0.00    +0.147 A 
ATOM      5  C   UNL     1       4.720  -7.087  -0.784  0.00  0.00    +0.066 A 
ATOM      6  C   UNL     1       5.642  -6.858  -1.814  0.00  0.00    +0.129 A 
ATOM      7  N   UNL     1       6.231  -7.908  -2.379  0.00  0.00    -0.220 NA
ATOM      8  C   UNL     1       5.956  -9.137  -1.982  0.00  0.00    +0.225 A 
ATOM      9  N   UNL     1       5.102  -9.398  -1.016  0.00  0.00    -0.218 NA
ENDROOT
BRANCH   1  13
ATOM     10  C   UNL     1       3.657  -1.988  -0.011  0.00  0.00    +0.128 A 
ATOM     11  C   UNL     1       2.493  -2.744  -0.046  0.00  0.00    +0.047 A 
ATOM     12  C   UNL     1       2.563  -4.122  -0.021  0.00  0.00    +0.012 A 
ATOM     13  C   UNL     1       3.804  -4.755   0.041  0.00  0.00    -0.015 A 
ATOM     14  C   UNL     1       4.971  -3.993   0.075  0.00  0.00    +0.012 A 
ATOM     15  C   UNL     1       4.895  -2.616   0.044  0.00  0.00    +0.047 A 
BRANCH  10  16
ATOM     16  O   UNL     1       3.586  -0.632  -0.037  0.00  0.00    -0.456 OA
BRANCH  16  20
ATOM     17  C   UNL     1       3.337   1.363   3.565  0.00  0.00    +0.000 A 
ATOM     18  C   UNL     1       3.419  -0.017   3.545  0.00  0.00    +0.004 A 
ATOM     19  C   UNL     1       3.502  -0.687   2.340  0.00  0.00    +0.046 A 
ATOM     20  C   UNL     1       3.503   0.025   1.149  0.00  0.00    +0.128 A 
ATOM     21  C   UNL     1       3.420   1.410   1.173  0.00  0.00    +0.046 A 
ATOM     22  C   UNL     1       3.337   2.076   2.380  0.00  0.00    +0.004 A 
ENDBRANCH  16  20
ENDBRANCH  10  16
ENDBRANCH   1  13
BRANCH   3  23
ATOM     23  C   UNL     1       2.982  -9.537   1.299  0.00  0.00    +0.132 C 
ATOM     24  C   UNL     1       3.215  -9.428   2.824  0.00  0.00    +0.138 C 
ATOM     25  N   UNL     1       1.925  -8.874   3.318  0.00  0.00    -0.199 NA
ATOM     26  O   UNL     1       0.907  -9.540   2.480  0.00  0.00    -0.298 OA
ATOM     27  C   UNL     1       1.448  -9.581   1.147  0.00  0.00    +0.211 C 
ATOM     28  H   UNL     1       1.789  -9.092   4.294  0.00  0.00    +0.154 HD
ENDBRANCH   3  23
BRANCH   6  29
ATOM     29  N   UNL     1       5.933  -5.572  -2.232  0.00  0.00    -0.343 N 
ATOM     30  H   UNL     1       5.496  -4.815  -1.812  0.00  0.00    +0.144 HD
ATOM     31  H   UNL     1       6.574  -5.427  -2.946  0.00  0.00    +0.144 HD
ENDBRANCH   6  29
TORSDOF 5
