REMARK  Name = CHEMBL305223
REMARK  7 active torsions:
REMARK  status: ('A' for Active; 'I' for Inactive)
REMARK    1  A    between atoms: C_1  and  S_2
REMARK    2  A    between atoms: S_2  and  C_5
REMARK    3  A    between atoms: C_8  and  C_11
REMARK    4  A    between atoms: C_16  and  O_29
REMARK    5  A    between atoms: C_17  and  O_28
REMARK    6  A    between atoms: C_22  and  O_27
REMARK    7  A    between atoms: C_23  and  O_26
REMARK                            x       y       z     vdW  Elec       q    Type
REMARK                         _______ _______ _______ _____ _____    ______ ____
ROOT
ATOM      1  C   UNL     1       2.878  -1.483  -5.062  0.00  0.00    +0.263 C 
ATOM      2  O   UNL     1       2.156  -2.410  -4.750  0.00  0.00    -0.267 OA
ATOM      3  N   UNL     1       4.210  -1.667  -5.154  0.00  0.00    -0.272 N 
ATOM      4  C   UNL     1       5.099  -1.595  -4.088  0.00  0.00    +0.062 A 
ATOM      5  C   UNL     1       4.915  -1.337  -2.735  0.00  0.00    +0.076 A 
ATOM      6  C   UNL     1       6.000  -1.326  -1.877  0.00  0.00    +0.160 A 
ATOM      7  C   UNL     1       7.284  -1.572  -2.362  0.00  0.00    +0.159 A 
ATOM      8  C   UNL     1       7.480  -1.829  -3.705  0.00  0.00    +0.059 A 
ATOM      9  C   UNL     1       6.390  -1.843  -4.574  0.00  0.00    +0.012 A 
ATOM     10  C   UNL     1       6.258  -2.077  -6.025  0.00  0.00    +0.012 A 
ATOM     11  C   UNL     1       4.894  -1.962  -6.327  0.00  0.00    +0.103 A 
ATOM     12  C   UNL     1       4.468  -2.143  -7.641  0.00  0.00    +0.183 A 
ATOM     13  C   UNL     1       5.391  -2.436  -8.635  0.00  0.00    +0.160 A 
ATOM     14  C   UNL     1       6.741  -2.552  -8.328  0.00  0.00    +0.050 A 
ATOM     15  C   UNL     1       7.176  -2.368  -7.032  0.00  0.00    +0.014 A 
ENDROOT
BRANCH   1  19
ATOM     16  C   UNL     1       1.202   2.336  -5.865  0.00  0.00    +0.088 A 
ATOM     17  C   UNL     1       0.371   1.258  -5.612  0.00  0.00    +0.027 A 
ATOM     18  C   UNL     1       0.909   0.015  -5.351  0.00  0.00    +0.015 A 
ATOM     19  C   UNL     1       2.295  -0.154  -5.342  0.00  0.00    +0.040 A 
ATOM     20  C   UNL     1       3.127   0.937  -5.598  0.00  0.00    +0.015 A 
ATOM     21  C   UNL     1       2.576   2.174  -5.863  0.00  0.00    +0.027 A 
BRANCH  16  23
ATOM     22  C   UNL     1       0.280   3.962  -7.996  0.00  0.00    +0.200 C 
ATOM     23  S   UNL     1       0.506   3.920  -6.197  0.00  0.00    -0.006 S 
ATOM     24  O   UNL     1       1.512   4.846  -5.808  0.00  0.00    -0.170 OA
ATOM     25  O   UNL     1      -0.756   3.906  -5.545  0.00  0.00    -0.170 OA
ENDBRANCH  16  23
ENDBRANCH   1  19
BRANCH  13  26
ATOM     26  O   UNL     1       4.972  -2.612  -9.916  0.00  0.00    -0.503 OA
ATOM     27  H   UNL     1       4.959  -1.800 -10.441  0.00  0.00    +0.292 HD
ENDBRANCH  13  26
BRANCH  12  28
ATOM     28  O   UNL     1       3.147  -2.031  -7.949  0.00  0.00    -0.502 OA
ATOM     29  H   UNL     1       2.874  -1.136  -8.192  0.00  0.00    +0.292 HD
ENDBRANCH  12  28
BRANCH   7  30
ATOM     30  O   UNL     1       8.345  -1.559  -1.511  0.00  0.00    -0.503 OA
ATOM     31  H   UNL     1       8.543  -2.419  -1.115  0.00  0.00    +0.292 HD
ENDBRANCH   7  30
BRANCH   6  32
ATOM     32  O   UNL     1       5.813  -1.072  -0.554  0.00  0.00    -0.503 OA
ATOM     33  H   UNL     1       5.650  -1.863  -0.022  0.00  0.00    +0.292 HD
ENDBRANCH   6  32
TORSDOF 6
