REMARK  Name = CHEMBL377481
REMARK  8 active torsions:
REMARK  status: ('A' for Active; 'I' for Inactive)
REMARK    1  A    between atoms: C_1  and  C_2
REMARK    2  A    between atoms: C_6  and  C_42
REMARK    3  A    between atoms: C_7  and  O_8
REMARK    4  A    between atoms: O_8  and  C_9
REMARK    5  A    between atoms: N_11  and  C_12
REMARK    6  A    between atoms: N_28  and  C_29
REMARK    7  A    between atoms: C_32  and  N_35
REMARK    8  A    between atoms: N_38  and  C_41
REMARK                            x       y       z     vdW  Elec       q    Type
REMARK                         _______ _______ _______ _____ _____    ______ ____
ROOT
ATOM      1  C   UNL     1      -1.883   1.665   3.271  0.00  0.00    +0.418 C 
ATOM      2  O   UNL     1      -2.937   1.250   2.832  0.00  0.00    -0.225 OA
ATOM      3  N   UNL     1      -1.183   0.926   4.155  0.00  0.00    -0.189 N 
ATOM      4  C   UNL     1       0.072   1.352   4.579  0.00  0.00    +0.140 A 
ATOM      5  C   UNL     1       1.211   1.050   3.832  0.00  0.00    +0.064 A 
ATOM      6  C   UNL     1       2.437   1.493   4.290  0.00  0.00    +0.118 A 
ATOM      7  N   UNL     1       2.495   2.187   5.417  0.00  0.00    -0.223 NA
ATOM      8  C   UNL     1       1.396   2.459   6.106  0.00  0.00    +0.221 A 
ATOM      9  N   UNL     1       0.202   2.057   5.697  0.00  0.00    -0.198 NA
ATOM     10  N   UNL     1       1.498   3.186   7.280  0.00  0.00    -0.284 N 
ATOM     11  H   UNL     1       0.698   3.433   7.769  0.00  0.00    +0.155 HD
ENDROOT
BRANCH   3  12
ATOM     12  C   UNL     1      -1.720  -0.270   4.648  0.00  0.00    +0.047 A 
ATOM     13  C   UNL     1      -2.054  -0.373   6.003  0.00  0.00    +0.024 A 
ATOM     14  C   UNL     1      -2.576  -1.521   6.509  0.00  0.00    +0.010 A 
ATOM     15  C   UNL     1      -2.787  -2.626   5.665  0.00  0.00    -0.018 A 
ATOM     16  C   UNL     1      -3.326  -3.826   6.160  0.00  0.00    +0.008 A 
ATOM     17  C   UNL     1      -3.518  -4.877   5.316  0.00  0.00    +0.001 A 
ATOM     18  C   UNL     1      -3.187  -4.783   3.966  0.00  0.00    +0.001 A 
ATOM     19  C   UNL     1      -2.664  -3.637   3.451  0.00  0.00    +0.008 A 
ATOM     20  C   UNL     1      -2.452  -2.530   4.291  0.00  0.00    -0.016 A 
ATOM     21  C   UNL     1      -1.918  -1.331   3.793  0.00  0.00    +0.032 A 
ENDBRANCH   3  12
BRANCH  10  22
ATOM     22  C   UNL     1       2.758   3.566   7.762  0.00  0.00    +0.034 A 
ATOM     23  C   UNL     1       3.764   3.918   6.872  0.00  0.00    +0.025 A 
ATOM     24  C   UNL     1       5.005   4.293   7.346  0.00  0.00    +0.025 A 
ATOM     25  C   UNL     1       5.248   4.318   8.713  0.00  0.00    +0.030 A 
ATOM     26  C   UNL     1       4.241   3.967   9.603  0.00  0.00    +0.025 A 
ATOM     27  C   UNL     1       2.998   3.597   9.129  0.00  0.00    +0.025 A 
BRANCH  25  28
ATOM     28  N   UNL     1       6.506   4.698   9.194  0.00  0.00    -0.327 N 
ATOM     29  C   UNL     1       6.830   4.595  10.625  0.00  0.00    +0.120 C 
ATOM     30  C   UNL     1       8.151   3.833  10.772  0.00  0.00    +0.103 C 
ATOM     31  N   UNL     1       9.180   4.480   9.947  0.00  0.00    -0.302 NA
ATOM     32  C   UNL     1       8.833   4.424   8.521  0.00  0.00    +0.103 C 
ATOM     33  C   UNL     1       7.542   5.205   8.281  0.00  0.00    +0.120 C 
ATOM     34  C   UNL     1      10.501   3.886  10.191  0.00  0.00    +0.105 C 
ENDBRANCH  25  28
ENDBRANCH  10  22
BRANCH   1  35
ATOM     35  O   UNL     1      -1.413   2.863   2.874  0.00  0.00    -0.410 OA
BRANCH  35  42
ATOM     36  C   UNL     1      -3.342   4.649   3.907  0.00  0.00    +0.047 C 
ATOM     37  C   UNL     1      -3.113   4.466   2.429  0.00  0.00    -0.008 A 
ATOM     38  C   UNL     1      -3.858   5.192   1.520  0.00  0.00    +0.007 A 
ATOM     39  C   UNL     1      -3.648   5.025   0.163  0.00  0.00    +0.001 A 
ATOM     40  C   UNL     1      -2.694   4.132  -0.287  0.00  0.00    +0.007 A 
ATOM     41  C   UNL     1      -1.946   3.404   0.619  0.00  0.00    -0.008 A 
ATOM     42  C   UNL     1      -2.151   3.574   1.981  0.00  0.00    +0.139 A 
ATOM     43  C   UNL     1      -0.906   2.430   0.128  0.00  0.00    +0.047 C 
ENDBRANCH  35  42
ENDBRANCH   1  35
TORSDOF 5
