REMARK  Name = CHEMBL369899
REMARK  10 active torsions:
REMARK  status: ('A' for Active; 'I' for Inactive)
REMARK    1  A    between atoms: C_1  and  O_2
REMARK    2  A    between atoms: O_2  and  C_3
REMARK    3  A    between atoms: C_5  and  N_10
REMARK    4  A    between atoms: C_15  and  O_25
REMARK    5  A    between atoms: C_17  and  O_18
REMARK    6  A    between atoms: O_18  and  C_19
REMARK    7  A    between atoms: O_25  and  C_26
REMARK    8  A    between atoms: C_26  and  C_27
REMARK    9  A    between atoms: C_27  and  C_28
REMARK   10  A    between atoms: C_28  and  N_29
REMARK                            x       y       z     vdW  Elec       q    Type
REMARK                         _______ _______ _______ _____ _____    ______ ____
ROOT
ATOM      1  N   UNL     1       1.648  -4.052   2.099  0.00  0.00    -0.296 N 
ATOM      2  C   UNL     1       0.814  -4.838   1.331  0.00  0.00    +0.137 A 
ATOM      3  C   UNL     1       0.605  -6.199   1.648  0.00  0.00    +0.082 A 
ATOM      4  C   UNL     1      -0.263  -6.954   0.821  0.00  0.00    +0.083 A 
ATOM      5  C   UNL     1      -0.489  -8.304   1.110  0.00  0.00    +0.074 A 
ATOM      6  C   UNL     1       0.136  -8.885   2.195  0.00  0.00    +0.126 A 
ATOM      7  C   UNL     1       0.992  -8.143   3.010  0.00  0.00    +0.092 A 
ATOM      8  C   UNL     1       1.231  -6.811   2.748  0.00  0.00    +0.137 A 
ATOM      9  N   UNL     1      -0.849  -6.347  -0.223  0.00  0.00    -0.235 NA
ATOM     10  C   UNL     1      -0.618  -5.079  -0.470  0.00  0.00    +0.223 A 
ATOM     11  N   UNL     1       0.181  -4.335   0.278  0.00  0.00    -0.220 NA
ATOM     12  H   UNL     1       2.042  -4.410   2.910  0.00  0.00    +0.154 HD
ENDROOT
BRANCH   1  15
ATOM     13  C   UNL     1       2.172  -1.061   0.025  0.00  0.00    +0.140 A 
ATOM     14  C   UNL     1       1.888  -2.380   0.364  0.00  0.00    +0.073 A 
ATOM     15  C   UNL     1       1.927  -2.739   1.707  0.00  0.00    +0.073 A 
ATOM     16  C   UNL     1       2.246  -1.773   2.656  0.00  0.00    +0.150 A 
ATOM     17  N   UNL     1       2.509  -0.533   2.294  0.00  0.00    -0.238 NA
ATOM     18  C   UNL     1       2.487  -0.158   1.029  0.00  0.00    +0.158 A 
ATOM     19 CL   UNL     1       2.298  -2.205   4.337  0.00  0.00    -0.060 Cl
BRANCH  13  21
ATOM     20  C   UNL     1       2.457   0.705  -1.541  0.00  0.00    +0.277 C 
ATOM     21  O   UNL     1       2.147  -0.664  -1.275  0.00  0.00    -0.494 OA
ENDBRANCH  13  21
ENDBRANCH   1  15
BRANCH   8  22
ATOM     22  O   UNL     1       2.065  -6.096   3.545  0.00  0.00    -0.488 OA
BRANCH  22  23
ATOM     23  C   UNL     1       2.779  -6.819   4.550  0.00  0.00    +0.178 C 
ATOM     24  C   UNL     1       1.897  -6.972   5.794  0.00  0.00    +0.072 C 
ATOM     25  C   UNL     1       2.697  -7.677   6.893  0.00  0.00    +0.163 C 
ATOM     26  O   UNL     1       3.880  -6.926   7.175  0.00  0.00    -0.380 OA
ATOM     27  C   UNL     1       4.765  -6.791   6.061  0.00  0.00    +0.163 C 
ATOM     28  C   UNL     1       4.048  -6.050   4.929  0.00  0.00    +0.072 C 
ENDBRANCH  22  23
ENDBRANCH   8  22
BRANCH   6  29
ATOM     29  O   UNL     1      -0.085 -10.196   2.473  0.00  0.00    -0.492 OA
BRANCH  29  30
ATOM     30  C   UNL     1      -0.971 -10.903   1.603  0.00  0.00    +0.230 C 
BRANCH  30  31
ATOM     31  C   UNL     1      -1.095 -12.354   2.071  0.00  0.00    +0.056 C 
BRANCH  31  32
ATOM     32  C   UNL     1      -2.044 -13.111   1.140  0.00  0.00    +0.088 C 
BRANCH  32  33
ATOM     33  N   UNL     1      -2.163 -14.505   1.590  0.00  0.00    -0.298 NA
ATOM     34  C   UNL     1      -0.887 -15.219   1.435  0.00  0.00    +0.112 C 
ATOM     35  C   UNL     1      -1.040 -16.646   1.970  0.00  0.00    +0.175 C 
ATOM     36  O   UNL     1      -2.111 -17.296   1.281  0.00  0.00    -0.377 OA
ATOM     37  C   UNL     1      -3.369 -16.627   1.411  0.00  0.00    +0.175 C 
ATOM     38  C   UNL     1      -3.240 -15.200   0.871  0.00  0.00    +0.112 C 
ENDBRANCH  32  33
ENDBRANCH  31  32
ENDBRANCH  30  31
ENDBRANCH  29  30
ENDBRANCH   6  29
TORSDOF 9
