REMARK  Name = CHEMBL291534
REMARK  8 active torsions:
REMARK  status: ('A' for Active; 'I' for Inactive)
REMARK    1  A    between atoms: C_1  and  N_2
REMARK    2  A    between atoms: N_2  and  S_3
REMARK    3  A    between atoms: S_3  and  C_6
REMARK    4  A    between atoms: C_13  and  C_14
REMARK    5  A    between atoms: C_15  and  C_24
REMARK    6  A    between atoms: C_24  and  C_25
REMARK    7  A    between atoms: C_25  and  C_26
REMARK    8  A    between atoms: N_31  and  C_34
REMARK                            x       y       z     vdW  Elec       q    Type
REMARK                         _______ _______ _______ _____ _____    ______ ____
ROOT
ATOM      1  C   UNL     1      -2.157  -3.238  -6.849  0.00  0.00    +0.044 A 
ATOM      2  C   UNL     1      -1.600  -4.386  -7.397  0.00  0.00    -0.019 A 
ATOM      3  C   UNL     1      -2.077  -4.486  -8.699  0.00  0.00    -0.023 A 
ATOM      4  C   UNL     1      -2.899  -3.426  -8.932  0.00  0.00    +0.020 A 
ATOM      5  N   UNL     1      -2.961  -2.667  -7.814  0.00  0.00    -0.358 N 
ATOM      6  H   UNL     1      -3.481  -1.855  -7.710  0.00  0.00    +0.166 HD
ATOM      7  C   UNL     1      -3.609  -3.186 -10.243  0.00  0.00    +0.053 C 
ATOM      8  C   UNL     1      -2.937  -4.042 -11.322  0.00  0.00    +0.006 C 
ATOM      9  C   UNL     1      -2.818  -5.487 -10.829  0.00  0.00    +0.005 C 
ATOM     10  C   UNL     1      -1.769  -5.560  -9.713  0.00  0.00    +0.037 C 
ENDROOT
BRANCH   1  18
ATOM     11  C   UNL     1      -1.779  -0.242  -1.651  0.00  0.00    +0.106 A 
ATOM     12  C   UNL     1      -1.784   1.117  -1.919  0.00  0.00    +0.030 A 
ATOM     13  C   UNL     1      -1.834   1.577  -3.219  0.00  0.00    +0.026 A 
ATOM     14  C   UNL     1      -1.880   0.675  -4.277  0.00  0.00    +0.042 A 
ATOM     15  C   UNL     1      -1.875  -0.699  -4.001  0.00  0.00    +0.010 A 
ATOM     16  C   UNL     1      -1.818  -1.153  -2.687  0.00  0.00    +0.039 A 
ATOM     17  C   UNL     1      -1.929  -1.387  -5.310  0.00  0.00    +0.048 C 
ATOM     18  C   UNL     1      -1.944  -2.749  -5.544  0.00  0.00    +0.039 C 
ATOM     19  C   UNL     1      -1.965  -0.310  -6.307  0.00  0.00    +0.249 C 
ATOM     20  O   UNL     1      -2.014  -0.454  -7.516  0.00  0.00    -0.270 OA
ATOM     21  N   UNL     1      -1.935   0.864  -5.652  0.00  0.00    -0.281 N 
ATOM     22  H   UNL     1      -1.949   1.732  -6.085  0.00  0.00    +0.155 HD
BRANCH  11  23
ATOM     23  S   UNL     1      -1.714  -0.809   0.016  0.00  0.00    +0.058 S 
ATOM     24  O   UNL     1      -2.264  -2.119   0.021  0.00  0.00    -0.153 OA
ATOM     25  O   UNL     1      -2.236   0.239   0.822  0.00  0.00    -0.153 OA
BRANCH  23  27
ATOM     26  C   UNL     1       0.745   0.219   0.476  0.00  0.00    +0.127 C 
ATOM     27  N   UNL     1      -0.116  -0.966   0.419  0.00  0.00    -0.193 NA
ATOM     28  H   UNL     1       0.251  -1.841   0.617  0.00  0.00    +0.148 HD
ENDBRANCH  23  27
ENDBRANCH  11  23
ENDBRANCH   1  18
BRANCH   2  29
ATOM     29  C   UNL     1      -0.658  -5.341  -6.711  0.00  0.00    +0.047 C 
BRANCH  29  30
ATOM     30  C   UNL     1      -1.464  -6.435  -6.007  0.00  0.00    +0.101 C 
BRANCH  30  31
ATOM     31  C   UNL     1      -0.521  -7.390  -5.321  0.00  0.00    +0.216 C 
ATOM     32  O   UNL     1       0.677  -7.213  -5.388  0.00  0.00    -0.276 OA
ATOM     33  N   UNL     1      -1.010  -8.441  -4.633  0.00  0.00    -0.305 N 
ATOM     34  C   UNL     1      -2.459  -8.679  -4.543  0.00  0.00    +0.089 C 
ATOM     35  C   UNL     1      -2.736 -10.137  -4.923  0.00  0.00    -0.060 C 
ATOM     36  N   UNL     1      -1.923 -11.024  -4.081  0.00  0.00    +0.380 N 
ATOM     37  C   UNL     1      -0.497 -10.808  -4.358  0.00  0.00    -0.060 C 
ATOM     38  C   UNL     1      -0.109  -9.386  -3.955  0.00  0.00    +0.089 C 
ATOM     39  C   UNL     1      -2.270 -12.422  -4.369  0.00  0.00    -0.096 C 
ATOM     40  H   UNL     1      -2.110 -10.828  -3.109  0.00  0.00    -0.082 HD
ENDBRANCH  30  31
ENDBRANCH  29  30
ENDBRANCH   2  29
TORSDOF 6
