REMARK  Name = CHEMBL434578
REMARK  9 active torsions:
REMARK  status: ('A' for Active; 'I' for Inactive)
REMARK    1  A    between atoms: C_1  and  C_2
REMARK    2  A    between atoms: C_2  and  O_3
REMARK    3  A    between atoms: O_3  and  C_4
REMARK    4  A    between atoms: N_6  and  C_10
REMARK    5  A    between atoms: C_13  and  N_16
REMARK    6  A    between atoms: C_20  and  C_35
REMARK    7  A    between atoms: C_22  and  C_27
REMARK    8  A    between atoms: C_28  and  C_34
REMARK    9  A    between atoms: C_32  and  C_33
REMARK                            x       y       z     vdW  Elec       q    Type
REMARK                         _______ _______ _______ _____ _____    ______ ____
ROOT
ATOM      1  N   UNL     1      -0.144  -6.893  -6.861  0.00  0.00    -0.282 N 
ATOM      2  C   UNL     1       0.086  -8.258  -6.845  0.00  0.00    +0.240 A 
ATOM      3  N   UNL     1      -0.242  -8.981  -7.901  0.00  0.00    -0.211 NA
ATOM      4  C   UNL     1      -0.018 -10.300  -7.880  0.00  0.00    +0.097 A 
ATOM      5  C   UNL     1      -0.345 -11.120  -8.973  0.00  0.00    -0.022 A 
ATOM      6  C   UNL     1      -0.102 -12.455  -8.915  0.00  0.00    +0.014 A 
ATOM      7  C   UNL     1       0.475 -13.034  -7.772  0.00  0.00    -0.015 A 
ATOM      8  C   UNL     1       0.809 -12.254  -6.680  0.00  0.00    +0.040 A 
ATOM      9  C   UNL     1       0.567 -10.873  -6.720  0.00  0.00    +0.112 A 
ATOM     10  N   UNL     1       0.872 -10.078  -5.689  0.00  0.00    -0.144 NA
ATOM     11  N   UNL     1       0.639  -8.812  -5.764  0.00  0.00    -0.112 NA
ATOM     12  C   UNL     1      -0.966 -10.519 -10.208  0.00  0.00    +0.046 C 
ATOM     13  H   UNL     1      -0.619  -6.490  -7.605  0.00  0.00    +0.155 HD
ENDROOT
BRANCH   7  14
ATOM     14  C   UNL     1       0.729 -14.495  -7.737  0.00  0.00    -0.012 A 
ATOM     15  C   UNL     1      -0.337 -15.391  -7.776  0.00  0.00    -0.042 A 
ATOM     16  C   UNL     1      -0.095 -16.749  -7.744  0.00  0.00    +0.004 A 
ATOM     17  C   UNL     1       1.203 -17.222  -7.672  0.00  0.00    +0.001 A 
ATOM     18  C   UNL     1       2.265 -16.337  -7.633  0.00  0.00    +0.004 A 
ATOM     19  C   UNL     1       2.035 -14.976  -7.670  0.00  0.00    -0.042 A 
ATOM     20  C   UNL     1       3.194 -14.014  -7.634  0.00  0.00    +0.044 C 
ATOM     21  C   UNL     1      -1.752 -14.878  -7.854  0.00  0.00    +0.044 C 
ENDBRANCH   7  14
BRANCH   1  25
ATOM     22  C   UNL     1       1.208  -4.511  -3.716  0.00  0.00    +0.030 A 
ATOM     23  C   UNL     1       1.950  -5.613  -4.122  0.00  0.00    +0.025 A 
ATOM     24  C   UNL     1       1.502  -6.402  -5.163  0.00  0.00    +0.025 A 
ATOM     25  C   UNL     1       0.310  -6.093  -5.805  0.00  0.00    +0.034 A 
ATOM     26  C   UNL     1      -0.432  -4.992  -5.399  0.00  0.00    +0.025 A 
ATOM     27  C   UNL     1       0.013  -4.206  -4.355  0.00  0.00    +0.025 A 
BRANCH  22  30
ATOM     28  C   UNL     1       3.791  -2.866  -1.832  0.00  0.00    +0.267 C 
ATOM     29  C   UNL     1       2.860  -4.082  -1.892  0.00  0.00    +0.166 C 
ATOM     30  N   UNL     1       1.661  -3.712  -2.661  0.00  0.00    -0.323 N 
ATOM     31  C   UNL     1       0.954  -2.477  -2.288  0.00  0.00    +0.133 C 
ATOM     32  C   UNL     1       1.978  -1.339  -2.209  0.00  0.00    +0.182 C 
ATOM     33  O   UNL     1       3.057  -1.734  -1.358  0.00  0.00    -0.348 OA
BRANCH  28  34
ATOM     34  O   UNL     1       4.875  -3.138  -0.942  0.00  0.00    -0.350 OA
BRANCH  34  36
ATOM     35  C   UNL     1       6.969  -2.501   0.083  0.00  0.00    +0.034 C 
ATOM     36  C   UNL     1       5.862  -2.105  -0.896  0.00  0.00    +0.159 C 
ENDBRANCH  34  36
ENDBRANCH  28  34
ENDBRANCH  22  30
ENDBRANCH   1  25
TORSDOF 5
