REMARK  Name = CHEMBL472038
REMARK  10 active torsions:
REMARK  status: ('A' for Active; 'I' for Inactive)
REMARK    1  A    between atoms: C_1  and  O_2
REMARK    2  A    between atoms: O_2  and  C_3
REMARK    3  A    between atoms: C_8  and  O_9
REMARK    4  A    between atoms: O_9  and  C_10
REMARK    5  A    between atoms: C_10  and  C_11
REMARK    6  A    between atoms: C_11  and  C_12
REMARK    7  A    between atoms: C_12  and  N_13
REMARK    8  A    between atoms: C_21  and  C_34
REMARK    9  A    between atoms: C_22  and  N_23
REMARK   10  A    between atoms: N_23  and  C_24
REMARK                            x       y       z     vdW  Elec       q    Type
REMARK                         _______ _______ _______ _____ _____    ______ ____
ROOT
ATOM      1  C   UNL     1      -0.874  -0.596  -5.633  0.00  0.00    +0.162 A 
ATOM      2  C   UNL     1       0.155   0.163  -5.155  0.00  0.00    +0.061 A 
ATOM      3  C   UNL     1       1.312  -0.460  -4.665  0.00  0.00    +0.026 A 
ATOM      4  C   UNL     1       1.409  -1.872  -4.668  0.00  0.00    +0.077 A 
ATOM      5  C   UNL     1       0.339  -2.630  -5.165  0.00  0.00    +0.077 A 
ATOM      6  C   UNL     1      -0.788  -1.994  -5.635  0.00  0.00    +0.164 A 
ATOM      7  N   UNL     1       2.513  -2.474  -4.201  0.00  0.00    -0.253 NA
ATOM      8  C   UNL     1       3.528  -1.795  -3.730  0.00  0.00    +0.132 A 
ATOM      9  C   UNL     1       3.518  -0.392  -3.688  0.00  0.00    +0.091 A 
ATOM     10  C   UNL     1       2.393   0.301  -4.163  0.00  0.00    +0.060 A 
ENDROOT
BRANCH   1  12
ATOM     11  C   UNL     1      -2.021   1.440  -6.078  0.00  0.00    +0.277 C 
ATOM     12  O   UNL     1      -1.995   0.011  -6.107  0.00  0.00    -0.491 OA
ENDBRANCH   1  12
BRANCH  10  13
ATOM     13  N   UNL     1       2.344   1.681  -4.140  0.00  0.00    -0.313 N 
ATOM     14  H   UNL     1       2.037   2.142  -3.344  0.00  0.00    +0.152 HD
BRANCH  13  15
ATOM     15  C   UNL     1       2.737   2.414  -5.266  0.00  0.00    +0.033 A 
ATOM     16  C   UNL     1       3.052   1.763  -6.457  0.00  0.00    +0.025 A 
ATOM     17  C   UNL     1       3.437   2.452  -7.564  0.00  0.00    +0.031 A 
ATOM     18  C   UNL     1       3.531   3.863  -7.546  0.00  0.00    +0.080 A 
ATOM     19  C   UNL     1       3.206   4.497  -6.326  0.00  0.00    +0.043 A 
ATOM     20  C   UNL     1       2.814   3.800  -5.211  0.00  0.00    +0.040 A 
ATOM     21  S   UNL     1       3.445   6.214  -6.715  0.00  0.00    -0.053 S 
ATOM     22  C   UNL     1       3.945   5.992  -8.416  0.00  0.00    +0.157 A 
ATOM     23  N   UNL     1       3.895   4.687  -8.555  0.00  0.00    -0.225 NA
ATOM     24  N   UNL     1       4.295   6.949  -9.348  0.00  0.00    -0.337 N 
ATOM     25  H   UNL     1       4.287   7.888  -9.105  0.00  0.00    +0.144 HD
ATOM     26  H   UNL     1       4.548   6.682 -10.246  0.00  0.00    +0.144 HD
ENDBRANCH  13  15
ENDBRANCH  10  13
BRANCH   9  27
ATOM     27  C   UNL     1       4.642   0.325  -3.167  0.00  0.00    +0.103 C 
ATOM     28  N   UNL     1       5.535   0.893  -2.754  0.00  0.00    -0.191 NA
ENDBRANCH   9  27
BRANCH   6  29
ATOM     29  O   UNL     1      -1.826  -2.731  -6.111  0.00  0.00    -0.488 OA
BRANCH  29  30
ATOM     30  C   UNL     1      -1.679  -4.152  -6.086  0.00  0.00    +0.230 C 
BRANCH  30  31
ATOM     31  C   UNL     1      -2.939  -4.806  -6.657  0.00  0.00    +0.056 C 
BRANCH  31  32
ATOM     32  C   UNL     1      -2.781  -6.327  -6.631  0.00  0.00    +0.087 C 
BRANCH  32  33
ATOM     33  N   UNL     1      -3.991  -6.955  -7.179  0.00  0.00    -0.306 NA
ATOM     34  C   UNL     1      -4.141  -6.649  -8.609  0.00  0.00    +0.065 C 
ATOM     35  C   UNL     1      -5.441  -7.269  -9.126  0.00  0.00    -0.067 C 
ATOM     36  N   UNL     1      -5.405  -8.723  -8.920  0.00  0.00    +0.381 N 
ATOM     37  C   UNL     1      -5.279  -9.013  -7.485  0.00  0.00    -0.067 C 
ATOM     38  C   UNL     1      -3.978  -8.407  -6.955  0.00  0.00    +0.065 C 
ATOM     39  H   UNL     1      -6.257  -9.133  -9.272  0.00  0.00    -0.086 HD
ATOM     40  H   UNL     1      -4.616  -9.113  -9.412  0.00  0.00    -0.086 HD
ENDBRANCH  32  33
ENDBRANCH  31  32
ENDBRANCH  30  31
ENDBRANCH  29  30
ENDBRANCH   6  29
TORSDOF 9
