REMARK  Name = CHEMBL128326
REMARK  13 active torsions:
REMARK  status: ('A' for Active; 'I' for Inactive)
REMARK    1  A    between atoms: C_1  and  N_2
REMARK    2  A    between atoms: N_6  and  C_9
REMARK    3  A    between atoms: C_9  and  C_10
REMARK    4  A    between atoms: C_10  and  C_11
REMARK    5  A    between atoms: C_11  and  O_12
REMARK    6  A    between atoms: O_12  and  C_13
REMARK    7  A    between atoms: C_18  and  O_19
REMARK    8  A    between atoms: O_19  and  C_20
REMARK    9  A    between atoms: C_21  and  N_27
REMARK   10  A    between atoms: C_22  and  C_25
REMARK   11  A    between atoms: N_27  and  C_28
REMARK   12  A    between atoms: C_30  and  O_36
REMARK   13  A    between atoms: O_36  and  C_37
REMARK                            x       y       z     vdW  Elec       q    Type
REMARK                         _______ _______ _______ _____ _____    ______ ____
ROOT
ATOM      1  C   UNL     1       0.221  -6.799   9.688  0.00  0.00    +0.164 A 
ATOM      2  C   UNL     1       0.540  -7.461   8.524  0.00  0.00    +0.077 A 
ATOM      3  C   UNL     1      -0.275  -8.511   8.074  0.00  0.00    +0.077 A 
ATOM      4  C   UNL     1      -1.417  -8.870   8.830  0.00  0.00    +0.026 A 
ATOM      5  C   UNL     1      -1.720  -8.179  10.013  0.00  0.00    +0.061 A 
ATOM      6  C   UNL     1      -0.908  -7.165  10.433  0.00  0.00    +0.162 A 
ATOM      7  C   UNL     1      -2.237  -9.928   8.374  0.00  0.00    +0.060 A 
ATOM      8  C   UNL     1      -1.871 -10.573   7.183  0.00  0.00    +0.091 A 
ATOM      9  C   UNL     1      -0.721 -10.150   6.498  0.00  0.00    +0.132 A 
ATOM     10  N   UNL     1       0.020  -9.168   6.943  0.00  0.00    -0.253 NA
ENDROOT
BRANCH   6  11
ATOM     11  O   UNL     1      -1.201  -6.500  11.582  0.00  0.00    -0.491 OA
ATOM     12  C   UNL     1      -2.365  -6.920  12.296  0.00  0.00    +0.277 C 
ENDBRANCH   6  11
BRANCH   8  13
ATOM     13  C   UNL     1      -2.662 -11.652   6.672  0.00  0.00    +0.103 C 
ATOM     14  N   UNL     1      -3.289 -12.508   6.266  0.00  0.00    -0.191 NA
ENDBRANCH   8  13
BRANCH   7  15
ATOM     15  N   UNL     1      -3.360 -10.314   9.078  0.00  0.00    -0.312 N 
ATOM     16  H   UNL     1      -4.233  -9.982   8.818  0.00  0.00    +0.152 HD
BRANCH  15  17
ATOM     17  C   UNL     1      -3.239 -11.185  10.166  0.00  0.00    +0.053 A 
ATOM     18  C   UNL     1      -1.981 -11.567  10.613  0.00  0.00    +0.071 A 
ATOM     19  C   UNL     1      -1.864 -12.430  11.691  0.00  0.00    +0.140 A 
ATOM     20  C   UNL     1      -3.005 -12.910  12.322  0.00  0.00    +0.084 A 
ATOM     21  C   UNL     1      -4.256 -12.529  11.876  0.00  0.00    +0.045 A 
ATOM     22  C   UNL     1      -4.377 -11.664  10.804  0.00  0.00    +0.064 A 
ATOM     23 CL   UNL     1      -5.950 -11.180  10.252  0.00  0.00    -0.082 Cl
ATOM     24 CL   UNL     1      -2.858 -13.992  13.672  0.00  0.00    -0.080 Cl
BRANCH  19  25
ATOM     25  O   UNL     1      -0.634 -12.806  12.130  0.00  0.00    -0.494 OA
ATOM     26  C   UNL     1       0.494 -12.182  11.514  0.00  0.00    +0.277 C 
ENDBRANCH  19  25
ENDBRANCH  15  17
ENDBRANCH   7  15
BRANCH   1  27
ATOM     27  O   UNL     1       1.012  -5.783  10.121  0.00  0.00    -0.488 OA
BRANCH  27  28
ATOM     28  C   UNL     1       2.148  -5.457   9.318  0.00  0.00    +0.230 C 
BRANCH  28  29
ATOM     29  C   UNL     1       2.912  -4.298   9.961  0.00  0.00    +0.056 C 
BRANCH  29  30
ATOM     30  C   UNL     1       4.128  -3.949   9.101  0.00  0.00    +0.087 C 
BRANCH  30  36
ATOM     31  C   UNL     1       8.207  -0.778  11.608  0.00  0.00    -0.096 C 
ATOM     32  N   UNL     1       7.157  -1.015  10.608  0.00  0.00    +0.379 N 
ATOM     33  C   UNL     1       5.853  -0.616  11.180  0.00  0.00    -0.078 C 
ATOM     34  C   UNL     1       4.889  -0.350  10.052  0.00  0.00    -0.003 C 
ATOM     35  C   UNL     1       4.053  -1.595   9.705  0.00  0.00    +0.082 C 
ATOM     36  N   UNL     1       4.862  -2.836   9.718  0.00  0.00    -0.304 NA
ATOM     37  C   UNL     1       6.169  -2.682   9.120  0.00  0.00    +0.066 C 
ATOM     38  C   UNL     1       7.189  -2.361  10.229  0.00  0.00    -0.064 C 
ATOM     39  H   UNL     1       7.344  -0.444   9.797  0.00  0.00    -0.082 HD
ENDBRANCH  30  36
ENDBRANCH  29  30
ENDBRANCH  28  29
ENDBRANCH  27  28
ENDBRANCH   1  27
TORSDOF 10
