REMARK  Name = CHEMBL416091
REMARK  11 active torsions:
REMARK  status: ('A' for Active; 'I' for Inactive)
REMARK    1  A    between atoms: C_1  and  N_2
REMARK    2  A    between atoms: N_5  and  C_8
REMARK    3  A    between atoms: C_11  and  N_14
REMARK    4  A    between atoms: C_17  and  C_19
REMARK    5  A    between atoms: C_19  and  C_20
REMARK    6  A    between atoms: C_23  and  N_28
REMARK    7  A    between atoms: C_24  and  O_26
REMARK    8  A    between atoms: O_26  and  C_27
REMARK    9  A    between atoms: C_29  and  C_31
REMARK   10  A    between atoms: C_34  and  C_36
REMARK   11  A    between atoms: C_42  and  N_46
REMARK                            x       y       z     vdW  Elec       q    Type
REMARK                         _______ _______ _______ _____ _____    ______ ____
ROOT
ATOM      1  N   UNL     1      -1.191  -8.170   2.022  0.00  0.00    -0.243 N 
ATOM      2  C   UNL     1      -1.739  -9.032   2.924  0.00  0.00    +0.164 A 
ATOM      3  C   UNL     1      -1.434 -10.331   2.475  0.00  0.00    +0.082 A 
ATOM      4  C   UNL     1      -0.691 -10.192   1.282  0.00  0.00    +0.080 A 
ATOM      5  N   UNL     1      -0.560  -8.923   1.023  0.00  0.00    -0.173 NA
ATOM      6  C   UNL     1      -1.890 -11.425   3.236  0.00  0.00    +0.130 A 
ATOM      7  N   UNL     1      -2.585 -11.179   4.341  0.00  0.00    -0.220 NA
ATOM      8  C   UNL     1      -2.847  -9.941   4.723  0.00  0.00    +0.225 A 
ATOM      9  N   UNL     1      -2.444  -8.889   4.046  0.00  0.00    -0.216 NA
ENDROOT
BRANCH   1  13
ATOM     10  C   UNL     1      -0.614  -4.078   0.962  0.00  0.00    -0.068 C 
ATOM     11  C   UNL     1      -2.031  -4.649   0.897  0.00  0.00    -0.013 C 
ATOM     12  C   UNL     1      -1.963  -6.176   0.834  0.00  0.00    +0.025 C 
ATOM     13  C   UNL     1      -1.256  -6.707   2.082  0.00  0.00    +0.109 C 
ATOM     14  C   UNL     1       0.162  -6.136   2.147  0.00  0.00    +0.025 C 
ATOM     15  C   UNL     1       0.094  -4.609   2.210  0.00  0.00    -0.013 C 
BRANCH  10  20
ATOM     16  C   UNL     1      -0.123   1.452   0.000  0.00  0.00    +0.104 C 
ATOM     17  N   UNL     1      -0.086  -0.016  -0.013  0.00  0.00    -0.309 NA
ATOM     18  C   UNL     1      -1.442  -0.576  -0.105  0.00  0.00    +0.065 C 
ATOM     19  C   UNL     1      -1.357  -2.102  -0.176  0.00  0.00    -0.063 C 
ATOM     20  N   UNL     1      -0.679  -2.611   1.022  0.00  0.00    +0.383 N 
ATOM     21  C   UNL     1       0.682  -2.063   1.087  0.00  0.00    -0.063 C 
ATOM     22  C   UNL     1       0.615  -0.537   1.169  0.00  0.00    +0.065 C 
ATOM     23  H   UNL     1      -1.193  -2.332   1.844  0.00  0.00    -0.081 HD
ENDBRANCH  10  20
ENDBRANCH   1  13
BRANCH   6  24
ATOM     24  N   UNL     1      -1.621 -12.721   2.844  0.00  0.00    -0.342 N 
ATOM     25  H   UNL     1      -1.175 -12.890   1.998  0.00  0.00    +0.144 HD
ATOM     26  H   UNL     1      -1.877 -13.463   3.413  0.00  0.00    +0.144 HD
ENDBRANCH   6  24
BRANCH   4  27
ATOM     27  C   UNL     1      -0.147 -11.322   0.447  0.00  0.00    +0.093 C 
BRANCH  27  28
ATOM     28  C   UNL     1       1.279 -11.601   0.845  0.00  0.00    -0.038 A 
ATOM     29  C   UNL     1       2.314 -10.935   0.214  0.00  0.00    +0.006 A 
ATOM     30  C   UNL     1       3.624 -11.186   0.575  0.00  0.00    +0.027 A 
ATOM     31  C   UNL     1       3.903 -12.108   1.573  0.00  0.00    +0.076 A 
ATOM     32  C   UNL     1       2.861 -12.777   2.209  0.00  0.00    +0.141 A 
ATOM     33  C   UNL     1       1.550 -12.516   1.845  0.00  0.00    +0.051 A 
BRANCH  31  34
ATOM     34  N   UNL     1       5.231 -12.364   1.941  0.00  0.00    -0.282 N 
ATOM     35  C   UNL     1       6.144 -11.373   1.905  0.00  0.00    +0.221 C 
ATOM     36  O   UNL     1       5.797 -10.238   1.656  0.00  0.00    -0.275 OA
ATOM     37  H   UNL     1       5.493 -13.255   2.221  0.00  0.00    +0.155 HD
BRANCH  35  38
ATOM     38  C   UNL     1       7.595 -11.676   2.176  0.00  0.00    +0.083 C 
ATOM     39  C   UNL     1       8.201 -11.128   3.469  0.00  0.00    +0.022 C 
ATOM     40  C   UNL     1       8.582 -10.508   2.123  0.00  0.00    +0.032 C 
BRANCH  40  41
ATOM     41  C   UNL     1       9.964 -10.789   1.593  0.00  0.00    -0.044 A 
ATOM     42  C   UNL     1      10.768 -11.722   2.220  0.00  0.00    +0.004 A 
ATOM     43  C   UNL     1      12.036 -11.980   1.734  0.00  0.00    +0.000 A 
ATOM     44  C   UNL     1      12.501 -11.304   0.621  0.00  0.00    +0.000 A 
ATOM     45  C   UNL     1      11.696 -10.371  -0.006  0.00  0.00    +0.000 A 
ATOM     46  C   UNL     1      10.427 -10.116   0.477  0.00  0.00    +0.004 A 
ENDBRANCH  40  41
ENDBRANCH  35  38
ENDBRANCH  31  34
BRANCH  32  47
ATOM     47  O   UNL     1       3.128 -13.682   3.189  0.00  0.00    -0.493 OA
ATOM     48  C   UNL     1       2.009 -14.330   3.797  0.00  0.00    +0.277 C 
ENDBRANCH  32  47
ENDBRANCH  27  28
ENDBRANCH   4  27
TORSDOF 9
