REMARK  Name = CHEMBL107423
REMARK  12 active torsions:
REMARK  status: ('A' for Active; 'I' for Inactive)
REMARK    1  A    between atoms: C_1  and  C_2
REMARK    2  A    between atoms: C_2  and  N_3
REMARK    3  A    between atoms: N_3  and  C_4
REMARK    4  A    between atoms: N_3  and  C_6
REMARK    5  A    between atoms: C_4  and  C_5
REMARK    6  A    between atoms: C_6  and  C_7
REMARK    7  A    between atoms: C_7  and  C_8
REMARK    8  A    between atoms: C_8  and  C_9
REMARK    9  A    between atoms: C_9  and  C_10
REMARK   10  A    between atoms: C_10  and  N_11
REMARK   11  A    between atoms: C_17  and  C_22
REMARK   12  A    between atoms: N_20  and  C_21
REMARK                            x       y       z     vdW  Elec       q    Type
REMARK                         _______ _______ _______ _____ _____    ______ ____
ROOT
ATOM      1  N   UNL     1      -4.571  -5.659  -2.287  0.00  0.00    -0.329 N 
ATOM      2  C   UNL     1      -5.033  -6.949  -2.503  0.00  0.00    +0.121 A 
ATOM      3  C   UNL     1      -4.120  -7.989  -2.613  0.00  0.00    +0.070 A 
ATOM      4  C   UNL     1      -4.593  -9.277  -2.829  0.00  0.00    +0.056 A 
ATOM      5  C   UNL     1      -5.989  -9.471  -2.926  0.00  0.00    +0.018 A 
ATOM      6  C   UNL     1      -6.508 -10.769  -3.146  0.00  0.00    +0.025 A 
ATOM      7  C   UNL     1      -5.642 -11.821  -3.261  0.00  0.00    +0.050 A 
ATOM      8  C   UNL     1      -4.200 -11.586  -3.155  0.00  0.00    +0.259 A 
ATOM      9  O   UNL     1      -3.424 -12.519  -3.257  0.00  0.00    -0.267 OA
ATOM     10  N   UNL     1      -3.729 -10.341  -2.946  0.00  0.00    -0.311 N 
ATOM     11  C   UNL     1      -2.285 -10.118  -2.842  0.00  0.00    +0.152 C 
ATOM     12  C   UNL     1      -6.839  -8.365  -2.803  0.00  0.00    +0.122 A 
ATOM     13  N   UNL     1      -6.340  -7.166  -2.594  0.00  0.00    -0.240 NA
ATOM     14  H   UNL     1      -5.201  -4.925  -2.204  0.00  0.00    +0.147 HD
ENDROOT
BRANCH   7  15
ATOM     15  C   UNL     1      -6.159 -13.191  -3.491  0.00  0.00    +0.024 A 
ATOM     16  C   UNL     1      -6.467 -14.014  -2.408  0.00  0.00    +0.050 A 
ATOM     17  C   UNL     1      -6.949 -15.290  -2.629  0.00  0.00    +0.021 A 
ATOM     18  C   UNL     1      -7.126 -15.751  -3.921  0.00  0.00    +0.003 A 
ATOM     19  C   UNL     1      -6.823 -14.939  -4.999  0.00  0.00    +0.021 A 
ATOM     20  C   UNL     1      -6.345 -13.660  -4.792  0.00  0.00    +0.050 A 
ATOM     21 CL   UNL     1      -5.971 -12.641  -6.146  0.00  0.00    -0.083 Cl
ATOM     22 CL   UNL     1      -6.244 -13.438  -0.785  0.00  0.00    -0.083 Cl
ENDBRANCH   7  15
BRANCH   1  23
ATOM     23  C   UNL     1      -3.132  -5.403  -2.184  0.00  0.00    +0.103 C 
BRANCH  23  24
ATOM     24  C   UNL     1      -2.895  -3.910  -1.948  0.00  0.00    +0.019 C 
BRANCH  24  25
ATOM     25  C   UNL     1      -1.392  -3.644  -1.840  0.00  0.00    -0.000 C 
BRANCH  25  26
ATOM     26  C   UNL     1      -1.155  -2.151  -1.603  0.00  0.00    -0.019 C 
BRANCH  26  27
ATOM     27  C   UNL     1       0.348  -1.884  -1.496  0.00  0.00    -0.079 C 
BRANCH  27  28
ATOM     28  N   UNL     1       0.576  -0.451  -1.269  0.00  0.00    +0.379 N 
ATOM     29  H   UNL     1       0.124   0.081  -1.998  0.00  0.00    -0.082 HD
BRANCH  28  31
ATOM     30  C   UNL     1       0.128   1.449   0.210  0.00  0.00    -0.017 C 
ATOM     31  C   UNL     1       0.019  -0.067   0.035  0.00  0.00    -0.082 C 
ENDBRANCH  28  31
BRANCH  28  32
ATOM     32  C   UNL     1       2.019  -0.176  -1.285  0.00  0.00    -0.082 C 
ATOM     33  C   UNL     1       2.573  -0.440  -2.687  0.00  0.00    -0.017 C 
ENDBRANCH  28  32
ENDBRANCH  27  28
ENDBRANCH  26  27
ENDBRANCH  25  26
ENDBRANCH  24  25
ENDBRANCH  23  24
ENDBRANCH   1  23
TORSDOF 9
