REMARK  Name = CHEMBL425209
REMARK  10 active torsions:
REMARK  status: ('A' for Active; 'I' for Inactive)
REMARK    1  A    between atoms: C_1  and  C_2
REMARK    2  A    between atoms: C_2  and  C_3
REMARK    3  A    between atoms: C_2  and  O_4
REMARK    4  A    between atoms: O_4  and  C_5
REMARK    5  A    between atoms: C_7  and  O_25
REMARK    6  A    between atoms: C_20  and  O_22
REMARK    7  A    between atoms: O_22  and  C_23
REMARK    8  A    between atoms: O_25  and  C_26
REMARK    9  A    between atoms: C_26  and  C_27
REMARK   10  A    between atoms: C_27  and  N_28
REMARK                            x       y       z     vdW  Elec       q    Type
REMARK                         _______ _______ _______ _____ _____    ______ ____
ROOT
ATOM      1  C   UNL     1      -0.032  -0.734   2.649  0.00  0.00    +0.137 A 
ATOM      2  C   UNL     1      -1.388  -0.491   2.601  0.00  0.00    +0.092 A 
ATOM      3  C   UNL     1      -2.178  -0.641   3.741  0.00  0.00    +0.126 A 
ATOM      4  C   UNL     1      -1.621  -1.035   4.941  0.00  0.00    +0.074 A 
ATOM      5  C   UNL     1      -0.248  -1.289   5.017  0.00  0.00    +0.083 A 
ATOM      6  C   UNL     1       0.555  -1.143   3.858  0.00  0.00    +0.082 A 
ATOM      7  C   UNL     1       1.938  -1.411   3.966  0.00  0.00    +0.139 A 
ATOM      8  N   UNL     1       2.414  -1.793   5.144  0.00  0.00    -0.220 NA
ATOM      9  C   UNL     1       1.626  -1.922   6.199  0.00  0.00    +0.223 A 
ATOM     10  N   UNL     1       0.338  -1.675   6.162  0.00  0.00    -0.235 NA
ATOM     11  N   UNL     1       2.771  -1.281   2.873  0.00  0.00    -0.282 N 
ATOM     12  C   UNL     1       4.106  -1.666   2.966  0.00  0.00    +0.146 A 
ATOM     13  C   UNL     1       4.942  -1.526   1.863  0.00  0.00    +0.081 A 
ATOM     14  C   UNL     1       6.269  -1.912   1.966  0.00  0.00    +0.028 A 
ATOM     15  C   UNL     1       6.717  -2.426   3.173  0.00  0.00    +0.069 A 
ATOM     16  C   UNL     1       5.830  -2.538   4.234  0.00  0.00    +0.216 A 
ATOM     17  N   UNL     1       4.570  -2.156   4.106  0.00  0.00    -0.196 NA
ATOM     18 CL   UNL     1       4.329  -0.877   0.374  0.00  0.00    -0.080 Cl
ATOM     19  H   UNL     1       2.427  -0.921   2.040  0.00  0.00    +0.155 HD
ENDROOT
BRANCH  16  20
ATOM     20  O   UNL     1       6.261  -3.040   5.419  0.00  0.00    -0.480 OA
ATOM     21  C   UNL     1       5.301  -3.130   6.473  0.00  0.00    +0.279 C 
ENDBRANCH  16  20
BRANCH   1  22
ATOM     22  O   UNL     1       0.729  -0.586   1.535  0.00  0.00    -0.488 OA
BRANCH  22  24
ATOM     23  C   UNL     1       0.001   1.431   0.420  0.00  0.00    +0.051 C 
ATOM     24  C   UNL     1       0.075  -0.096   0.363  0.00  0.00    +0.167 C 
ATOM     25  C   UNL     1       0.864  -0.522  -0.877  0.00  0.00    +0.051 C 
ENDBRANCH  22  24
ENDBRANCH   1  22
BRANCH   3  26
ATOM     26  O   UNL     1      -3.511  -0.395   3.670  0.00  0.00    -0.494 OA
BRANCH  26  27
ATOM     27  C   UNL     1      -4.267  -0.566   4.870  0.00  0.00    +0.210 C 
BRANCH  27  28
ATOM     28  C   UNL     1      -5.738  -0.245   4.597  0.00  0.00    -0.037 C 
BRANCH  28  29
ATOM     29  N   UNL     1      -6.275  -1.206   3.623  0.00  0.00    +0.385 N 
ATOM     30  C   UNL     1      -7.643  -0.815   3.253  0.00  0.00    -0.050 C 
ATOM     31  C   UNL     1      -8.200  -1.817   2.239  0.00  0.00    +0.141 C 
ATOM     32  O   UNL     1      -8.164  -3.130   2.804  0.00  0.00    -0.383 OA
ATOM     33  C   UNL     1      -6.855  -3.547   3.203  0.00  0.00    +0.141 C 
ATOM     34  C   UNL     1      -6.295  -2.549   4.219  0.00  0.00    -0.050 C 
ATOM     35  H   UNL     1      -5.692  -1.211   2.800  0.00  0.00    -0.081 HD
ENDBRANCH  28  29
ENDBRANCH  27  28
ENDBRANCH  26  27
ENDBRANCH   3  26
TORSDOF 7
