REMARK  Name = CHEMBL1080994
REMARK  9 active torsions:
REMARK  status: ('A' for Active; 'I' for Inactive)
REMARK    1  A    between atoms: C_1  and  C_2
REMARK    2  A    between atoms: C_11  and  N_12
REMARK    3  A    between atoms: N_12  and  C_13
REMARK    4  A    between atoms: C_14  and  C_21
REMARK    5  A    between atoms: C_18  and  C_19
REMARK    6  A    between atoms: C_22  and  C_23
REMARK    7  A    between atoms: C_27  and  S_29
REMARK    8  A    between atoms: S_29  and  N_32
REMARK    9  A    between atoms: N_35  and  C_38
REMARK                            x       y       z     vdW  Elec       q    Type
REMARK                         _______ _______ _______ _____ _____    ______ ____
ROOT
ATOM      1  C   UNL     1      -0.059  -0.712   3.602  0.00  0.00    +0.059 A 
ATOM      2  C   UNL     1      -0.478  -0.076   4.787  0.00  0.00    +0.016 A 
ATOM      3  C   UNL     1      -0.546  -0.822   5.963  0.00  0.00    +0.120 A 
ATOM      4  N   UNL     1      -0.225  -2.102   5.976  0.00  0.00    -0.261 NA
ATOM      5  C   UNL     1       0.172  -2.738   4.893  0.00  0.00    +0.131 A 
ATOM      6  C   UNL     1       0.268  -2.080   3.666  0.00  0.00    +0.091 A 
ENDROOT
BRANCH   1   7
ATOM      7  N   UNL     1       0.025  -0.015   2.410  0.00  0.00    -0.313 N 
ATOM      8  H   UNL     1       0.832   0.477   2.191  0.00  0.00    +0.152 HD
BRANCH   7  19
ATOM      9  C   UNL     1       0.181   1.645   0.111  0.00  0.00    +0.046 C 
ATOM     10  C   UNL     1      -1.018   0.776   0.389  0.00  0.00    -0.020 A 
ATOM     11  C   UNL     1      -2.097   0.763  -0.498  0.00  0.00    +0.004 A 
ATOM     12  C   UNL     1      -2.384   1.452  -1.758  0.00  0.00    +0.028 A 
ATOM     13  C   UNL     1      -3.595   1.040  -2.165  0.00  0.00    +0.083 A 
ATOM     14  N   UNL     1      -4.107   0.142  -1.268  0.00  0.00    -0.361 N 
ATOM     15  H   UNL     1      -4.970  -0.294  -1.347  0.00  0.00    +0.165 HD
ATOM     16  C   UNL     1      -3.214  -0.050  -0.235  0.00  0.00    +0.047 A 
ATOM     17  C   UNL     1      -3.235  -0.838   0.911  0.00  0.00    +0.028 A 
ATOM     18  C   UNL     1      -2.167  -0.819   1.779  0.00  0.00    +0.025 A 
ATOM     19  C   UNL     1      -1.055  -0.018   1.520  0.00  0.00    +0.035 A 
ENDBRANCH   7  19
ENDBRANCH   1   7
BRANCH   6  20
ATOM     20  C   UNL     1       0.695  -2.782   2.494  0.00  0.00    +0.103 C 
ATOM     21  N   UNL     1       1.034  -3.340   1.564  0.00  0.00    -0.191 NA
ENDBRANCH   6  20
BRANCH   2  22
ATOM     22  C   UNL     1      -0.839   1.351   4.784  0.00  0.00    +0.012 C 
ATOM     23  C   UNL     1      -1.238   1.946   5.921  0.00  0.00    +0.008 C 
BRANCH  23  24
ATOM     24  C   UNL     1      -1.598   3.375   5.918  0.00  0.00    -0.023 A 
ATOM     25  C   UNL     1      -1.532   4.113   4.733  0.00  0.00    +0.008 A 
ATOM     26  C   UNL     1      -1.871   5.450   4.738  0.00  0.00    +0.002 A 
ATOM     27  C   UNL     1      -2.276   6.060   5.912  0.00  0.00    +0.028 A 
ATOM     28  C   UNL     1      -2.344   5.336   7.089  0.00  0.00    +0.106 A 
ATOM     29  C   UNL     1      -2.014   3.996   7.098  0.00  0.00    +0.036 A 
BRANCH  28  30
ATOM     30  S   UNL     1      -2.860   6.124   8.578  0.00  0.00    +0.061 S 
ATOM     31  O   UNL     1      -2.316   5.365   9.649  0.00  0.00    -0.153 OA
ATOM     32  O   UNL     1      -2.596   7.511   8.416  0.00  0.00    -0.153 OA
BRANCH  30  33
ATOM     33  N   UNL     1      -4.505   5.963   8.671  0.00  0.00    -0.174 NA
ATOM     34  C   UNL     1      -5.397   6.974   8.084  0.00  0.00    +0.125 C 
ATOM     35  C   UNL     1      -6.417   6.263   7.189  0.00  0.00    +0.101 C 
ATOM     36  N   UNL     1      -7.093   5.212   7.961  0.00  0.00    -0.303 NA
ATOM     37  C   UNL     1      -6.144   4.179   8.399  0.00  0.00    +0.101 C 
ATOM     38  C   UNL     1      -5.114   4.802   9.339  0.00  0.00    +0.125 C 
ATOM     39  C   UNL     1      -8.196   4.621   7.192  0.00  0.00    +0.105 C 
ENDBRANCH  30  33
ENDBRANCH  28  30
ENDBRANCH  23  24
ENDBRANCH   2  22
TORSDOF 7
