REMARK  Name = CHEMBL436516
REMARK  8 active torsions:
REMARK  status: ('A' for Active; 'I' for Inactive)
REMARK    1  A    between atoms: C_1  and  C_2
REMARK    2  A    between atoms: C_6  and  C_36
REMARK    3  A    between atoms: C_7  and  C_8
REMARK    4  A    between atoms: C_10  and  C_35
REMARK    5  A    between atoms: N_18  and  C_19
REMARK    6  A    between atoms: C_23  and  S_25
REMARK    7  A    between atoms: S_25  and  N_28
REMARK    8  A    between atoms: N_31  and  C_34
REMARK                            x       y       z     vdW  Elec       q    Type
REMARK                         _______ _______ _______ _____ _____    ______ ____
ROOT
ATOM      1  C   UNL     1       0.088   0.121   2.443  0.00  0.00    -0.015 A 
ATOM      2  C   UNL     1       1.052  -0.201   3.413  0.00  0.00    +0.014 A 
ATOM      3  C   UNL     1       1.035   0.389   4.637  0.00  0.00    -0.022 A 
ATOM      4  C   UNL     1       0.043   1.335   4.944  0.00  0.00    +0.097 A 
ATOM      5  C   UNL     1      -0.937   1.669   3.972  0.00  0.00    +0.112 A 
ATOM      6  C   UNL     1      -0.898   1.052   2.713  0.00  0.00    +0.040 A 
ATOM      7  N   UNL     1      -1.874   2.572   4.281  0.00  0.00    -0.144 NA
ATOM      8  N   UNL     1      -1.875   3.122   5.447  0.00  0.00    -0.112 NA
ATOM      9  C   UNL     1      -0.961   2.820   6.372  0.00  0.00    +0.240 A 
ATOM     10  N   UNL     1      -0.006   1.938   6.138  0.00  0.00    -0.211 NA
ATOM     11  N   UNL     1      -1.016   3.446   7.606  0.00  0.00    -0.282 N 
ATOM     12  C   UNL     1       2.078   0.029   5.663  0.00  0.00    +0.046 C 
ATOM     13  H   UNL     1      -0.313   3.296   8.257  0.00  0.00    +0.155 HD
ENDROOT
BRANCH   1  20
ATOM     14  C   UNL     1       0.629   1.694   0.077  0.00  0.00    +0.044 C 
ATOM     15  C   UNL     1       0.391   0.210  -0.030  0.00  0.00    -0.042 A 
ATOM     16  C   UNL     1       0.436  -0.410  -1.262  0.00  0.00    +0.004 A 
ATOM     17  C   UNL     1       0.218  -1.773  -1.361  0.00  0.00    +0.001 A 
ATOM     18  C   UNL     1      -0.046  -2.521  -0.228  0.00  0.00    +0.004 A 
ATOM     19  C   UNL     1      -0.092  -1.911   1.009  0.00  0.00    -0.042 A 
ATOM     20  C   UNL     1       0.132  -0.539   1.116  0.00  0.00    -0.012 A 
ATOM     21  C   UNL     1      -0.380  -2.727   2.243  0.00  0.00    +0.044 C 
ENDBRANCH   1  20
BRANCH  11  22
ATOM     22  C   UNL     1      -2.084   4.294   7.913  0.00  0.00    +0.035 A 
ATOM     23  C   UNL     1      -3.371   3.967   7.506  0.00  0.00    +0.023 A 
ATOM     24  C   UNL     1      -4.424   4.807   7.812  0.00  0.00    +0.004 A 
ATOM     25  C   UNL     1      -4.198   5.972   8.521  0.00  0.00    +0.028 A 
ATOM     26  C   UNL     1      -2.917   6.301   8.926  0.00  0.00    +0.107 A 
ATOM     27  C   UNL     1      -1.861   5.463   8.629  0.00  0.00    +0.051 A 
BRANCH  26  28
ATOM     28  S   UNL     1      -2.635   7.788   9.829  0.00  0.00    +0.061 S 
ATOM     29  O   UNL     1      -1.274   8.138   9.618  0.00  0.00    -0.153 OA
ATOM     30  O   UNL     1      -3.705   8.666   9.511  0.00  0.00    -0.153 OA
BRANCH  28  31
ATOM     31  N   UNL     1      -2.785   7.420  11.437  0.00  0.00    -0.174 NA
ATOM     32  C   UNL     1      -4.087   7.515  12.114  0.00  0.00    +0.125 C 
ATOM     33  C   UNL     1      -4.349   6.197  12.851  0.00  0.00    +0.101 C 
ATOM     34  N   UNL     1      -3.212   5.897  13.731  0.00  0.00    -0.303 NA
ATOM     35  C   UNL     1      -1.979   5.694  12.958  0.00  0.00    +0.101 C 
ATOM     36  C   UNL     1      -1.621   6.986  12.224  0.00  0.00    +0.125 C 
ATOM     37  C   UNL     1      -3.497   4.734  14.582  0.00  0.00    +0.105 C 
ENDBRANCH  28  31
ENDBRANCH  26  28
ENDBRANCH  11  22
TORSDOF 4
