REMARK  Name = CHEMBL129776
REMARK  12 active torsions:
REMARK  status: ('A' for Active; 'I' for Inactive)
REMARK    1  A    between atoms: C_1  and  O_2
REMARK    2  A    between atoms: O_2  and  C_3
REMARK    3  A    between atoms: C_8  and  O_9
REMARK    4  A    between atoms: O_9  and  C_10
REMARK    5  A    between atoms: C_10  and  C_11
REMARK    6  A    between atoms: C_11  and  C_12
REMARK    7  A    between atoms: C_12  and  N_13
REMARK    8  A    between atoms: C_20  and  C_33
REMARK    9  A    between atoms: C_21  and  N_22
REMARK   10  A    between atoms: N_22  and  C_23
REMARK   11  A    between atoms: C_25  and  O_31
REMARK   12  A    between atoms: O_31  and  C_32
REMARK                            x       y       z     vdW  Elec       q    Type
REMARK                         _______ _______ _______ _____ _____    ______ ____
ROOT
ATOM      1  C   UNL     1      -0.101  -0.402  -1.407  0.00  0.00    +0.162 A 
ATOM      2  C   UNL     1       0.681   0.302  -2.276  0.00  0.00    +0.061 A 
ATOM      3  C   UNL     1       1.383  -0.372  -3.286  0.00  0.00    +0.026 A 
ATOM      4  C   UNL     1       1.280  -1.780  -3.400  0.00  0.00    +0.077 A 
ATOM      5  C   UNL     1       0.469  -2.481  -2.494  0.00  0.00    +0.077 A 
ATOM      6  C   UNL     1      -0.205  -1.796  -1.509  0.00  0.00    +0.164 A 
ATOM      7  N   UNL     1       1.949  -2.431  -4.363  0.00  0.00    -0.253 NA
ATOM      8  C   UNL     1       2.712  -1.805  -5.221  0.00  0.00    +0.132 A 
ATOM      9  C   UNL     1       2.874  -0.411  -5.183  0.00  0.00    +0.091 A 
ATOM     10  C   UNL     1       2.201   0.332  -4.200  0.00  0.00    +0.060 A 
ENDROOT
BRANCH   1  12
ATOM     11  C   UNL     1      -0.633   1.675  -0.378  0.00  0.00    +0.277 C 
ATOM     12  O   UNL     1      -0.780   0.254  -0.429  0.00  0.00    -0.491 OA
ENDBRANCH   1  12
BRANCH  10  13
ATOM     13  N   UNL     1       2.333   1.704  -4.128  0.00  0.00    -0.312 N 
ATOM     14  H   UNL     1       2.151   2.165  -3.295  0.00  0.00    +0.152 HD
BRANCH  13  15
ATOM     15  C   UNL     1       2.730   2.428  -5.257  0.00  0.00    +0.053 A 
ATOM     16  C   UNL     1       3.963   3.065  -5.275  0.00  0.00    +0.071 A 
ATOM     17  C   UNL     1       4.354   3.782  -6.395  0.00  0.00    +0.140 A 
ATOM     18  C   UNL     1       3.511   3.862  -7.496  0.00  0.00    +0.084 A 
ATOM     19  C   UNL     1       2.283   3.228  -7.476  0.00  0.00    +0.045 A 
ATOM     20  C   UNL     1       1.892   2.507  -6.363  0.00  0.00    +0.064 A 
ATOM     21 CL   UNL     1       0.353   1.705  -6.344  0.00  0.00    -0.082 Cl
ATOM     22 CL   UNL     1       4.000   4.760  -8.899  0.00  0.00    -0.080 Cl
BRANCH  17  23
ATOM     23  O   UNL     1       5.561   4.407  -6.416  0.00  0.00    -0.494 OA
ATOM     24  C   UNL     1       6.424   4.188  -5.298  0.00  0.00    +0.277 C 
ENDBRANCH  17  23
ENDBRANCH  13  15
ENDBRANCH  10  13
BRANCH   9  25
ATOM     25  C   UNL     1       3.716   0.247  -6.136  0.00  0.00    +0.103 C 
ATOM     26  N   UNL     1       4.385   0.768  -6.892  0.00  0.00    -0.191 NA
ENDBRANCH   9  25
BRANCH   6  27
ATOM     27  O   UNL     1      -0.984  -2.478  -0.629  0.00  0.00    -0.488 OA
BRANCH  27  28
ATOM     28  C   UNL     1      -1.049  -3.897  -0.785  0.00  0.00    +0.231 C 
BRANCH  28  29
ATOM     29  C   UNL     1      -1.967  -4.486   0.288  0.00  0.00    +0.066 C 
BRANCH  29  30
ATOM     30  C   UNL     1      -2.037  -6.005   0.121  0.00  0.00    +0.170 C 
BRANCH  30  31
ATOM     31  N   UNL     1      -2.916  -6.570   1.149  0.00  0.00    -0.183 N 
ATOM     32  N   UNL     1      -2.527  -6.955   2.312  0.00  0.00    -0.161 NA
ATOM     33  C   UNL     1      -3.566  -7.406   2.977  0.00  0.00    +0.156 A 
ATOM     34  C   UNL     1      -4.659  -7.269   2.117  0.00  0.00    +0.156 A 
ATOM     35  N   UNL     1      -4.183  -6.742   1.012  0.00  0.00    -0.161 NA
ENDBRANCH  30  31
ENDBRANCH  29  30
ENDBRANCH  28  29
ENDBRANCH  27  28
ENDBRANCH   6  27
TORSDOF 10
