REMARK  Name = CHEMBL102595
REMARK  9 active torsions:
REMARK  status: ('A' for Active; 'I' for Inactive)
REMARK    1  A    between atoms: C_1  and  N_2
REMARK    2  A    between atoms: N_5  and  C_8
REMARK    3  A    between atoms: C_8  and  C_9
REMARK    4  A    between atoms: C_13  and  C_15
REMARK    5  A    between atoms: C_23  and  C_36
REMARK    6  A    between atoms: C_24  and  N_25
REMARK    7  A    between atoms: N_25  and  C_26
REMARK    8  A    between atoms: C_28  and  O_34
REMARK    9  A    between atoms: O_34  and  C_35
REMARK                            x       y       z     vdW  Elec       q    Type
REMARK                         _______ _______ _______ _____ _____    ______ ____
ROOT
ATOM      1  C   UNL     1      -1.464  -4.381   6.120  0.00  0.00    -0.016 A 
ATOM      2  C   UNL     1      -2.856  -4.315   5.957  0.00  0.00    +0.009 A 
ATOM      3  C   UNL     1      -3.691  -4.762   6.933  0.00  0.00    +0.012 A 
ATOM      4  C   UNL     1      -3.161  -5.295   8.118  0.00  0.00    +0.023 A 
ATOM      5  C   UNL     1      -1.758  -5.369   8.296  0.00  0.00    +0.073 A 
ATOM      6  C   UNL     1      -0.915  -4.907   7.275  0.00  0.00    +0.037 A 
ATOM      7  N   UNL     1      -1.247  -5.879   9.426  0.00  0.00    -0.254 NA
ATOM      8  C   UNL     1      -2.008  -6.322  10.394  0.00  0.00    +0.132 A 
ATOM      9  C   UNL     1      -3.408  -6.289  10.303  0.00  0.00    +0.091 A 
ATOM     10  C   UNL     1      -4.009  -5.767   9.147  0.00  0.00    +0.060 A 
ENDROOT
BRANCH   1  15
ATOM     11  C   UNL     1      -0.284  -2.897   2.873  0.00  0.00    -0.033 A 
ATOM     12  C   UNL     1       1.089  -2.966   3.028  0.00  0.00    +0.005 A 
ATOM     13  C   UNL     1       1.634  -3.493   4.185  0.00  0.00    +0.001 A 
ATOM     14  C   UNL     1       0.810  -3.953   5.192  0.00  0.00    +0.008 A 
ATOM     15  C   UNL     1      -0.574  -3.887   5.042  0.00  0.00    -0.018 A 
ATOM     16  C   UNL     1      -1.118  -3.350   3.876  0.00  0.00    +0.013 A 
BRANCH  11  17
ATOM     17  C   UNL     1      -0.871  -2.322   1.610  0.00  0.00    +0.119 C 
BRANCH  17  22
ATOM     18  C   UNL     1      -0.979   3.297   1.203  0.00  0.00    -0.096 C 
ATOM     19  N   UNL     1      -0.765   1.859   0.994  0.00  0.00    +0.379 N 
ATOM     20  C   UNL     1      -2.064   1.180   0.899  0.00  0.00    -0.064 C 
ATOM     21  C   UNL     1      -1.841  -0.316   0.662  0.00  0.00    +0.066 C 
ATOM     22  N   UNL     1      -1.058  -0.874   1.773  0.00  0.00    -0.302 NA
ATOM     23  C   UNL     1       0.235  -0.187   1.896  0.00  0.00    +0.066 C 
ATOM     24  C   UNL     1      -0.004   1.308   2.123  0.00  0.00    -0.064 C 
ATOM     25  H   UNL     1      -0.248   1.717   0.139  0.00  0.00    -0.082 HD
ENDBRANCH  17  22
ENDBRANCH  11  17
ENDBRANCH   1  15
BRANCH  10  26
ATOM     26  N   UNL     1      -5.382  -5.716   9.019  0.00  0.00    -0.312 N 
ATOM     27  H   UNL     1      -5.785  -5.672   8.138  0.00  0.00    +0.152 HD
BRANCH  26  28
ATOM     28  C   UNL     1      -6.192  -5.729  10.158  0.00  0.00    +0.053 A 
ATOM     29  C   UNL     1      -7.011  -6.820  10.417  0.00  0.00    +0.071 A 
ATOM     30  C   UNL     1      -7.812  -6.830  11.547  0.00  0.00    +0.140 A 
ATOM     31  C   UNL     1      -7.795  -5.749  12.419  0.00  0.00    +0.084 A 
ATOM     32  C   UNL     1      -6.979  -4.663  12.161  0.00  0.00    +0.045 A 
ATOM     33  C   UNL     1      -6.174  -4.652  11.037  0.00  0.00    +0.064 A 
ATOM     34 CL   UNL     1      -5.145  -3.290  10.720  0.00  0.00    -0.082 Cl
ATOM     35 CL   UNL     1      -8.799  -5.761  13.835  0.00  0.00    -0.080 Cl
BRANCH  30  36
ATOM     36  O   UNL     1      -8.615  -7.896  11.802  0.00  0.00    -0.494 OA
ATOM     37  C   UNL     1      -8.498  -9.020  10.927  0.00  0.00    +0.277 C 
ENDBRANCH  30  36
ENDBRANCH  26  28
ENDBRANCH  10  26
BRANCH   9  38
ATOM     38  C   UNL     1      -4.215  -6.781  11.379  0.00  0.00    +0.103 C 
ATOM     39  N   UNL     1      -4.855  -7.172  12.232  0.00  0.00    -0.191 NA
ENDBRANCH   9  38
TORSDOF 7
