REMARK  Name = CHEMBL375844
REMARK  8 active torsions:
REMARK  status: ('A' for Active; 'I' for Inactive)
REMARK    1  A    between atoms: C_1  and  N_2
REMARK    2  A    between atoms: N_5  and  C_8
REMARK    3  A    between atoms: C_11  and  C_14
REMARK    4  A    between atoms: C_19  and  N_25
REMARK    5  A    between atoms: C_20  and  C_23
REMARK    6  A    between atoms: N_25  and  C_26
REMARK    7  A    between atoms: C_28  and  O_34
REMARK    8  A    between atoms: O_34  and  C_35
REMARK                            x       y       z     vdW  Elec       q    Type
REMARK                         _______ _______ _______ _____ _____    ______ ____
ROOT
ATOM      1  C   UNL     1      -3.662  -6.276   7.728  0.00  0.00    +0.022 A 
ATOM      2  C   UNL     1      -2.591  -7.112   7.663  0.00  0.00    +0.044 A 
ATOM      3  C   UNL     1      -2.733  -8.396   7.111  0.00  0.00    +0.080 A 
ATOM      4  C   UNL     1      -4.031  -8.715   6.653  0.00  0.00    +0.060 A 
ATOM      5  S   UNL     1      -4.971  -7.253   7.010  0.00  0.00    -0.085 S 
ATOM      6  C   UNL     1      -4.326  -9.941   6.085  0.00  0.00    +0.066 A 
ATOM      7  C   UNL     1      -3.280 -10.883   5.971  0.00  0.00    +0.092 A 
ATOM      8  C   UNL     1      -2.012 -10.517   6.440  0.00  0.00    +0.132 A 
ATOM      9  N   UNL     1      -1.778  -9.348   6.971  0.00  0.00    -0.253 NA
ENDROOT
BRANCH   1  13
ATOM     10  C   UNL     1      -3.848  -2.323   9.274  0.00  0.00    +0.030 A 
ATOM     11  C   UNL     1      -5.007  -2.949   8.830  0.00  0.00    +0.024 A 
ATOM     12  C   UNL     1      -4.950  -4.231   8.328  0.00  0.00    +0.011 A 
ATOM     13  C   UNL     1      -3.726  -4.901   8.265  0.00  0.00    -0.011 A 
ATOM     14  C   UNL     1      -2.564  -4.269   8.712  0.00  0.00    +0.011 A 
ATOM     15  C   UNL     1      -2.627  -2.985   9.207  0.00  0.00    +0.024 A 
BRANCH  10  20
ATOM     16  C   UNL     1      -4.455   1.696  12.914  0.00  0.00    -0.096 C 
ATOM     17  N   UNL     1      -4.211   1.070  11.607  0.00  0.00    +0.380 N 
ATOM     18  C   UNL     1      -5.385   0.278  11.219  0.00  0.00    -0.060 C 
ATOM     19  C   UNL     1      -5.178  -0.282   9.808  0.00  0.00    +0.086 C 
ATOM     20  N   UNL     1      -3.909  -1.025   9.782  0.00  0.00    -0.333 N 
ATOM     21  C   UNL     1      -2.706  -0.361  10.308  0.00  0.00    +0.086 C 
ATOM     22  C   UNL     1      -3.029   0.203  11.695  0.00  0.00    -0.060 C 
ATOM     23  H   UNL     1      -4.049   1.788  10.917  0.00  0.00    -0.082 HD
ENDBRANCH  10  20
ENDBRANCH   1  13
BRANCH   7  24
ATOM     24  C   UNL     1      -3.510 -12.173   5.394  0.00  0.00    +0.103 C 
ATOM     25  N   UNL     1      -3.691 -13.197   4.937  0.00  0.00    -0.191 NA
ENDBRANCH   7  24
BRANCH   6  26
ATOM     26  N   UNL     1      -5.607 -10.235   5.641  0.00  0.00    -0.311 N 
ATOM     27  H   UNL     1      -6.212 -10.740   6.207  0.00  0.00    +0.152 HD
BRANCH  26  28
ATOM     28  C   UNL     1      -6.027  -9.803   4.379  0.00  0.00    +0.054 A 
ATOM     29  C   UNL     1      -5.206  -8.982   3.618  0.00  0.00    +0.071 A 
ATOM     30  C   UNL     1      -5.625  -8.556   2.367  0.00  0.00    +0.140 A 
ATOM     31  C   UNL     1      -6.863  -8.951   1.878  0.00  0.00    +0.084 A 
ATOM     32  C   UNL     1      -7.680  -9.769   2.638  0.00  0.00    +0.045 A 
ATOM     33  C   UNL     1      -7.263 -10.200   3.884  0.00  0.00    +0.064 A 
ATOM     34 CL   UNL     1      -8.287 -11.233   4.832  0.00  0.00    -0.082 Cl
ATOM     35 CL   UNL     1      -7.387  -8.418   0.312  0.00  0.00    -0.080 Cl
BRANCH  30  36
ATOM     36  O   UNL     1      -4.824  -7.752   1.619  0.00  0.00    -0.494 OA
ATOM     37  C   UNL     1      -3.517  -7.483   2.130  0.00  0.00    +0.277 C 
ENDBRANCH  30  36
ENDBRANCH  26  28
ENDBRANCH   6  26
TORSDOF 6
