REMARK  Name = CHEMBL353070
REMARK  8 active torsions:
REMARK  status: ('A' for Active; 'I' for Inactive)
REMARK    1  A    between atoms: C_1  and  O_2
REMARK    2  A    between atoms: O_2  and  C_3
REMARK    3  A    between atoms: C_8  and  O_9
REMARK    4  A    between atoms: O_9  and  C_10
REMARK    5  A    between atoms: C_10  and  C_11
REMARK    6  A    between atoms: C_11  and  C_12
REMARK    7  A    between atoms: C_12  and  N_13
REMARK    8  A    between atoms: N_23  and  C_24
REMARK                            x       y       z     vdW  Elec       q    Type
REMARK                         _______ _______ _______ _____ _____    ______ ____
ROOT
ATOM      1  C   UNL     1      -1.213  -0.537   0.757  0.00  0.00    +0.162 A 
ATOM      2  C   UNL     1      -2.360   0.166   0.519  0.00  0.00    +0.062 A 
ATOM      3  C   UNL     1      -3.599  -0.480   0.606  0.00  0.00    +0.044 A 
ATOM      4  C   UNL     1      -3.656  -1.856   0.939  0.00  0.00    +0.080 A 
ATOM      5  C   UNL     1      -2.468  -2.557   1.180  0.00  0.00    +0.078 A 
ATOM      6  C   UNL     1      -1.261  -1.899   1.082  0.00  0.00    +0.164 A 
ATOM      7  N   UNL     1      -4.857  -2.451   1.015  0.00  0.00    -0.235 NA
ATOM      8  C   UNL     1      -5.953  -1.769   0.784  0.00  0.00    +0.223 A 
ATOM      9  N   UNL     1      -5.948  -0.484   0.469  0.00  0.00    -0.220 NA
ATOM     10  C   UNL     1      -4.816   0.201   0.368  0.00  0.00    +0.134 A 
ATOM     11  N   UNL     1      -4.826   1.541   0.039  0.00  0.00    -0.297 N 
ATOM     12  H   UNL     1      -3.991   2.006  -0.125  0.00  0.00    +0.154 HD
ENDROOT
BRANCH  11  13
ATOM     13  C   UNL     1      -6.041   2.229  -0.057  0.00  0.00    +0.057 A 
ATOM     14  C   UNL     1      -7.180   1.716   0.538  0.00  0.00    +0.025 A 
ATOM     15  C   UNL     1      -8.389   2.391   0.448  0.00  0.00    +0.003 A 
ATOM     16  C   UNL     1      -8.475   3.574  -0.230  0.00  0.00    +0.011 A 
ATOM     17  C   UNL     1      -7.339   4.113  -0.839  0.00  0.00    +0.020 A 
ATOM     18  C   UNL     1      -6.109   3.440  -0.750  0.00  0.00    +0.069 A 
ATOM     19  N   UNL     1      -5.179   4.197  -1.429  0.00  0.00    -0.358 N 
ATOM     20  H   UNL     1      -4.242   3.969  -1.532  0.00  0.00    +0.165 HD
ATOM     21  C   UNL     1      -5.777   5.321  -1.936  0.00  0.00    +0.103 A 
ATOM     22  C   UNL     1      -7.082   5.325  -1.622  0.00  0.00    +0.066 A 
ATOM     23 CL   UNL     1      -8.243   6.544  -2.047  0.00  0.00    -0.081 Cl
ENDBRANCH  11  13
BRANCH   1  25
ATOM     24  C   UNL     1      -0.025   1.481   0.338  0.00  0.00    +0.277 C 
ATOM     25  O   UNL     1      -0.010   0.092   0.673  0.00  0.00    -0.491 OA
ENDBRANCH   1  25
BRANCH   6  26
ATOM     26  O   UNL     1      -0.107  -2.578   1.309  0.00  0.00    -0.488 OA
BRANCH  26  27
ATOM     27  C   UNL     1      -0.222  -3.964   1.636  0.00  0.00    +0.227 C 
BRANCH  27  28
ATOM     28  C   UNL     1       1.172  -4.554   1.855  0.00  0.00    +0.022 C 
BRANCH  28  29
ATOM     29  C   UNL     1       1.049  -6.039   2.205  0.00  0.00    -0.075 C 
BRANCH  29  30
ATOM     30  N   UNL     1       2.388  -6.605   2.416  0.00  0.00    +0.383 N 
ATOM     31  C   UNL     1       3.140  -6.566   1.154  0.00  0.00    -0.050 C 
ATOM     32  C   UNL     1       4.534  -7.157   1.375  0.00  0.00    +0.141 C 
ATOM     33  O   UNL     1       4.407  -8.493   1.870  0.00  0.00    -0.383 OA
ATOM     34  C   UNL     1       3.661  -8.586   3.086  0.00  0.00    +0.141 C 
ATOM     35  C   UNL     1       2.265  -7.998   2.868  0.00  0.00    -0.050 C 
ATOM     36  H   UNL     1       2.875  -6.066   3.115  0.00  0.00    -0.082 HD
ENDBRANCH  29  30
ENDBRANCH  28  29
ENDBRANCH  27  28
ENDBRANCH  26  27
ENDBRANCH   6  26
TORSDOF 7
