REMARK  Name = CHEMBL199110
REMARK  11 active torsions:
REMARK  status: ('A' for Active; 'I' for Inactive)
REMARK    1  A    between atoms: C_1  and  C_2
REMARK    2  A    between atoms: C_2  and  C_3
REMARK    3  A    between atoms: C_2  and  O_4
REMARK    4  A    between atoms: O_4  and  C_5
REMARK    5  A    between atoms: C_7  and  O_25
REMARK    6  A    between atoms: C_20  and  O_22
REMARK    7  A    between atoms: O_22  and  C_23
REMARK    8  A    between atoms: O_25  and  C_26
REMARK    9  A    between atoms: C_26  and  C_27
REMARK   10  A    between atoms: C_27  and  N_28
REMARK   11  A    between atoms: C_34  and  C_36
REMARK                            x       y       z     vdW  Elec       q    Type
REMARK                         _______ _______ _______ _____ _____    ______ ____
ROOT
ATOM      1  C   UNL     1      -1.861  -1.846  -0.760  0.00  0.00    +0.137 A 
ATOM      2  C   UNL     1      -0.782  -2.489  -1.327  0.00  0.00    +0.092 A 
ATOM      3  C   UNL     1      -0.952  -3.695  -2.009  0.00  0.00    +0.126 A 
ATOM      4  C   UNL     1      -2.201  -4.269  -2.131  0.00  0.00    +0.074 A 
ATOM      5  C   UNL     1      -3.313  -3.637  -1.564  0.00  0.00    +0.083 A 
ATOM      6  C   UNL     1      -3.141  -2.415  -0.867  0.00  0.00    +0.082 A 
ATOM      7  C   UNL     1      -4.282  -1.804  -0.301  0.00  0.00    +0.139 A 
ATOM      8  N   UNL     1      -5.455  -2.406  -0.446  0.00  0.00    -0.220 NA
ATOM      9  C   UNL     1      -5.568  -3.550  -1.101  0.00  0.00    +0.223 A 
ATOM     10  N   UNL     1      -4.547  -4.158  -1.657  0.00  0.00    -0.235 NA
ATOM     11  N   UNL     1      -4.178  -0.610   0.386  0.00  0.00    -0.281 N 
ATOM     12  C   UNL     1      -5.290  -0.084   1.039  0.00  0.00    +0.165 A 
ATOM     13  C   UNL     1      -5.189   1.123   1.728  0.00  0.00    +0.169 A 
ATOM     14  N   UNL     1      -6.244   1.621   2.346  0.00  0.00    -0.235 NA
ATOM     15  C   UNL     1      -7.397   0.976   2.314  0.00  0.00    +0.179 A 
ATOM     16  C   UNL     1      -7.504  -0.227   1.630  0.00  0.00    +0.235 A 
ATOM     17  N   UNL     1      -6.449  -0.729   1.002  0.00  0.00    -0.193 NA
ATOM     18 CL   UNL     1      -3.675   1.971   1.773  0.00  0.00    -0.058 Cl
ATOM     19  H   UNL     1      -3.331  -0.139   0.414  0.00  0.00    +0.155 HD
ENDROOT
BRANCH  16  20
ATOM     20  O   UNL     1      -8.689  -0.887   1.599  0.00  0.00    -0.479 OA
ATOM     21  C   UNL     1      -8.727  -2.119   0.876  0.00  0.00    +0.279 C 
ENDBRANCH  16  20
BRANCH   1  22
ATOM     22  O   UNL     1      -1.687  -0.674  -0.098  0.00  0.00    -0.488 OA
BRANCH  22  24
ATOM     23  C   UNL     1      -0.497   1.429  -0.107  0.00  0.00    +0.051 C 
ATOM     24  C   UNL     1      -0.381  -0.096  -0.134  0.00  0.00    +0.167 C 
ATOM     25  C   UNL     1       0.419  -0.568   1.082  0.00  0.00    +0.051 C 
ENDBRANCH  22  24
ENDBRANCH   1  22
BRANCH   3  26
ATOM     26  O   UNL     1       0.125  -4.310  -2.561  0.00  0.00    -0.494 OA
BRANCH  26  27
ATOM     27  C   UNL     1      -0.112  -5.541  -3.247  0.00  0.00    +0.210 C 
BRANCH  27  28
ATOM     28  C   UNL     1       1.210  -6.081  -3.796  0.00  0.00    -0.037 C 
BRANCH  28  29
ATOM     29  N   UNL     1       2.119  -6.378  -2.682  0.00  0.00    +0.384 N 
ATOM     30  C   UNL     1       3.436  -6.754  -3.213  0.00  0.00    -0.059 C 
ATOM     31  C   UNL     1       4.416  -6.952  -2.052  0.00  0.00    +0.089 C 
ATOM     32  N   UNL     1       3.838  -7.928  -1.115  0.00  0.00    -0.305 N 
ATOM     33  C   UNL     1       2.457  -7.715  -0.657  0.00  0.00    +0.089 C 
ATOM     34  C   UNL     1       1.569  -7.481  -1.883  0.00  0.00    -0.059 C 
ATOM     35  C   UNL     1       4.554  -8.988  -0.689  0.00  0.00    +0.212 C 
ATOM     36  O   UNL     1       5.718  -9.102  -1.011  0.00  0.00    -0.276 OA
ATOM     37  C   UNL     1       3.909 -10.030   0.188  0.00  0.00    +0.109 C 
ATOM     38  H   UNL     1       2.215  -5.559  -2.100  0.00  0.00    -0.082 HD
ENDBRANCH  28  29
ENDBRANCH  27  28
ENDBRANCH  26  27
ENDBRANCH   3  26
TORSDOF 7
