REMARK  Name = CHEMBL47787
REMARK  11 active torsions:
REMARK  status: ('A' for Active; 'I' for Inactive)
REMARK    1  A    between atoms: C_1  and  N_2
REMARK    2  A    between atoms: N_5  and  C_8
REMARK    3  A    between atoms: C_11  and  N_14
REMARK    4  A    between atoms: C_17  and  C_19
REMARK    5  A    between atoms: C_22  and  N_27
REMARK    6  A    between atoms: C_23  and  O_25
REMARK    7  A    between atoms: O_25  and  C_26
REMARK    8  A    between atoms: C_28  and  O_30
REMARK    9  A    between atoms: O_30  and  C_31
REMARK   10  A    between atoms: C_31  and  C_32
REMARK   11  A    between atoms: C_38  and  N_42
REMARK                            x       y       z     vdW  Elec       q    Type
REMARK                         _______ _______ _______ _____ _____    ______ ____
ROOT
ATOM      1  N   UNL     1      -2.434  -8.287   2.015  0.00  0.00    -0.243 N 
ATOM      2  C   UNL     1      -2.757  -9.155   3.016  0.00  0.00    +0.164 A 
ATOM      3  C   UNL     1      -2.414 -10.443   2.566  0.00  0.00    +0.086 A 
ATOM      4  C   UNL     1      -1.862 -10.279   1.221  0.00  0.00    +0.105 A 
ATOM      5  N   UNL     1      -1.898  -8.999   0.937  0.00  0.00    -0.168 NA
ATOM      6  C   UNL     1      -2.647 -11.536   3.417  0.00  0.00    +0.131 A 
ATOM      7  N   UNL     1      -3.183 -11.302   4.611  0.00  0.00    -0.220 NA
ATOM      8  C   UNL     1      -3.490 -10.075   4.993  0.00  0.00    +0.225 A 
ATOM      9  N   UNL     1      -3.289  -9.023   4.231  0.00  0.00    -0.216 NA
ENDROOT
BRANCH   1  13
ATOM     10  C   UNL     1      -2.413  -4.196   0.807  0.00  0.00    -0.068 C 
ATOM     11  C   UNL     1      -3.764  -4.893   0.976  0.00  0.00    -0.013 C 
ATOM     12  C   UNL     1      -3.564  -6.409   0.929  0.00  0.00    +0.025 C 
ATOM     13  C   UNL     1      -2.625  -6.835   2.060  0.00  0.00    +0.109 C 
ATOM     14  C   UNL     1      -1.274  -6.138   1.890  0.00  0.00    +0.025 C 
ATOM     15  C   UNL     1      -1.474  -4.621   1.937  0.00  0.00    -0.013 C 
BRANCH  10  20
ATOM     16  C   UNL     1      -2.596   1.323  -0.316  0.00  0.00    +0.104 C 
ATOM     17  N   UNL     1      -2.425  -0.136  -0.310  0.00  0.00    -0.309 NA
ATOM     18  C   UNL     1      -3.721  -0.817  -0.176  0.00  0.00    +0.065 C 
ATOM     19  C   UNL     1      -3.506  -2.331  -0.234  0.00  0.00    -0.063 C 
ATOM     20  N   UNL     1      -2.604  -2.740   0.851  0.00  0.00    +0.383 N 
ATOM     21  C   UNL     1      -1.307  -2.070   0.690  0.00  0.00    -0.063 C 
ATOM     22  C   UNL     1      -1.503  -0.554   0.756  0.00  0.00    +0.065 C 
ATOM     23  H   UNL     1      -3.008  -2.481   1.739  0.00  0.00    -0.081 HD
ENDBRANCH  10  20
ENDBRANCH   1  13
BRANCH   4  24
ATOM     24  C   UNL     1      -1.360 -11.360   0.340  0.00  0.00    +0.006 A 
ATOM     25  C   UNL     1      -2.085 -12.544   0.205  0.00  0.00    +0.012 A 
ATOM     26  C   UNL     1      -1.617 -13.550  -0.615  0.00  0.00    +0.028 A 
ATOM     27  C   UNL     1      -0.425 -13.387  -1.307  0.00  0.00    +0.078 A 
ATOM     28  C   UNL     1       0.303 -12.206  -1.176  0.00  0.00    +0.142 A 
ATOM     29  C   UNL     1      -0.166 -11.192  -0.360  0.00  0.00    +0.057 A 
BRANCH  27  30
ATOM     30  N   UNL     1       0.046 -14.411  -2.139  0.00  0.00    -0.248 N 
ATOM     31  C   UNL     1      -0.800 -15.359  -2.587  0.00  0.00    +0.405 C 
ATOM     32  O   UNL     1      -1.990 -15.268  -2.358  0.00  0.00    -0.226 OA
ATOM     33  H   UNL     1       0.982 -14.437  -2.392  0.00  0.00    +0.158 HD
BRANCH  31  34
ATOM     34  O   UNL     1      -0.328 -16.407  -3.288  0.00  0.00    -0.445 OA
BRANCH  34  35
ATOM     35  C   UNL     1      -1.282 -17.374  -3.731  0.00  0.00    +0.269 C 
BRANCH  35  36
ATOM     36  C   UNL     1      -0.574 -18.465  -4.493  0.00  0.00    -0.010 A 
ATOM     37  C   UNL     1      -0.393 -18.350  -5.858  0.00  0.00    +0.007 A 
ATOM     38  C   UNL     1       0.256 -19.350  -6.557  0.00  0.00    +0.000 A 
ATOM     39  C   UNL     1       0.725 -20.467  -5.889  0.00  0.00    +0.000 A 
ATOM     40  C   UNL     1       0.545 -20.582  -4.524  0.00  0.00    +0.000 A 
ATOM     41  C   UNL     1      -0.100 -19.579  -3.825  0.00  0.00    +0.007 A 
ENDBRANCH  35  36
ENDBRANCH  34  35
ENDBRANCH  31  34
ENDBRANCH  27  30
BRANCH  28  42
ATOM     42  O   UNL     1       1.471 -12.048  -1.854  0.00  0.00    -0.493 OA
ATOM     43  C   UNL     1       2.165 -10.812  -1.672  0.00  0.00    +0.277 C 
ENDBRANCH  28  42
ENDBRANCH   4  24
BRANCH   6  44
ATOM     44  N   UNL     1      -2.329 -12.821   3.023  0.00  0.00    -0.342 N 
ATOM     45  H   UNL     1      -1.808 -12.966   2.218  0.00  0.00    +0.144 HD
ATOM     46  H   UNL     1      -2.627 -13.578   3.551  0.00  0.00    +0.144 HD
ENDBRANCH   6  44
TORSDOF 9
