REMARK  Name = CHEMBL59786
REMARK  8 active torsions:
REMARK  status: ('A' for Active; 'I' for Inactive)
REMARK    1  A    between atoms: C_1  and  O_2
REMARK    2  A    between atoms: O_2  and  C_3
REMARK    3  A    between atoms: C_5  and  N_11
REMARK    4  A    between atoms: N_11  and  C_12
REMARK    5  A    between atoms: C_16  and  C_24
REMARK    6  A    between atoms: C_21  and  C_22
REMARK    7  A    between atoms: C_26  and  C_29
REMARK    8  A    between atoms: C_29  and  N_30
REMARK                            x       y       z     vdW  Elec       q    Type
REMARK                         _______ _______ _______ _____ _____    ______ ____
ROOT
ATOM      1  C   UNL     1       2.499   1.837  -3.861  0.00  0.00    +0.060 A 
ATOM      2  C   UNL     1       2.865   2.668  -4.945  0.00  0.00    +0.023 A 
ATOM      3  C   UNL     1       3.097   2.131  -6.221  0.00  0.00    +0.012 A 
ATOM      4  C   UNL     1       3.448   2.949  -7.249  0.00  0.00    +0.009 A 
ATOM      5  C   UNL     1       3.582   4.332  -7.049  0.00  0.00    -0.015 A 
ATOM      6  C   UNL     1       3.359   4.888  -5.801  0.00  0.00    +0.037 A 
ATOM      7  C   UNL     1       2.997   4.062  -4.729  0.00  0.00    +0.073 A 
ATOM      8  N   UNL     1       2.775   4.580  -3.512  0.00  0.00    -0.254 NA
ATOM      9  C   UNL     1       2.435   3.835  -2.491  0.00  0.00    +0.132 A 
ATOM     10  C   UNL     1       2.277   2.445  -2.616  0.00  0.00    +0.091 A 
ENDROOT
BRANCH   5  11
ATOM     11  C   UNL     1       3.966   5.204  -8.184  0.00  0.00    -0.011 A 
ATOM     12  C   UNL     1       4.191   4.669  -9.450  0.00  0.00    +0.021 A 
ATOM     13  C   UNL     1       4.539   5.497 -10.460  0.00  0.00    +0.004 A 
ATOM     14  S   UNL     1       4.565   7.089  -9.653  0.00  0.00    -0.100 S 
ATOM     15  C   UNL     1       4.102   6.555  -8.014  0.00  0.00    +0.054 A 
BRANCH  13  16
ATOM     16  C   UNL     1       4.832   5.161 -11.899  0.00  0.00    +0.127 C 
BRANCH  16  17
ATOM     17  N   UNL     1       3.590   5.232 -12.681  0.00  0.00    -0.293 NA
ATOM     18  C   UNL     1       2.648   4.182 -12.269  0.00  0.00    +0.113 C 
ATOM     19  C   UNL     1       1.348   4.329 -13.065  0.00  0.00    +0.175 C 
ATOM     20  O   UNL     1       1.643   4.274 -14.463  0.00  0.00    -0.377 OA
ATOM     21  C   UNL     1       2.557   5.283 -14.899  0.00  0.00    +0.175 C 
ATOM     22  C   UNL     1       3.869   5.145 -14.122  0.00  0.00    +0.113 C 
ENDBRANCH  16  17
ENDBRANCH  13  16
ENDBRANCH   5  11
BRANCH   1  23
ATOM     23  N   UNL     1       2.359   0.474  -4.024  0.00  0.00    -0.312 N 
ATOM     24  H   UNL     1       2.812   0.024  -4.754  0.00  0.00    +0.152 HD
BRANCH  23  27
ATOM     25  C   UNL     1       1.359  -1.905  -1.401  0.00  0.00    +0.140 A 
ATOM     26  C   UNL     1       2.149  -1.182  -2.280  0.00  0.00    +0.071 A 
ATOM     27  C   UNL     1       1.565  -0.258  -3.136  0.00  0.00    +0.053 A 
ATOM     28  C   UNL     1       0.188  -0.061  -3.109  0.00  0.00    +0.064 A 
ATOM     29  C   UNL     1      -0.596  -0.785  -2.231  0.00  0.00    +0.045 A 
ATOM     30  C   UNL     1      -0.016  -1.710  -1.382  0.00  0.00    +0.084 A 
ATOM     31 CL   UNL     1      -1.006  -2.622  -0.286  0.00  0.00    -0.080 Cl
ATOM     32 CL   UNL     1      -0.544   1.094  -4.178  0.00  0.00    -0.082 Cl
BRANCH  25  34
ATOM     33  C   UNL     1       3.356  -2.878  -0.553  0.00  0.00    +0.277 C 
ATOM     34  O   UNL     1       1.929  -2.810  -0.562  0.00  0.00    -0.494 OA
ENDBRANCH  25  34
ENDBRANCH  23  27
ENDBRANCH   1  23
BRANCH  10  35
ATOM     35  C   UNL     1       1.898   1.656  -1.483  0.00  0.00    +0.103 C 
ATOM     36  N   UNL     1       1.597   1.030  -0.584  0.00  0.00    -0.191 NA
ENDBRANCH  10  35
TORSDOF 7
