REMARK  Name = CHEMBL445319
REMARK  13 active torsions:
REMARK  status: ('A' for Active; 'I' for Inactive)
REMARK    1  A    between atoms: C_1  and  N_2
REMARK    2  A    between atoms: N_2  and  C_3
REMARK    3  A    between atoms: N_2  and  C_4
REMARK    4  A    between atoms: C_4  and  C_5
REMARK    5  A    between atoms: C_7  and  C_11
REMARK    6  A    between atoms: C_12  and  C_13
REMARK    7  A    between atoms: C_18  and  O_19
REMARK    8  A    between atoms: O_19  and  C_20
REMARK    9  A    between atoms: C_21  and  N_27
REMARK   10  A    between atoms: C_22  and  C_25
REMARK   11  A    between atoms: N_27  and  C_28
REMARK   12  A    between atoms: C_30  and  O_36
REMARK   13  A    between atoms: O_36  and  C_37
REMARK                            x       y       z     vdW  Elec       q    Type
REMARK                         _______ _______ _______ _____ _____    ______ ____
ROOT
ATOM      1  C   UNL     1       1.634  -4.809  -8.944  0.00  0.00    +0.069 A 
ATOM      2  C   UNL     1       0.393  -4.192  -8.876  0.00  0.00    +0.049 A 
ATOM      3  C   UNL     1      -0.771  -4.961  -9.001  0.00  0.00    +0.074 A 
ATOM      4  C   UNL     1      -0.661  -6.360  -9.195  0.00  0.00    +0.026 A 
ATOM      5  C   UNL     1       0.604  -6.964  -9.261  0.00  0.00    +0.058 A 
ATOM      6  C   UNL     1       1.730  -6.202  -9.144  0.00  0.00    +0.136 A 
ATOM      7  C   UNL     1      -1.841  -7.130  -9.320  0.00  0.00    +0.060 A 
ATOM      8  C   UNL     1      -3.071  -6.461  -9.244  0.00  0.00    +0.091 A 
ATOM      9  C   UNL     1      -3.087  -5.070  -9.050  0.00  0.00    +0.132 A 
ATOM     10  N   UNL     1      -1.980  -4.381  -8.938  0.00  0.00    -0.254 NA
ENDROOT
BRANCH   1  12
ATOM     11  C   UNL     1       3.803  -3.383  -8.713  0.00  0.00    -0.059 C 
ATOM     12  C   UNL     1       2.826  -4.026  -8.818  0.00  0.00    -0.057 C 
BRANCH  11  15
ATOM     13  C   UNL     1       6.101  -0.504  -8.271  0.00  0.00    -0.014 A 
ATOM     14  C   UNL     1       4.920  -1.214  -8.388  0.00  0.00    +0.024 A 
ATOM     15  C   UNL     1       4.995  -2.599  -8.586  0.00  0.00    +0.044 A 
ATOM     16  C   UNL     1       6.254  -3.203  -8.658  0.00  0.00    +0.127 A 
ATOM     17  N   UNL     1       7.349  -2.482  -8.540  0.00  0.00    -0.262 NA
ATOM     18  C   UNL     1       7.307  -1.175  -8.359  0.00  0.00    +0.115 A 
BRANCH  13  19
ATOM     19  C   UNL     1       6.074   0.988  -8.057  0.00  0.00    +0.120 C 
BRANCH  19  21
ATOM     20  C   UNL     1       5.812   3.106  -9.200  0.00  0.00    +0.104 C 
ATOM     21  N   UNL     1       6.075   1.669  -9.358  0.00  0.00    -0.304 NA
ATOM     22  C   UNL     1       7.340   1.442 -10.070  0.00  0.00    +0.104 C 
ENDBRANCH  19  21
ENDBRANCH  13  19
ENDBRANCH  11  15
ENDBRANCH   1  12
BRANCH   6  23
ATOM     23  O   UNL     1       2.952  -6.791  -9.214  0.00  0.00    -0.494 OA
ATOM     24  C   UNL     1       2.981  -8.206  -9.417  0.00  0.00    +0.277 C 
ENDBRANCH   6  23
BRANCH   8  25
ATOM     25  C   UNL     1      -4.299  -7.189  -9.364  0.00  0.00    +0.103 C 
ATOM     26  N   UNL     1      -5.273  -7.766  -9.460  0.00  0.00    -0.191 NA
ENDBRANCH   8  25
BRANCH   7  27
ATOM     27  N   UNL     1      -1.783  -8.497  -9.511  0.00  0.00    -0.312 N 
ATOM     28  H   UNL     1      -1.881  -9.097  -8.755  0.00  0.00    +0.152 HD
BRANCH  27  29
ATOM     29  C   UNL     1      -1.583  -9.016 -10.794  0.00  0.00    +0.053 A 
ATOM     30  C   UNL     1      -1.325  -8.161 -11.857  0.00  0.00    +0.071 A 
ATOM     31  C   UNL     1      -1.127  -8.678 -13.127  0.00  0.00    +0.140 A 
ATOM     32  C   UNL     1      -1.188 -10.050 -13.334  0.00  0.00    +0.084 A 
ATOM     33  C   UNL     1      -1.445 -10.901 -12.275  0.00  0.00    +0.045 A 
ATOM     34  C   UNL     1      -1.637 -10.389 -11.005  0.00  0.00    +0.064 A 
ATOM     35 CL   UNL     1      -1.952 -11.460  -9.676  0.00  0.00    -0.082 Cl
ATOM     36 CL   UNL     1      -0.941 -10.698 -14.926  0.00  0.00    -0.080 Cl
BRANCH  31  37
ATOM     37  O   UNL     1      -0.875  -7.843 -14.169  0.00  0.00    -0.494 OA
ATOM     38  C   UNL     1      -0.709  -6.457 -13.865  0.00  0.00    +0.277 C 
ENDBRANCH  31  37
ENDBRANCH  27  29
ENDBRANCH   7  27
TORSDOF 9
