REMARK  Name = CHEMBL1087340
REMARK  13 active torsions:
REMARK  status: ('A' for Active; 'I' for Inactive)
REMARK    1  A    between atoms: C_1  and  N_2
REMARK    2  A    between atoms: N_2  and  C_3
REMARK    3  A    between atoms: N_2  and  C_4
REMARK    4  A    between atoms: C_4  and  C_5
REMARK    5  A    between atoms: C_8  and  C_11
REMARK    6  A    between atoms: C_12  and  C_13
REMARK    7  A    between atoms: C_18  and  O_19
REMARK    8  A    between atoms: O_19  and  C_20
REMARK    9  A    between atoms: C_21  and  N_27
REMARK   10  A    between atoms: C_22  and  C_25
REMARK   11  A    between atoms: N_27  and  C_28
REMARK   12  A    between atoms: C_30  and  O_36
REMARK   13  A    between atoms: O_36  and  C_37
REMARK                            x       y       z     vdW  Elec       q    Type
REMARK                         _______ _______ _______ _____ _____    ______ ____
ROOT
ATOM      1  C   UNL     1      -6.809   4.225   8.117  0.00  0.00    +0.019 A 
ATOM      2  C   UNL     1      -5.520   4.167   8.629  0.00  0.00    +0.040 A 
ATOM      3  C   UNL     1      -5.223   3.262   9.657  0.00  0.00    +0.074 A 
ATOM      4  C   UNL     1      -6.246   2.420  10.156  0.00  0.00    +0.026 A 
ATOM      5  C   UNL     1      -7.542   2.495   9.624  0.00  0.00    +0.058 A 
ATOM      6  C   UNL     1      -7.819   3.384   8.627  0.00  0.00    +0.128 A 
ATOM      7  C   UNL     1      -5.939   1.508  11.193  0.00  0.00    +0.060 A 
ATOM      8  C   UNL     1      -4.623   1.487  11.678  0.00  0.00    +0.091 A 
ATOM      9  C   UNL     1      -3.671   2.359  11.123  0.00  0.00    +0.132 A 
ATOM     10  N   UNL     1      -3.982   3.192  10.165  0.00  0.00    -0.254 NA
ENDROOT
BRANCH   1  12
ATOM     11  C   UNL     1      -6.164   5.979   6.548  0.00  0.00    +0.008 C 
ATOM     12  C   UNL     1      -7.124   5.175   7.037  0.00  0.00    +0.012 C 
BRANCH  11  16
ATOM     13  C   UNL     1      -7.073   8.717   3.436  0.00  0.00    -0.064 A 
ATOM     14  C   UNL     1      -5.787   8.654   3.945  0.00  0.00    +0.002 A 
ATOM     15  C   UNL     1      -5.484   7.767   4.956  0.00  0.00    +0.008 A 
ATOM     16  C   UNL     1      -6.480   6.930   5.468  0.00  0.00    -0.025 A 
ATOM     17  C   UNL     1      -7.776   6.999   4.949  0.00  0.00    +0.008 A 
ATOM     18  C   UNL     1      -8.065   7.895   3.942  0.00  0.00    +0.002 A 
BRANCH  13  19
ATOM     19  C   UNL     1      -7.395   9.689   2.331  0.00  0.00    -0.044 C 
BRANCH  19  21
ATOM     20  C   UNL     1      -6.696  11.571   3.644  0.00  0.00    -0.096 C 
ATOM     21  N   UNL     1      -7.819  10.969   2.913  0.00  0.00    +0.379 N 
ATOM     22  C   UNL     1      -8.248  11.877   1.840  0.00  0.00    -0.096 C 
ATOM     23  H   UNL     1      -8.588  10.812   3.547  0.00  0.00    -0.082 HD
ENDBRANCH  19  21
ENDBRANCH  13  19
ENDBRANCH  11  16
ENDBRANCH   1  12
BRANCH   6  24
ATOM     24  O   UNL     1      -9.077   3.457   8.119  0.00  0.00    -0.495 OA
ATOM     25  C   UNL     1     -10.055   2.578   8.679  0.00  0.00    +0.277 C 
ENDBRANCH   6  24
BRANCH   8  26
ATOM     26  C   UNL     1      -4.253   0.586  12.728  0.00  0.00    +0.103 C 
ATOM     27  N   UNL     1      -3.960  -0.129  13.561  0.00  0.00    -0.191 NA
ENDBRANCH   8  26
BRANCH   7  28
ATOM     28  N   UNL     1      -6.904   0.667  11.712  0.00  0.00    -0.312 N 
ATOM     29  H   UNL     1      -6.972  -0.247  11.395  0.00  0.00    +0.152 HD
BRANCH  28  30
ATOM     30  C   UNL     1      -7.782   1.134  12.695  0.00  0.00    +0.053 A 
ATOM     31  C   UNL     1      -7.764   2.472  13.065  0.00  0.00    +0.071 A 
ATOM     32  C   UNL     1      -8.636   2.931  14.039  0.00  0.00    +0.140 A 
ATOM     33  C   UNL     1      -9.527   2.052  14.643  0.00  0.00    +0.084 A 
ATOM     34  C   UNL     1      -9.544   0.720  14.274  0.00  0.00    +0.045 A 
ATOM     35  C   UNL     1      -8.679   0.260  13.298  0.00  0.00    +0.064 A 
ATOM     36 CL   UNL     1      -8.708  -1.412  12.832  0.00  0.00    -0.082 Cl
ATOM     37 CL   UNL     1     -10.618   2.628  15.864  0.00  0.00    -0.080 Cl
BRANCH  32  38
ATOM     38  O   UNL     1      -8.621   4.240  14.403  0.00  0.00    -0.494 OA
ATOM     39  C   UNL     1      -7.766   5.111  13.659  0.00  0.00    +0.277 C 
ENDBRANCH  32  38
ENDBRANCH  28  30
ENDBRANCH   7  28
TORSDOF 9
