REMARK  Name = CHEMBL162
REMARK  5 active torsions:
REMARK  status: ('A' for Active; 'I' for Inactive)
REMARK    1  A    between atoms: C_1  and  C_2
REMARK    2  A    between atoms: C_3  and  O_36
REMARK    3  A    between atoms: C_5  and  N_34
REMARK    4  A    between atoms: N_34  and  C_35
REMARK    5  A    between atoms: O_36  and  C_37
REMARK                            x       y       z     vdW  Elec       q    Type
REMARK                         _______ _______ _______ _____ _____    ______ ____
ROOT
ATOM      1  C   UNL     1      -0.128   1.594  -0.290  0.00  0.00    +0.069 C 
ATOM      2  C   UNL     1      -0.084   0.068  -0.185  0.00  0.00    +0.171 C 
ATOM      3  C   UNL     1       0.569  -0.450  -1.461  0.00  0.00    +0.157 C 
ATOM      4  C   UNL     1       0.916  -1.933  -1.288  0.00  0.00    -0.034 C 
ATOM      5  C   UNL     1       1.881  -2.061  -0.104  0.00  0.00    +0.041 C 
ATOM      6  C   UNL     1       1.211  -1.523   1.155  0.00  0.00    +0.221 C 
ATOM      7  O   UNL     1       0.658  -0.248   0.970  0.00  0.00    -0.328 OA
ATOM      8  N   UNL     1       0.225  -2.480   1.660  0.00  0.00    -0.312 N 
ATOM      9  C   UNL     1       0.477  -3.559   2.470  0.00  0.00    +0.052 A 
ATOM     10  C   UNL     1       1.672  -4.028   3.016  0.00  0.00    +0.026 A 
ATOM     11  C   UNL     1       1.601  -5.161   3.808  0.00  0.00    +0.002 A 
ATOM     12  C   UNL     1       0.406  -5.814   4.059  0.00  0.00    +0.001 A 
ATOM     13  C   UNL     1      -0.793  -5.369   3.530  0.00  0.00    +0.010 A 
ATOM     14  C   UNL     1      -0.742  -4.227   2.728  0.00  0.00    +0.008 A 
ATOM     15  C   UNL     1      -1.783  -3.487   2.021  0.00  0.00    +0.022 A 
ATOM     16  C   UNL     1      -1.139  -2.424   1.386  0.00  0.00    +0.077 A 
ATOM     17  C   UNL     1      -1.877  -1.512   0.623  0.00  0.00    +0.077 A 
ATOM     18  N   UNL     1      -1.470  -0.397  -0.104  0.00  0.00    -0.307 N 
ATOM     19  C   UNL     1      -2.561   0.189  -0.702  0.00  0.00    +0.053 A 
ATOM     20  C   UNL     1      -2.655   1.326  -1.505  0.00  0.00    +0.026 A 
ATOM     21  C   UNL     1      -3.916   1.670  -1.964  0.00  0.00    +0.002 A 
ATOM     22  C   UNL     1      -5.043   0.931  -1.650  0.00  0.00    +0.001 A 
ATOM     23  C   UNL     1      -4.975  -0.201  -0.856  0.00  0.00    +0.010 A 
ATOM     24  C   UNL     1      -3.713  -0.563  -0.383  0.00  0.00    +0.008 A 
ATOM     25  C   UNL     1      -3.265  -1.669   0.492  0.00  0.00    +0.015 A 
ATOM     26  C   UNL     1      -3.905  -2.733   1.119  0.00  0.00    -0.008 A 
ATOM     27  C   UNL     1      -3.182  -3.645   1.881  0.00  0.00    +0.052 A 
ATOM     28  C   UNL     1      -4.116  -4.651   2.411  0.00  0.00    +0.245 C 
ATOM     29  O   UNL     1      -3.799  -5.589   3.117  0.00  0.00    -0.270 OA
ATOM     30  N   UNL     1      -5.369  -4.385   2.006  0.00  0.00    -0.307 N 
ATOM     31  C   UNL     1      -5.346  -3.177   1.174  0.00  0.00    +0.141 C 
ATOM     32  H   UNL     1      -6.158  -4.906   2.226  0.00  0.00    +0.149 HD
ENDROOT
BRANCH   4  33
ATOM     33  N   UNL     1      -0.306  -2.701  -1.019  0.00  0.00    +0.381 N 
ATOM     34  C   UNL     1       0.015  -4.133  -0.975  0.00  0.00    -0.100 C 
ATOM     35  H   UNL     1      -0.695  -2.415  -0.133  0.00  0.00    -0.086 HD
ATOM     36  H   UNL     1      -0.979  -2.530  -1.752  0.00  0.00    -0.086 HD
ENDBRANCH   4  33
BRANCH   3  37
ATOM     37  O   UNL     1      -0.335  -0.296  -2.556  0.00  0.00    -0.377 OA
ATOM     38  C   UNL     1       0.307  -0.089  -3.816  0.00  0.00    +0.194 C 
ENDBRANCH   3  37
TORSDOF 2
