REMARK  Name = CHEMBL373101
REMARK  9 active torsions:
REMARK  status: ('A' for Active; 'I' for Inactive)
REMARK    1  A    between atoms: C_1  and  N_2
REMARK    2  A    between atoms: N_5  and  C_8
REMARK    3  A    between atoms: C_8  and  C_9
REMARK    4  A    between atoms: C_12  and  C_15
REMARK    5  A    between atoms: C_20  and  N_26
REMARK    6  A    between atoms: C_21  and  C_24
REMARK    7  A    between atoms: N_26  and  C_27
REMARK    8  A    between atoms: C_29  and  O_35
REMARK    9  A    between atoms: O_35  and  C_36
REMARK                            x       y       z     vdW  Elec       q    Type
REMARK                         _______ _______ _______ _____ _____    ______ ____
ROOT
ATOM      1  C   UNL     1       1.249 -10.061   7.844  0.00  0.00    +0.040 A 
ATOM      2  C   UNL     1       0.681  -8.998   8.473  0.00  0.00    +0.046 A 
ATOM      3  C   UNL     1       1.490  -7.973   8.992  0.00  0.00    +0.081 A 
ATOM      4  C   UNL     1       2.878  -8.148   8.807  0.00  0.00    +0.061 A 
ATOM      5  S   UNL     1       2.993  -9.696   7.947  0.00  0.00    -0.083 S 
ATOM      6  C   UNL     1       3.802  -7.224   9.265  0.00  0.00    +0.066 A 
ATOM      7  C   UNL     1       3.312  -6.082   9.933  0.00  0.00    +0.092 A 
ATOM      8  C   UNL     1       1.925  -5.955  10.091  0.00  0.00    +0.132 A 
ATOM      9  N   UNL     1       1.091  -6.852   9.643  0.00  0.00    -0.253 NA
ENDROOT
BRANCH   1  13
ATOM     10  C   UNL     1      -0.663 -13.382   6.119  0.00  0.00    -0.046 A 
ATOM     11  C   UNL     1       0.710 -13.254   5.955  0.00  0.00    +0.005 A 
ATOM     12  C   UNL     1       1.344 -12.162   6.520  0.00  0.00    +0.029 A 
ATOM     13  C   UNL     1       0.587 -11.233   7.233  0.00  0.00    +0.078 A 
ATOM     14  N   UNL     1      -0.725 -11.393   7.367  0.00  0.00    -0.254 NA
ATOM     15  C   UNL     1      -1.353 -12.420   6.834  0.00  0.00    +0.113 A 
BRANCH  10  16
ATOM     16  C   UNL     1      -1.394 -14.555   5.520  0.00  0.00    -0.041 C 
BRANCH  16  21
ATOM     17  C   UNL     1      -2.366 -14.422  -0.028  0.00  0.00    +0.104 C 
ATOM     18  N   UNL     1      -1.954 -14.717   1.351  0.00  0.00    -0.309 NA
ATOM     19  C   UNL     1      -3.122 -14.951   2.211  0.00  0.00    +0.065 C 
ATOM     20  C   UNL     1      -2.648 -15.313   3.621  0.00  0.00    -0.063 C 
ATOM     21  N   UNL     1      -1.833 -14.216   4.160  0.00  0.00    +0.384 N 
ATOM     22  C   UNL     1      -0.658 -14.010   3.304  0.00  0.00    -0.063 C 
ATOM     23  C   UNL     1      -1.115 -13.638   1.891  0.00  0.00    +0.065 C 
ATOM     24  H   UNL     1      -2.383 -13.370   4.186  0.00  0.00    -0.081 HD
ENDBRANCH  16  21
ENDBRANCH  10  16
ENDBRANCH   1  13
BRANCH   7  25
ATOM     25  C   UNL     1       4.205  -5.082  10.435  0.00  0.00    +0.103 C 
ATOM     26  N   UNL     1       4.914  -4.288  10.834  0.00  0.00    -0.191 NA
ENDBRANCH   7  25
BRANCH   6  27
ATOM     27  N   UNL     1       5.162  -7.415   9.074  0.00  0.00    -0.311 N 
ATOM     28  H   UNL     1       5.668  -7.955   9.700  0.00  0.00    +0.152 HD
BRANCH  27  29
ATOM     29  C   UNL     1       5.803  -6.827   7.979  0.00  0.00    +0.054 A 
ATOM     30  C   UNL     1       5.103  -5.966   7.144  0.00  0.00    +0.071 A 
ATOM     31  C   UNL     1       5.742  -5.386   6.060  0.00  0.00    +0.140 A 
ATOM     32  C   UNL     1       7.079  -5.666   5.810  0.00  0.00    +0.084 A 
ATOM     33  C   UNL     1       7.774  -6.524   6.642  0.00  0.00    +0.045 A 
ATOM     34  C   UNL     1       7.142  -7.100   7.728  0.00  0.00    +0.064 A 
ATOM     35 CL   UNL     1       8.021  -8.170   8.776  0.00  0.00    -0.082 Cl
ATOM     36 CL   UNL     1       7.878  -4.939   4.451  0.00  0.00    -0.080 Cl
BRANCH  31  37
ATOM     37  O   UNL     1       5.059  -4.543   5.240  0.00  0.00    -0.494 OA
ATOM     38  C   UNL     1       3.660  -4.388   5.488  0.00  0.00    +0.277 C 
ENDBRANCH  31  37
ENDBRANCH  27  29
ENDBRANCH   6  27
TORSDOF 7
