REMARK  Name = CHEMBL415625
REMARK  9 active torsions:
REMARK  status: ('A' for Active; 'I' for Inactive)
REMARK    1  A    between atoms: C_1  and  N_2
REMARK    2  A    between atoms: N_5  and  C_8
REMARK    3  A    between atoms: C_8  and  C_9
REMARK    4  A    between atoms: C_12  and  C_14
REMARK    5  A    between atoms: C_22  and  C_35
REMARK    6  A    between atoms: C_23  and  N_24
REMARK    7  A    between atoms: N_24  and  C_25
REMARK    8  A    between atoms: C_27  and  O_33
REMARK    9  A    between atoms: O_33  and  C_34
REMARK                            x       y       z     vdW  Elec       q    Type
REMARK                         _______ _______ _______ _____ _____    ______ ____
ROOT
ATOM      1  C   UNL     1       2.599  -4.664   5.250  0.00  0.00    +0.019 A 
ATOM      2  C   UNL     1       2.588  -5.219   6.541  0.00  0.00    +0.012 A 
ATOM      3  C   UNL     1       3.708  -5.789   7.058  0.00  0.00    +0.012 A 
ATOM      4  C   UNL     1       4.890  -5.829   6.301  0.00  0.00    +0.023 A 
ATOM      5  C   UNL     1       4.916  -5.274   4.998  0.00  0.00    +0.073 A 
ATOM      6  C   UNL     1       3.751  -4.695   4.479  0.00  0.00    +0.040 A 
ATOM      7  N   UNL     1       6.043  -5.310   4.271  0.00  0.00    -0.254 NA
ATOM      8  C   UNL     1       7.145  -5.849   4.726  0.00  0.00    +0.132 A 
ATOM      9  C   UNL     1       7.210  -6.422   6.005  0.00  0.00    +0.091 A 
ATOM     10  C   UNL     1       6.066  -6.417   6.819  0.00  0.00    +0.060 A 
ENDROOT
BRANCH   1  14
ATOM     11  C   UNL     1      -0.016  -3.033   3.342  0.00  0.00    +0.120 A 
ATOM     12  C   UNL     1      -0.707  -3.298   4.468  0.00  0.00    +0.046 A 
ATOM     13  C   UNL     1       0.176  -3.951   5.351  0.00  0.00    +0.050 A 
ATOM     14  C   UNL     1       1.371  -4.049   4.707  0.00  0.00    +0.135 A 
ATOM     15  O   UNL     1       1.237  -3.494   3.487  0.00  0.00    -0.458 OA
BRANCH  11  16
ATOM     16  C   UNL     1      -0.561  -2.341   2.119  0.00  0.00    +0.158 C 
BRANCH  16  21
ATOM     17  C   UNL     1       0.745   3.105   1.502  0.00  0.00    -0.096 C 
ATOM     18  N   UNL     1       0.557   1.658   1.330  0.00  0.00    +0.379 N 
ATOM     19  C   UNL     1      -0.876   1.340   1.387  0.00  0.00    -0.064 C 
ATOM     20  C   UNL     1      -1.073  -0.165   1.189  0.00  0.00    +0.066 C 
ATOM     21  N   UNL     1      -0.350  -0.893   2.241  0.00  0.00    -0.299 NA
ATOM     22  C   UNL     1       1.083  -0.565   2.213  0.00  0.00    +0.066 C 
ATOM     23  C   UNL     1       1.262   0.943   2.402  0.00  0.00    -0.064 C 
ATOM     24  H   UNL     1       0.929   1.375   0.436  0.00  0.00    -0.082 HD
ENDBRANCH  16  21
ENDBRANCH  11  16
ENDBRANCH   1  14
BRANCH  10  25
ATOM     25  N   UNL     1       6.089  -6.970   8.084  0.00  0.00    -0.312 N 
ATOM     26  H   UNL     1       5.263  -7.258   8.502  0.00  0.00    +0.152 HD
BRANCH  25  27
ATOM     27  C   UNL     1       7.304  -7.115   8.761  0.00  0.00    +0.053 A 
ATOM     28  C   UNL     1       7.809  -8.383   9.018  0.00  0.00    +0.071 A 
ATOM     29  C   UNL     1       9.013  -8.523   9.689  0.00  0.00    +0.140 A 
ATOM     30  C   UNL     1       9.711  -7.397  10.105  0.00  0.00    +0.084 A 
ATOM     31  C   UNL     1       9.207  -6.136   9.849  0.00  0.00    +0.045 A 
ATOM     32  C   UNL     1       8.009  -5.991   9.174  0.00  0.00    +0.064 A 
ATOM     33 CL   UNL     1       7.382  -4.405   8.848  0.00  0.00    -0.082 Cl
ATOM     34 CL   UNL     1      11.219  -7.574  10.946  0.00  0.00    -0.080 Cl
BRANCH  29  35
ATOM     35  O   UNL     1       9.510  -9.763   9.942  0.00  0.00    -0.494 OA
ATOM     36  C   UNL     1       8.800 -10.872   9.387  0.00  0.00    +0.277 C 
ENDBRANCH  29  35
ENDBRANCH  25  27
ENDBRANCH  10  25
BRANCH   9  37
ATOM     37  C   UNL     1       8.430  -7.005   6.476  0.00  0.00    +0.103 C 
ATOM     38  N   UNL     1       9.398  -7.468   6.849  0.00  0.00    -0.191 NA
ENDBRANCH   9  37
TORSDOF 7
