REMARK  Name = CHEMBL214894
REMARK  8 active torsions:
REMARK  status: ('A' for Active; 'I' for Inactive)
REMARK    1  A    between atoms: C_1  and  N_2
REMARK    2  A    between atoms: N_5  and  C_8
REMARK    3  A    between atoms: C_8  and  C_9
REMARK    4  A    between atoms: C_9  and  O_10
REMARK    5  A    between atoms: O_10  and  C_11
REMARK    6  A    between atoms: C_15  and  O_17
REMARK    7  A    between atoms: O_17  and  C_18
REMARK    8  A    between atoms: N_28  and  C_29
REMARK                            x       y       z     vdW  Elec       q    Type
REMARK                         _______ _______ _______ _____ _____    ______ ____
ROOT
ATOM      1  C   UNL     1      -0.714  -3.323   5.164  0.00  0.00    +0.126 A 
ATOM      2  C   UNL     1       0.630  -3.318   5.479  0.00  0.00    +0.074 A 
ATOM      3  C   UNL     1       1.052  -3.800   6.722  0.00  0.00    +0.083 A 
ATOM      4  C   UNL     1       0.093  -4.290   7.643  0.00  0.00    +0.082 A 
ATOM      5  C   UNL     1      -1.270  -4.285   7.301  0.00  0.00    +0.137 A 
ATOM      6  C   UNL     1      -1.660  -3.799   6.072  0.00  0.00    +0.092 A 
ATOM      7  C   UNL     1       0.549  -4.770   8.891  0.00  0.00    +0.138 A 
ATOM      8  N   UNL     1       1.854  -4.739   9.137  0.00  0.00    -0.220 NA
ATOM      9  C   UNL     1       2.714  -4.273   8.246  0.00  0.00    +0.223 A 
ATOM     10  N   UNL     1       2.348  -3.815   7.073  0.00  0.00    -0.235 NA
ATOM     11  N   UNL     1      -0.336  -5.258   9.829  0.00  0.00    -0.295 N 
ATOM     12  H   UNL     1      -1.276  -5.353   9.606  0.00  0.00    +0.154 HD
ENDROOT
BRANCH  11  13
ATOM     13  C   UNL     1       0.120  -5.616  11.104  0.00  0.00    +0.097 A 
ATOM     14  C   UNL     1       1.101  -6.590  11.243  0.00  0.00    +0.066 A 
ATOM     15  C   UNL     1       1.551  -6.944  12.502  0.00  0.00    +0.025 A 
ATOM     16  C   UNL     1       1.026  -6.330  13.624  0.00  0.00    +0.051 A 
ATOM     17  C   UNL     1       0.046  -5.356  13.494  0.00  0.00    +0.164 A 
ATOM     18  C   UNL     1      -0.404  -4.992  12.233  0.00  0.00    +0.185 A 
ATOM     19  O   UNL     1      -1.356  -4.029  12.083  0.00  0.00    -0.483 OA
ATOM     20  C   UNL     1      -2.121  -3.694  13.245  0.00  0.00    +0.270 C 
ATOM     21  C   UNL     1      -1.153  -3.524  14.425  0.00  0.00    +0.270 C 
ATOM     22  O   UNL     1      -0.460  -4.766  14.612  0.00  0.00    -0.485 OA
ATOM     23 CL   UNL     1       1.760  -7.365   9.837  0.00  0.00    -0.081 Cl
ENDBRANCH  11  13
BRANCH   1  24
ATOM     24  O   UNL     1      -1.120  -2.853   3.956  0.00  0.00    -0.491 OA
BRANCH  24  25
ATOM     25  C   UNL     1      -0.105  -2.379   3.069  0.00  0.00    +0.244 C 
BRANCH  25  26
ATOM     26  C   UNL     1      -0.750  -1.894   1.769  0.00  0.00    +0.125 C 
BRANCH  26  31
ATOM     27  C   UNL     1      -3.376   3.088   1.955  0.00  0.00    -0.096 C 
ATOM     28  N   UNL     1      -2.504   1.950   1.635  0.00  0.00    +0.379 N 
ATOM     29  C   UNL     1      -3.325   0.802   1.230  0.00  0.00    -0.064 C 
ATOM     30  C   UNL     1      -2.416  -0.378   0.879  0.00  0.00    +0.066 C 
ATOM     31  N   UNL     1      -1.598  -0.727   2.049  0.00  0.00    -0.303 NA
ATOM     32  C   UNL     1      -0.788   0.421   2.482  0.00  0.00    +0.066 C 
ATOM     33  C   UNL     1      -1.711   1.594   2.819  0.00  0.00    -0.064 C 
ATOM     34  H   UNL     1      -1.884   2.203   0.880  0.00  0.00    -0.082 HD
ENDBRANCH  26  31
ENDBRANCH  25  26
ENDBRANCH  24  25
ENDBRANCH   1  24
BRANCH   5  35
ATOM     35  O   UNL     1      -2.196  -4.752   8.177  0.00  0.00    -0.488 OA
BRANCH  35  36
ATOM     36  C   UNL     1      -3.568  -4.642   7.791  0.00  0.00    +0.178 C 
ATOM     37  C   UNL     1      -4.083  -3.239   8.127  0.00  0.00    +0.072 C 
ATOM     38  C   UNL     1      -5.572  -3.155   7.782  0.00  0.00    +0.163 C 
ATOM     39  O   UNL     1      -6.284  -4.164   8.503  0.00  0.00    -0.380 OA
ATOM     40  C   UNL     1      -5.877  -5.498   8.194  0.00  0.00    +0.163 C 
ATOM     41  C   UNL     1      -4.400  -5.676   8.555  0.00  0.00    +0.072 C 
ENDBRANCH  35  36
ENDBRANCH   5  35
TORSDOF 7
