REMARK  Name = CHEMBL168916
REMARK  6 active torsions:
REMARK  status: ('A' for Active; 'I' for Inactive)
REMARK    1  A    between atoms: C_4  and  C_7
REMARK    2  A    between atoms: N_9  and  C_17
REMARK    3  A    between atoms: C_12  and  N_16
REMARK    4  A    between atoms: C_17  and  C_18
REMARK    5  A    between atoms: C_17  and  C_20
REMARK    6  A    between atoms: C_18  and  O_19
REMARK                            x       y       z     vdW  Elec       q    Type
REMARK                         _______ _______ _______ _____ _____    ______ ____
ROOT
ATOM      1  C   UNL     1       3.929  -0.939   0.541  0.00  0.00    +0.012 A 
ATOM      2  C   UNL     1       4.766  -0.675  -0.493  0.00  0.00    +0.097 A 
ATOM      3  N   UNL     1       5.914  -1.405  -0.352  0.00  0.00    -0.322 N 
ATOM      4  C   UNL     1       5.857  -2.167   0.783  0.00  0.00    +0.147 A 
ATOM      5  C   UNL     1       4.620  -1.910   1.399  0.00  0.00    +0.066 A 
ATOM      6  C   UNL     1       4.313  -2.570   2.597  0.00  0.00    +0.129 A 
ATOM      7  N   UNL     1       5.211  -3.411   3.102  0.00  0.00    -0.220 NA
ATOM      8  C   UNL     1       6.364  -3.622   2.493  0.00  0.00    +0.225 A 
ATOM      9  N   UNL     1       6.689  -3.031   1.364  0.00  0.00    -0.218 NA
ENDROOT
BRANCH   1  13
ATOM     10  C   UNL     1       0.073   0.733   1.182  0.00  0.00    +0.000 A 
ATOM     11  C   UNL     1       1.146   1.561   0.905  0.00  0.00    +0.001 A 
ATOM     12  C   UNL     1       2.400   1.024   0.696  0.00  0.00    +0.008 A 
ATOM     13  C   UNL     1       2.585  -0.356   0.765  0.00  0.00    -0.016 A 
ATOM     14  C   UNL     1       1.500  -1.186   1.044  0.00  0.00    +0.008 A 
ATOM     15  C   UNL     1       0.250  -0.638   1.251  0.00  0.00    +0.001 A 
ENDBRANCH   1  13
BRANCH   6  16
ATOM     16  N   UNL     1       3.107  -2.351   3.238  0.00  0.00    -0.343 N 
ATOM     17  H   UNL     1       2.461  -1.735   2.859  0.00  0.00    +0.144 HD
ATOM     18  H   UNL     1       2.907  -2.814   4.067  0.00  0.00    +0.144 HD
ENDBRANCH   6  16
BRANCH   3  19
ATOM     19  C   UNL     1       7.044  -1.375  -1.284  0.00  0.00    +0.144 C 
BRANCH  19  20
ATOM     20  C   UNL     1       7.682  -0.010  -1.257  0.00  0.00    -0.023 A 
ATOM     21  C   UNL     1       6.986   1.088  -1.727  0.00  0.00    +0.006 A 
ATOM     22  C   UNL     1       7.571   2.340  -1.702  0.00  0.00    +0.000 A 
ATOM     23  C   UNL     1       8.852   2.494  -1.206  0.00  0.00    +0.000 A 
ATOM     24  C   UNL     1       9.548   1.397  -0.736  0.00  0.00    +0.000 A 
ATOM     25  C   UNL     1       8.962   0.145  -0.757  0.00  0.00    +0.006 A 
ENDBRANCH  19  20
BRANCH  19  26
ATOM     26  C   UNL     1       6.547  -1.677  -2.699  0.00  0.00    +0.185 C 
BRANCH  26  27
ATOM     27  O   UNL     1       7.662  -1.764  -3.588  0.00  0.00    -0.393 OA
ATOM     28  H   UNL     1       7.420  -1.953  -4.505  0.00  0.00    +0.209 HD
ENDBRANCH  26  27
ENDBRANCH  19  26
ENDBRANCH   3  19
TORSDOF 6
