REMARK  Name = CHEMBL426990
REMARK  7 active torsions:
REMARK  status: ('A' for Active; 'I' for Inactive)
REMARK    1  A    between atoms: C_1  and  O_2
REMARK    2  A    between atoms: O_2  and  C_3
REMARK    3  A    between atoms: C_5  and  N_11
REMARK    4  A    between atoms: N_11  and  C_12
REMARK    5  A    between atoms: C_13  and  C_33
REMARK    6  A    between atoms: C_19  and  C_21
REMARK    7  A    between atoms: C_24  and  N_27
REMARK                            x       y       z     vdW  Elec       q    Type
REMARK                         _______ _______ _______ _____ _____    ______ ____
ROOT
ATOM      1  C   UNL     1       2.628   1.819   4.169  0.00  0.00    +0.066 A 
ATOM      2  C   UNL     1       2.381   2.529   2.973  0.00  0.00    +0.092 A 
ATOM      3  C   UNL     1       2.561   3.918   2.983  0.00  0.00    +0.132 A 
ATOM      4  N   UNL     1       2.944   4.561   4.051  0.00  0.00    -0.253 NA
ATOM      5  C   UNL     1       3.199   3.945   5.233  0.00  0.00    +0.080 A 
ATOM      6  C   UNL     1       3.026   2.544   5.277  0.00  0.00    +0.060 A 
ATOM      7  S   UNL     1       3.437   2.126   6.952  0.00  0.00    -0.085 S 
ATOM      8  C   UNL     1       3.809   3.769   7.542  0.00  0.00    +0.022 A 
ATOM      9  C   UNL     1       3.614   4.538   6.437  0.00  0.00    +0.044 A 
ENDROOT
BRANCH   8  10
ATOM     10  C   UNL     1       4.237   4.188   8.893  0.00  0.00    -0.011 A 
ATOM     11  C   UNL     1       4.477   5.537   9.163  0.00  0.00    +0.011 A 
ATOM     12  C   UNL     1       4.875   5.925  10.424  0.00  0.00    +0.024 A 
ATOM     13  C   UNL     1       5.039   4.974  11.426  0.00  0.00    +0.030 A 
ATOM     14  C   UNL     1       4.801   3.630  11.159  0.00  0.00    +0.024 A 
ATOM     15  C   UNL     1       4.397   3.237   9.902  0.00  0.00    +0.011 A 
BRANCH  13  16
ATOM     16  N   UNL     1       5.444   5.370  12.701  0.00  0.00    -0.326 N 
ATOM     17  C   UNL     1       5.741   4.375  13.744  0.00  0.00    +0.133 C 
ATOM     18  C   UNL     1       7.112   4.702  14.347  0.00  0.00    +0.178 C 
ATOM     19  O   UNL     1       7.134   6.072  14.752  0.00  0.00    -0.377 OA
ATOM     20  C   UNL     1       6.965   7.003  13.679  0.00  0.00    +0.178 C 
ATOM     21  C   UNL     1       5.592   6.794  13.041  0.00  0.00    +0.133 C 
ENDBRANCH  13  16
ENDBRANCH   8  10
BRANCH   1  22
ATOM     22  N   UNL     1       2.471   0.443   4.231  0.00  0.00    -0.311 N 
ATOM     23  H   UNL     1       2.442  -0.079   3.414  0.00  0.00    +0.152 HD
BRANCH  22  26
ATOM     24  C   UNL     1       3.293  -1.560   7.206  0.00  0.00    +0.140 A 
ATOM     25  C   UNL     1       3.413  -0.933   5.976  0.00  0.00    +0.071 A 
ATOM     26  C   UNL     1       2.353  -0.192   5.472  0.00  0.00    +0.054 A 
ATOM     27  C   UNL     1       1.175  -0.080   6.201  0.00  0.00    +0.064 A 
ATOM     28  C   UNL     1       1.059  -0.708   7.428  0.00  0.00    +0.045 A 
ATOM     29  C   UNL     1       2.112  -1.451   7.928  0.00  0.00    +0.084 A 
ATOM     30 CL   UNL     1       1.960  -2.244   9.466  0.00  0.00    -0.080 Cl
ATOM     31 CL   UNL     1      -0.151   0.847   5.572  0.00  0.00    -0.082 Cl
BRANCH  24  33
ATOM     32  C   UNL     1       5.550  -2.266   6.960  0.00  0.00    +0.277 C 
ATOM     33  O   UNL     1       4.329  -2.287   7.702  0.00  0.00    -0.494 OA
ENDBRANCH  24  33
ENDBRANCH  22  26
ENDBRANCH   1  22
BRANCH   2  34
ATOM     34  C   UNL     1       1.960   1.848   1.785  0.00  0.00    +0.103 C 
ATOM     35  N   UNL     1       1.627   1.308   0.843  0.00  0.00    -0.191 NA
ENDBRANCH   2  34
TORSDOF 6
