REMARK  Name = CHEMBL221236
REMARK  10 active torsions:
REMARK  status: ('A' for Active; 'I' for Inactive)
REMARK    1  A    between atoms: C_1  and  C_2
REMARK    2  A    between atoms: C_2  and  O_3
REMARK    3  A    between atoms: O_3  and  C_4
REMARK    4  A    between atoms: N_6  and  C_36
REMARK    5  A    between atoms: N_9  and  C_10
REMARK    6  A    between atoms: C_13  and  N_16
REMARK    7  A    between atoms: C_20  and  C_35
REMARK    8  A    between atoms: C_22  and  C_27
REMARK    9  A    between atoms: C_28  and  C_34
REMARK   10  A    between atoms: C_32  and  C_33
REMARK                            x       y       z     vdW  Elec       q    Type
REMARK                         _______ _______ _______ _____ _____    ______ ____
ROOT
ATOM      1  N   UNL     1       3.604  -5.321   2.178  0.00  0.00    -0.282 N 
ATOM      2  C   UNL     1       4.724  -5.054   1.410  0.00  0.00    +0.240 A 
ATOM      3  N   UNL     1       5.797  -5.814   1.549  0.00  0.00    -0.211 NA
ATOM      4  C   UNL     1       6.878  -5.553   0.805  0.00  0.00    +0.097 A 
ATOM      5  C   UNL     1       8.046  -6.326   0.907  0.00  0.00    -0.022 A 
ATOM      6  C   UNL     1       9.124  -6.030   0.134  0.00  0.00    +0.014 A 
ATOM      7  C   UNL     1       9.089  -4.958  -0.772  0.00  0.00    -0.015 A 
ATOM      8  C   UNL     1       7.954  -4.178  -0.897  0.00  0.00    +0.040 A 
ATOM      9  C   UNL     1       6.830  -4.467  -0.109  0.00  0.00    +0.112 A 
ATOM     10  N   UNL     1       5.709  -3.742  -0.194  0.00  0.00    -0.144 NA
ATOM     11  N   UNL     1       4.695  -4.040   0.543  0.00  0.00    -0.112 NA
ATOM     12  C   UNL     1       8.105  -7.480   1.874  0.00  0.00    +0.046 C 
ATOM     13  H   UNL     1       3.639  -6.001   2.869  0.00  0.00    +0.155 HD
ENDROOT
BRANCH   7  14
ATOM     14  C   UNL     1      10.281  -4.658  -1.603  0.00  0.00    -0.012 A 
ATOM     15  C   UNL     1      11.466  -4.242  -1.000  0.00  0.00    -0.042 A 
ATOM     16  C   UNL     1      12.572  -3.965  -1.778  0.00  0.00    +0.004 A 
ATOM     17  C   UNL     1      12.505  -4.100  -3.153  0.00  0.00    +0.001 A 
ATOM     18  C   UNL     1      11.331  -4.513  -3.757  0.00  0.00    +0.004 A 
ATOM     19  C   UNL     1      10.220  -4.798  -2.988  0.00  0.00    -0.042 A 
ATOM     20  C   UNL     1       8.944  -5.253  -3.646  0.00  0.00    +0.044 C 
ATOM     21  C   UNL     1      11.541  -4.094   0.497  0.00  0.00    +0.044 C 
ENDBRANCH   7  14
BRANCH   1  25
ATOM     22  C   UNL     1       0.074  -3.200   1.520  0.00  0.00    +0.032 A 
ATOM     23  C   UNL     1       0.905  -3.514   0.452  0.00  0.00    +0.025 A 
ATOM     24  C   UNL     1       2.073  -4.215   0.670  0.00  0.00    +0.025 A 
ATOM     25  C   UNL     1       2.418  -4.608   1.957  0.00  0.00    +0.034 A 
ATOM     26  C   UNL     1       1.587  -4.295   3.025  0.00  0.00    +0.025 A 
ATOM     27  C   UNL     1       0.421  -3.588   2.808  0.00  0.00    +0.025 A 
BRANCH  22  33
ATOM     28  C   UNL     1      -2.062  -2.245   2.395  0.00  0.00    +0.189 C 
ATOM     29  C   UNL     1      -2.402  -0.751   2.420  0.00  0.00    -0.027 C 
ATOM     30  N   UNL     1      -2.883  -0.337   1.096  0.00  0.00    +0.382 N 
ATOM     31  C   UNL     1      -1.809  -0.481   0.105  0.00  0.00    -0.060 C 
ATOM     32  C   UNL     1      -1.439  -1.961  -0.034  0.00  0.00    +0.089 C 
ATOM     33  N   UNL     1      -1.111  -2.488   1.299  0.00  0.00    -0.308 N 
ATOM     34  C   UNL     1      -3.312   1.067   1.149  0.00  0.00    -0.096 C 
ATOM     35  H   UNL     1      -3.666  -0.915   0.828  0.00  0.00    -0.082 HD
BRANCH  28  36
ATOM     36  O   UNL     1      -3.252  -3.004   2.174  0.00  0.00    -0.361 OA
BRANCH  36  38
ATOM     37  C   UNL     1      -4.438  -5.110   2.176  0.00  0.00    +0.034 C 
ATOM     38  C   UNL     1      -3.109  -4.400   2.444  0.00  0.00    +0.159 C 
ENDBRANCH  36  38
ENDBRANCH  28  36
ENDBRANCH  22  33
ENDBRANCH   1  25
TORSDOF 5
