REMARK  Name = CHEMBL51028
REMARK  7 active torsions:
REMARK  status: ('A' for Active; 'I' for Inactive)
REMARK    1  A    between atoms: C_1  and  N_2
REMARK    2  A    between atoms: N_5  and  C_8
REMARK    3  A    between atoms: C_8  and  C_9
REMARK    4  A    between atoms: C_9  and  C_10
REMARK    5  A    between atoms: C_10  and  N_11
REMARK    6  A    between atoms: C_17  and  C_32
REMARK    7  A    between atoms: N_25  and  C_26
REMARK                            x       y       z     vdW  Elec       q    Type
REMARK                         _______ _______ _______ _____ _____    ______ ____
ROOT
ATOM      1  N   UNL     1       0.430  -6.471   3.876  0.00  0.00    -0.313 N 
ATOM      2  C   UNL     1       0.519  -7.823   4.146  0.00  0.00    +0.217 A 
ATOM      3  N   UNL     1       0.127  -8.688   3.213  0.00  0.00    -0.222 NA
ATOM      4  C   UNL     1       0.189  -9.989   3.413  0.00  0.00    +0.126 A 
ATOM      5  C   UNL     1       0.681 -10.455   4.644  0.00  0.00    +0.038 A 
ATOM      6  C   UNL     1       0.779 -11.826   4.934  0.00  0.00    +0.025 A 
ATOM      7  C   UNL     1       1.276 -12.194   6.173  0.00  0.00    +0.026 A 
ATOM      8  C   UNL     1       1.664 -11.195   7.091  0.00  0.00    +0.136 A 
ATOM      9  N   UNL     1       1.562  -9.915   6.796  0.00  0.00    -0.212 NA
ATOM     10  C   UNL     1       1.090  -9.505   5.617  0.00  0.00    +0.167 A 
ATOM     11  N   UNL     1       0.994  -8.204   5.317  0.00  0.00    -0.195 NA
ATOM     12  N   UNL     1       2.161 -11.568   8.331  0.00  0.00    -0.254 N 
ATOM     13  C   UNL     1       2.535 -10.625   9.218  0.00  0.00    +0.305 C 
ATOM     14  O   UNL     1       2.437  -9.448   8.932  0.00  0.00    -0.252 OA
ATOM     15  N   UNL     1       3.019 -10.988  10.423  0.00  0.00    -0.296 N 
ATOM     16  H   UNL     1       0.713  -5.824   4.540  0.00  0.00    +0.149 HD
ATOM     17  H   UNL     1       2.240 -12.507   8.559  0.00  0.00    +0.158 HD
ATOM     18  H   UNL     1       3.098 -11.927  10.651  0.00  0.00    +0.151 HD
ENDROOT
BRANCH   7  19
ATOM     19  C   UNL     1       1.401 -13.627   6.533  0.00  0.00    +0.022 A 
ATOM     20  C   UNL     1       0.340 -14.289   7.151  0.00  0.00    +0.050 A 
ATOM     21  C   UNL     1       0.462 -15.624   7.483  0.00  0.00    +0.021 A 
ATOM     22  C   UNL     1       1.633 -16.305   7.204  0.00  0.00    +0.003 A 
ATOM     23  C   UNL     1       2.689 -15.655   6.591  0.00  0.00    +0.021 A 
ATOM     24  C   UNL     1       2.577 -14.321   6.249  0.00  0.00    +0.050 A 
ATOM     25 CL   UNL     1       3.901 -13.508   5.474  0.00  0.00    -0.083 Cl
ATOM     26 CL   UNL     1      -1.131 -13.436   7.503  0.00  0.00    -0.083 Cl
ENDBRANCH   7  19
BRANCH  15  27
ATOM     27  C   UNL     1       3.425  -9.963  11.388  0.00  0.00    +0.074 C 
ATOM     28  C   UNL     1       2.204  -9.497  12.182  0.00  0.00    +0.022 C 
ATOM     29  C   UNL     1       2.628  -8.427  13.190  0.00  0.00    +0.002 C 
ATOM     30  C   UNL     1       3.667  -9.012  14.149  0.00  0.00    +0.000 C 
ATOM     31  C   UNL     1       4.889  -9.479  13.354  0.00  0.00    +0.002 C 
ATOM     32  C   UNL     1       4.464 -10.549  12.347  0.00  0.00    +0.022 C 
ENDBRANCH  15  27
BRANCH   1  33
ATOM     33  C   UNL     1      -0.093  -6.015   2.586  0.00  0.00    +0.105 C 
BRANCH  33  34
ATOM     34  C   UNL     1      -0.086  -4.485   2.544  0.00  0.00    +0.034 C 
BRANCH  34  35
ATOM     35  C   UNL     1      -0.632  -4.009   1.196  0.00  0.00    +0.086 C 
BRANCH  35  40
ATOM     36  C   UNL     1      -0.018   1.465   0.010  0.00  0.00    -0.096 C 
ATOM     37  N   UNL     1       0.002  -0.004   0.002  0.00  0.00    +0.379 N 
ATOM     38  C   UNL     1      -1.376  -0.512   0.011  0.00  0.00    -0.064 C 
ATOM     39  C   UNL     1      -1.356  -2.042  -0.017  0.00  0.00    +0.066 C 
ATOM     40  N   UNL     1      -0.624  -2.541   1.156  0.00  0.00    -0.306 NA
ATOM     41  C   UNL     1       0.750  -2.020   1.175  0.00  0.00    +0.066 C 
ATOM     42  C   UNL     1       0.713  -0.490   1.192  0.00  0.00    -0.064 C 
ATOM     43  H   UNL     1       0.475  -0.329  -0.828  0.00  0.00    -0.082 HD
ENDBRANCH  35  40
ENDBRANCH  34  35
ENDBRANCH  33  34
ENDBRANCH   1  33
TORSDOF 6
