REMARK  Name = CHEMBL517256
REMARK  12 active torsions:
REMARK  status: ('A' for Active; 'I' for Inactive)
REMARK    1  A    between atoms: C_1  and  C_2
REMARK    2  A    between atoms: C_6  and  C_34
REMARK    3  A    between atoms: C_7  and  C_8
REMARK    4  A    between atoms: C_9  and  N_10
REMARK    5  A    between atoms: C_16  and  C_30
REMARK    6  A    between atoms: C_18  and  N_19
REMARK    7  A    between atoms: N_19  and  C_20
REMARK    8  A    between atoms: C_23  and  P_26
REMARK    9  A    between atoms: P_26  and  C_28
REMARK   10  A    between atoms: P_26  and  C_29
REMARK   11  A    between atoms: C_30  and  C_31
REMARK   12  A    between atoms: C_31  and  C_32
REMARK                            x       y       z     vdW  Elec       q    Type
REMARK                         _______ _______ _______ _____ _____    ______ ____
ROOT
ATOM      1  N   UNL     1      -1.150  -0.306   4.498  0.00  0.00    -0.290 N 
ATOM      2  C   UNL     1      -0.237   0.650   4.846  0.00  0.00    +0.206 A 
ATOM      3  N   UNL     1      -0.648   1.293   5.901  0.00  0.00    -0.230 NA
ATOM      4  C   UNL     1      -1.844   0.796   6.297  0.00  0.00    +0.148 A 
ATOM      5  C   UNL     1      -2.185  -0.232   5.400  0.00  0.00    +0.170 A 
ATOM      6  N   UNL     1      -3.330  -0.884   5.569  0.00  0.00    -0.212 NA
ATOM      7  C   UNL     1      -4.139  -0.573   6.561  0.00  0.00    +0.135 A 
ATOM      8  N   UNL     1      -3.864   0.386   7.426  0.00  0.00    -0.215 NA
ATOM      9  C   UNL     1      -2.738   1.087   7.341  0.00  0.00    +0.154 A 
ENDROOT
BRANCH   1  11
ATOM     10  C   UNL     1       0.015  -1.148   2.626  0.00  0.00    +0.026 C 
ATOM     11  C   UNL     1      -1.052  -1.187   3.427  0.00  0.00    +0.095 C 
BRANCH  10  18
ATOM     12  C   UNL     1       2.217  -2.990   2.264  0.00  0.00    +0.044 C 
ATOM     13  C   UNL     1       1.122  -2.890   1.233  0.00  0.00    -0.043 A 
ATOM     14  C   UNL     1       1.158  -3.684   0.106  0.00  0.00    +0.004 A 
ATOM     15  C   UNL     1       0.153  -3.594  -0.841  0.00  0.00    +0.001 A 
ATOM     16  C   UNL     1      -0.895  -2.708  -0.664  0.00  0.00    +0.004 A 
ATOM     17  C   UNL     1      -0.944  -1.908   0.458  0.00  0.00    -0.043 A 
ATOM     18  C   UNL     1       0.064  -1.997   1.420  0.00  0.00    -0.018 A 
ATOM     19  C   UNL     1      -2.086  -0.943   0.648  0.00  0.00    +0.044 C 
ENDBRANCH  10  18
ENDBRANCH   1  11
BRANCH   9  20
ATOM     20  N   UNL     1      -2.459   2.092   8.252  0.00  0.00    -0.298 N 
ATOM     21  H   UNL     1      -1.682   2.660   8.126  0.00  0.00    +0.154 HD
BRANCH  20  22
ATOM     22  C   UNL     1      -3.296   2.289   9.354  0.00  0.00    +0.032 A 
ATOM     23  C   UNL     1      -3.931   1.206   9.948  0.00  0.00    +0.024 A 
ATOM     24  C   UNL     1      -4.758   1.404  11.036  0.00  0.00    +0.013 A 
ATOM     25  C   UNL     1      -4.955   2.679  11.534  0.00  0.00    +0.011 A 
ATOM     26  C   UNL     1      -4.325   3.760  10.944  0.00  0.00    +0.013 A 
ATOM     27  C   UNL     1      -3.491   3.568   9.860  0.00  0.00    +0.024 A 
BRANCH  25  28
ATOM     28  P   UNL     1      -6.043   2.935  12.963  0.00  0.00    +0.111 P 
ATOM     29  O   UNL     1      -6.013   1.733  13.827  0.00  0.00    -0.317 OA
ATOM     30  C   UNL     1      -5.468   4.380  13.913  0.00  0.00    +0.085 C 
ATOM     31  C   UNL     1      -7.747   3.226  12.385  0.00  0.00    +0.085 C 
ENDBRANCH  25  28
ENDBRANCH  20  22
ENDBRANCH   9  20
BRANCH   7  32
ATOM     32  C   UNL     1      -5.427  -1.339   6.713  0.00  0.00    +0.091 C 
BRANCH  32  33
ATOM     33  C   UNL     1      -5.194  -2.556   7.612  0.00  0.00    +0.126 C 
BRANCH  33  34
ATOM     34  C   UNL     1      -6.452  -3.305   7.761  0.00  0.00    +0.063 C 
ATOM     35  N   UNL     1      -7.423  -3.883   7.876  0.00  0.00    -0.197 NA
ENDBRANCH  33  34
ENDBRANCH  32  33
ENDBRANCH   7  32
TORSDOF 8
