REMARK  Name = CHEMBL526547
REMARK  9 active torsions:
REMARK  status: ('A' for Active; 'I' for Inactive)
REMARK    1  A    between atoms: C_1  and  C_2
REMARK    2  A    between atoms: N_11  and  C_12
REMARK    3  A    between atoms: C_15  and  C_34
REMARK    4  A    between atoms: C_16  and  O_24
REMARK    5  A    between atoms: C_21  and  C_22
REMARK    6  A    between atoms: O_24  and  C_25
REMARK    7  A    between atoms: C_25  and  C_26
REMARK    8  A    between atoms: C_26  and  C_27
REMARK    9  A    between atoms: C_27  and  N_28
REMARK                            x       y       z     vdW  Elec       q    Type
REMARK                         _______ _______ _______ _____ _____    ______ ____
ROOT
ATOM      1  C   UNL     1      -0.004  -7.033   0.552  0.00  0.00    +0.061 A 
ATOM      2  C   UNL     1      -0.408  -8.362   0.814  0.00  0.00    +0.023 A 
ATOM      3  C   UNL     1      -0.725  -8.780   2.115  0.00  0.00    +0.018 A 
ATOM      4  C   UNL     1      -1.112 -10.065   2.340  0.00  0.00    -0.008 A 
ATOM      5  C   UNL     1      -1.199 -10.979   1.285  0.00  0.00    +0.125 A 
ATOM      6  C   UNL     1      -0.894 -10.598  -0.003  0.00  0.00    +0.074 A 
ATOM      7  C   UNL     1      -0.493  -9.279  -0.262  0.00  0.00    +0.076 A 
ATOM      8  N   UNL     1      -0.194  -8.887  -1.509  0.00  0.00    -0.253 NA
ATOM      9  C   UNL     1       0.183  -7.663  -1.779  0.00  0.00    +0.132 A 
ATOM     10  C   UNL     1       0.289  -6.688  -0.775  0.00  0.00    +0.092 A 
ATOM     11  C   UNL     1      -1.450 -10.508   3.740  0.00  0.00    +0.047 C 
ENDROOT
BRANCH   1  22
ATOM     12  C   UNL     1      -6.045  -1.805   3.608  0.00  0.00    +0.044 C 
ATOM     13  C   UNL     1      -5.044  -2.747   2.989  0.00  0.00    -0.049 A 
ATOM     14  C   UNL     1      -5.396  -3.523   1.894  0.00  0.00    +0.005 A 
ATOM     15  C   UNL     1      -4.506  -4.388   1.314  0.00  0.00    +0.029 A 
ATOM     16  C   UNL     1      -3.190  -4.516   1.817  0.00  0.00    +0.080 A 
ATOM     17  C   UNL     1      -2.867  -3.710   2.932  0.00  0.00    +0.041 A 
ATOM     18  C   UNL     1      -3.764  -2.843   3.504  0.00  0.00    +0.020 A 
ATOM     19  S   UNL     1      -1.176  -4.156   3.245  0.00  0.00    -0.052 S 
ATOM     20  C   UNL     1      -1.009  -5.345   1.920  0.00  0.00    +0.163 A 
ATOM     21  N   UNL     1      -2.199  -5.314   1.365  0.00  0.00    -0.225 NA
ATOM     22  N   UNL     1       0.092  -6.103   1.570  0.00  0.00    -0.292 N 
ATOM     23  H   UNL     1       0.933  -5.982   2.038  0.00  0.00    +0.154 HD
ENDBRANCH   1  22
BRANCH  10  24
ATOM     24  C   UNL     1       0.698  -5.355  -1.103  0.00  0.00    +0.103 C 
ATOM     25  N   UNL     1       1.023  -4.298  -1.362  0.00  0.00    -0.191 NA
ENDBRANCH  10  24
BRANCH   5  26
ATOM     26  O   UNL     1      -1.588 -12.256   1.534  0.00  0.00    -0.492 OA
BRANCH  26  27
ATOM     27  C   UNL     1      -1.657 -13.142   0.415  0.00  0.00    +0.227 C 
BRANCH  27  28
ATOM     28  C   UNL     1      -2.110 -14.525   0.888  0.00  0.00    +0.022 C 
BRANCH  28  29
ATOM     29  C   UNL     1      -2.185 -15.474  -0.310  0.00  0.00    -0.076 C 
BRANCH  29  30
ATOM     30  N   UNL     1      -2.619 -16.802   0.144  0.00  0.00    +0.380 N 
ATOM     31  C   UNL     1      -1.601 -17.370   1.037  0.00  0.00    -0.079 C 
ATOM     32  C   UNL     1      -2.085 -18.717   1.577  0.00  0.00    -0.019 C 
ATOM     33  C   UNL     1      -2.328 -19.673   0.405  0.00  0.00    -0.004 C 
ATOM     34  C   UNL     1      -3.336 -19.038  -0.558  0.00  0.00    -0.019 C 
ATOM     35  C   UNL     1      -2.805 -17.678  -1.019  0.00  0.00    -0.079 C 
ATOM     36  H   UNL     1      -3.492 -16.717   0.643  0.00  0.00    -0.082 HD
ENDBRANCH  29  30
ENDBRANCH  28  29
ENDBRANCH  27  28
ENDBRANCH  26  27
ENDBRANCH   5  26
TORSDOF 7
