REMARK  Name = CHEMBL1086679
REMARK  9 active torsions:
REMARK  status: ('A' for Active; 'I' for Inactive)
REMARK    1  A    between atoms: C_1  and  O_2
REMARK    2  A    between atoms: O_2  and  C_3
REMARK    3  A    between atoms: C_5  and  N_11
REMARK    4  A    between atoms: N_11  and  C_12
REMARK    5  A    between atoms: C_15  and  C_24
REMARK    6  A    between atoms: C_21  and  C_22
REMARK    7  A    between atoms: C_25  and  C_26
REMARK    8  A    between atoms: C_26  and  C_27
REMARK    9  A    between atoms: C_27  and  N_28
REMARK                            x       y       z     vdW  Elec       q    Type
REMARK                         _______ _______ _______ _____ _____    ______ ____
ROOT
ATOM      1  C   UNL     1       2.499   1.837  -3.861  0.00  0.00    +0.060 A 
ATOM      2  C   UNL     1       2.866   2.669  -4.947  0.00  0.00    +0.023 A 
ATOM      3  C   UNL     1       3.098   2.136  -6.219  0.00  0.00    +0.019 A 
ATOM      4  C   UNL     1       3.455   2.982  -7.258  0.00  0.00    -0.025 A 
ATOM      5  C   UNL     1       3.583   4.363  -7.036  0.00  0.00    +0.010 A 
ATOM      6  C   UNL     1       3.360   4.894  -5.805  0.00  0.00    +0.029 A 
ATOM      7  C   UNL     1       2.996   4.063  -4.731  0.00  0.00    +0.073 A 
ATOM      8  N   UNL     1       2.775   4.580  -3.515  0.00  0.00    -0.254 NA
ATOM      9  C   UNL     1       2.435   3.835  -2.494  0.00  0.00    +0.132 A 
ATOM     10  C   UNL     1       2.277   2.445  -2.617  0.00  0.00    +0.091 A 
ENDROOT
BRANCH   1  11
ATOM     11  N   UNL     1       2.359   0.474  -4.024  0.00  0.00    -0.312 N 
ATOM     12  H   UNL     1       2.812   0.024  -4.754  0.00  0.00    +0.152 HD
BRANCH  11  15
ATOM     13  C   UNL     1       1.360  -1.905  -1.400  0.00  0.00    +0.140 A 
ATOM     14  C   UNL     1       2.150  -1.181  -2.279  0.00  0.00    +0.071 A 
ATOM     15  C   UNL     1       1.565  -0.258  -3.135  0.00  0.00    +0.053 A 
ATOM     16  C   UNL     1       0.189  -0.062  -3.109  0.00  0.00    +0.064 A 
ATOM     17  C   UNL     1      -0.595  -0.786  -2.230  0.00  0.00    +0.045 A 
ATOM     18  C   UNL     1      -0.014  -1.710  -1.381  0.00  0.00    +0.084 A 
ATOM     19 CL   UNL     1      -1.004  -2.621  -0.284  0.00  0.00    -0.080 Cl
ATOM     20 CL   UNL     1      -0.544   1.091  -4.179  0.00  0.00    -0.082 Cl
BRANCH  13  22
ATOM     21  C   UNL     1       3.358  -2.876  -0.551  0.00  0.00    +0.277 C 
ATOM     22  O   UNL     1       1.931  -2.809  -0.561  0.00  0.00    -0.494 OA
ENDBRANCH  13  22
ENDBRANCH  11  15
ENDBRANCH   1  11
BRANCH  10  23
ATOM     23  C   UNL     1       1.898   1.657  -1.483  0.00  0.00    +0.103 C 
ATOM     24  N   UNL     1       1.597   1.031  -0.584  0.00  0.00    -0.191 NA
ENDBRANCH  10  23
BRANCH   4  25
ATOM     25  C   UNL     1       3.704   2.428  -8.605  0.00  0.00    +0.004 C 
ATOM     26  C   UNL     1       4.045   3.234  -9.601  0.00  0.00    -0.025 C 
BRANCH  26  27
ATOM     27  C   UNL     1       4.298   2.669 -10.975  0.00  0.00    +0.042 C 
BRANCH  27  28
ATOM     28  C   UNL     1       3.409   3.386 -11.993  0.00  0.00    +0.088 C 
BRANCH  28  29
ATOM     29  N   UNL     1       3.656   2.836 -13.332  0.00  0.00    -0.298 NA
ATOM     30  C   UNL     1       5.019   3.147 -13.787  0.00  0.00    +0.112 C 
ATOM     31  C   UNL     1       5.253   2.506 -15.158  0.00  0.00    +0.175 C 
ATOM     32  O   UNL     1       4.257   2.971 -16.073  0.00  0.00    -0.377 OA
ATOM     33  C   UNL     1       2.918   2.684 -15.661  0.00  0.00    +0.175 C 
ATOM     34  C   UNL     1       2.660   3.328 -14.296  0.00  0.00    +0.112 C 
ENDBRANCH  28  29
ENDBRANCH  27  28
ENDBRANCH  26  27
ENDBRANCH   4  25
TORSDOF 8
