REMARK  Name = CHEMBL549536
REMARK  2 active torsions:
REMARK  status: ('A' for Active; 'I' for Inactive)
REMARK    1  A    between atoms: C_1  and  C_2
REMARK    2  A    between atoms: C_17  and  C_19
REMARK                            x       y       z     vdW  Elec       q    Type
REMARK                         _______ _______ _______ _____ _____    ______ ____
ROOT
ATOM      1  C   UNL     1      -0.101   1.501   0.016  0.00  0.00    +0.065 C 
ATOM      2  C   UNL     1      -0.066  -0.005   0.006  0.00  0.00    +0.035 A 
ATOM      3  C   UNL     1      -0.042  -0.794  -1.092  0.00  0.00    +0.068 A 
ATOM      4  C   UNL     1      -0.013  -2.131  -0.661  0.00  0.00    +0.146 A 
ATOM      5  N   UNL     1      -0.020  -2.136   0.651  0.00  0.00    -0.158 NA
ATOM      6  N   UNL     1      -0.048  -0.807   1.092  0.00  0.00    -0.280 N 
ATOM      7  H   UNL     1      -0.056  -0.514   2.017  0.00  0.00    +0.189 HD
ATOM      8  N   UNL     1       0.017  -3.261  -1.488  0.00  0.00    -0.282 N 
ATOM      9  C   UNL     1      -0.085  -3.117  -2.856  0.00  0.00    +0.136 A 
ATOM     10  C   UNL     1      -0.176  -4.252  -3.701  0.00  0.00    +0.041 A 
ATOM     11  C   UNL     1      -0.168  -5.556  -3.196  0.00  0.00    +0.013 A 
ATOM     12  C   UNL     1      -0.259  -6.611  -4.056  0.00  0.00    +0.001 A 
ATOM     13  C   UNL     1      -0.360  -6.408  -5.429  0.00  0.00    +0.002 A 
ATOM     14  C   UNL     1      -0.371  -5.149  -5.954  0.00  0.00    +0.028 A 
ATOM     15  C   UNL     1      -0.280  -4.042  -5.099  0.00  0.00    +0.077 A 
ATOM     16  N   UNL     1      -0.287  -2.786  -5.564  0.00  0.00    -0.227 NA
ATOM     17  C   UNL     1      -0.199  -1.765  -4.733  0.00  0.00    +0.162 A 
ATOM     18  N   UNL     1      -0.106  -1.916  -3.414  0.00  0.00    -0.212 NA
ATOM     19  H   UNL     1       0.110  -4.144  -1.099  0.00  0.00    +0.155 HD
ENDROOT
BRANCH  17  20
ATOM     20  C   UNL     1      -0.211  -0.390  -5.292  0.00  0.00    +0.022 A 
ATOM     21  C   UNL     1       0.000   0.721  -4.471  0.00  0.00    +0.031 A 
ATOM     22  C   UNL     1      -0.018   1.982  -5.032  0.00  0.00    +0.111 A 
ATOM     23  N   UNL     1      -0.231   2.145  -6.323  0.00  0.00    -0.263 NA
ATOM     24  C   UNL     1      -0.434   1.124  -7.133  0.00  0.00    +0.111 A 
ATOM     25  C   UNL     1      -0.427  -0.171  -6.655  0.00  0.00    +0.031 A 
ENDBRANCH  17  20
TORSDOF 1
