REMARK  Name = CHEMBL195523
REMARK  9 active torsions:
REMARK  status: ('A' for Active; 'I' for Inactive)
REMARK    1  A    between atoms: C_1  and  N_2
REMARK    2  A    between atoms: N_5  and  C_8
REMARK    3  A    between atoms: C_8  and  C_9
REMARK    4  A    between atoms: C_10  and  C_14
REMARK    5  A    between atoms: C_19  and  N_25
REMARK    6  A    between atoms: C_20  and  C_23
REMARK    7  A    between atoms: N_25  and  C_26
REMARK    8  A    between atoms: C_28  and  O_34
REMARK    9  A    between atoms: O_34  and  C_35
REMARK                            x       y       z     vdW  Elec       q    Type
REMARK                         _______ _______ _______ _____ _____    ______ ____
ROOT
ATOM      1  C   UNL     1      -4.676  -6.114   0.070  0.00  0.00    +0.023 A 
ATOM      2  C   UNL     1      -4.758  -6.731   1.279  0.00  0.00    +0.044 A 
ATOM      3  C   UNL     1      -5.226  -6.022   2.399  0.00  0.00    +0.080 A 
ATOM      4  C   UNL     1      -5.585  -4.678   2.156  0.00  0.00    +0.060 A 
ATOM      5  S   UNL     1      -5.256  -4.464   0.426  0.00  0.00    -0.085 S 
ATOM      6  C   UNL     1      -6.062  -3.855   3.159  0.00  0.00    +0.066 A 
ATOM      7  C   UNL     1      -6.185  -4.401   4.456  0.00  0.00    +0.092 A 
ATOM      8  C   UNL     1      -5.816  -5.739   4.644  0.00  0.00    +0.132 A 
ATOM      9  N   UNL     1      -5.369  -6.480   3.668  0.00  0.00    -0.253 NA
ENDROOT
BRANCH   1  11
ATOM     10  C   UNL     1      -5.013  -6.616  -2.332  0.00  0.00    +0.012 A 
ATOM     11  C   UNL     1      -4.216  -6.671  -1.220  0.00  0.00    +0.000 A 
ATOM     12  C   UNL     1      -2.961  -7.265  -1.333  0.00  0.00    +0.017 A 
ATOM     13  C   UNL     1      -2.576  -7.762  -2.529  0.00  0.00    +0.046 A 
ATOM     14  S   UNL     1      -3.991  -7.415  -3.558  0.00  0.00    -0.100 S 
BRANCH  10  15
ATOM     15  C   UNL     1      -6.396  -6.036  -2.482  0.00  0.00    +0.127 C 
BRANCH  15  20
ATOM     16  C   UNL     1      -6.844  -0.895  -4.742  0.00  0.00    -0.096 C 
ATOM     17  N   UNL     1      -6.982  -2.317  -4.403  0.00  0.00    +0.379 N 
ATOM     18  C   UNL     1      -7.413  -2.447  -3.005  0.00  0.00    -0.064 C 
ATOM     19  C   UNL     1      -7.576  -3.929  -2.657  0.00  0.00    +0.066 C 
ATOM     20  N   UNL     1      -6.295  -4.620  -2.860  0.00  0.00    -0.301 NA
ATOM     21  C   UNL     1      -5.838  -4.477  -4.249  0.00  0.00    +0.066 C 
ATOM     22  C   UNL     1      -5.690  -2.992  -4.584  0.00  0.00    -0.064 C 
ATOM     23  H   UNL     1      -7.670  -2.741  -5.008  0.00  0.00    -0.082 HD
ENDBRANCH  15  20
ENDBRANCH  10  15
ENDBRANCH   1  11
BRANCH   7  24
ATOM     24  C   UNL     1      -6.672  -3.609   5.545  0.00  0.00    +0.103 C 
ATOM     25  N   UNL     1      -7.058  -2.982   6.410  0.00  0.00    -0.191 NA
ENDBRANCH   7  24
BRANCH   6  26
ATOM     26  N   UNL     1      -6.409  -2.537   2.899  0.00  0.00    -0.311 N 
ATOM     27  H   UNL     1      -7.337  -2.301   2.744  0.00  0.00    +0.152 HD
BRANCH  26  28
ATOM     28  C   UNL     1      -5.421  -1.549   2.862  0.00  0.00    +0.054 A 
ATOM     29  C   UNL     1      -4.096  -1.881   3.111  0.00  0.00    +0.071 A 
ATOM     30  C   UNL     1      -3.119  -0.899   3.073  0.00  0.00    +0.140 A 
ATOM     31  C   UNL     1      -3.466   0.415   2.787  0.00  0.00    +0.084 A 
ATOM     32  C   UNL     1      -4.786   0.744   2.539  0.00  0.00    +0.045 A 
ATOM     33  C   UNL     1      -5.763  -0.234   2.570  0.00  0.00    +0.064 A 
ATOM     34 CL   UNL     1      -7.418   0.182   2.251  0.00  0.00    -0.082 Cl
ATOM     35 CL   UNL     1      -2.242   1.645   2.740  0.00  0.00    -0.080 Cl
BRANCH  30  36
ATOM     36  O   UNL     1      -1.821  -1.222   3.317  0.00  0.00    -0.494 OA
ATOM     37  C   UNL     1      -1.517  -2.608   3.483  0.00  0.00    +0.277 C 
ENDBRANCH  30  36
ENDBRANCH  26  28
ENDBRANCH   6  26
TORSDOF 7
