REMARK  Name = CHEMBL1088679
REMARK  10 active torsions:
REMARK  status: ('A' for Active; 'I' for Inactive)
REMARK    1  A    between atoms: C_1  and  O_2
REMARK    2  A    between atoms: O_2  and  C_3
REMARK    3  A    between atoms: C_8  and  C_9
REMARK    4  A    between atoms: C_10  and  C_11
REMARK    5  A    between atoms: C_11  and  N_12
REMARK    6  A    between atoms: C_20  and  C_33
REMARK    7  A    between atoms: C_21  and  N_22
REMARK    8  A    between atoms: N_22  and  C_23
REMARK    9  A    between atoms: C_25  and  O_31
REMARK   10  A    between atoms: O_31  and  C_32
REMARK                            x       y       z     vdW  Elec       q    Type
REMARK                         _______ _______ _______ _____ _____    ______ ____
ROOT
ATOM      1  C   UNL     1       1.280  -0.393   0.607  0.00  0.00    +0.128 A 
ATOM      2  C   UNL     1       1.631   0.293   1.734  0.00  0.00    +0.058 A 
ATOM      3  C   UNL     1       2.167  -0.394   2.833  0.00  0.00    +0.026 A 
ATOM      4  C   UNL     1       2.343  -1.798   2.776  0.00  0.00    +0.074 A 
ATOM      5  C   UNL     1       1.978  -2.487   1.611  0.00  0.00    +0.040 A 
ATOM      6  C   UNL     1       1.445  -1.790   0.539  0.00  0.00    +0.018 A 
ATOM      7  N   UNL     1       2.854  -2.458   3.826  0.00  0.00    -0.254 NA
ATOM      8  C   UNL     1       3.204  -1.845   4.927  0.00  0.00    +0.132 A 
ATOM      9  C   UNL     1       3.064  -0.455   5.072  0.00  0.00    +0.091 A 
ATOM     10  C   UNL     1       2.538   0.297   4.011  0.00  0.00    +0.060 A 
ENDROOT
BRANCH   1  12
ATOM     11  C   UNL     1       0.620   1.693  -0.324  0.00  0.00    +0.277 C 
ATOM     12  O   UNL     1       0.762   0.277  -0.456  0.00  0.00    -0.495 OA
ENDBRANCH   1  12
BRANCH   6  13
ATOM     13  C   UNL     1       1.053  -2.516  -0.686  0.00  0.00    +0.008 C 
ATOM     14  C   UNL     1       1.207  -3.832  -0.755  0.00  0.00    -0.011 C 
BRANCH  14  15
ATOM     15  C   UNL     1       0.807  -4.572  -2.005  0.00  0.00    +0.112 C 
BRANCH  15  16
ATOM     16  N   UNL     1       1.949  -5.354  -2.497  0.00  0.00    -0.294 NA
ATOM     17  C   UNL     1       3.034  -4.472  -2.953  0.00  0.00    +0.113 C 
ATOM     18  C   UNL     1       4.223  -5.324  -3.401  0.00  0.00    +0.175 C 
ATOM     19  O   UNL     1       3.797  -6.230  -4.423  0.00  0.00    -0.377 OA
ATOM     20  C   UNL     1       2.742  -7.105  -4.013  0.00  0.00    +0.175 C 
ATOM     21  C   UNL     1       1.537  -6.270  -3.571  0.00  0.00    +0.113 C 
ENDBRANCH  15  16
ENDBRANCH  14  15
ENDBRANCH   6  13
BRANCH  10  22
ATOM     22  N   UNL     1       2.384   1.665   4.114  0.00  0.00    -0.312 N 
ATOM     23  H   UNL     1       1.745   2.125   3.548  0.00  0.00    +0.152 HD
BRANCH  22  24
ATOM     24  C   UNL     1       3.150   2.387   5.033  0.00  0.00    +0.053 A 
ATOM     25  C   UNL     1       2.539   2.995   6.122  0.00  0.00    +0.071 A 
ATOM     26  C   UNL     1       3.301   3.711   7.031  0.00  0.00    +0.140 A 
ATOM     27  C   UNL     1       4.675   3.818   6.853  0.00  0.00    +0.084 A 
ATOM     28  C   UNL     1       5.282   3.212   5.769  0.00  0.00    +0.045 A 
ATOM     29  C   UNL     1       4.526   2.492   4.863  0.00  0.00    +0.064 A 
ATOM     30 CL   UNL     1       5.293   1.727   3.507  0.00  0.00    -0.082 Cl
ATOM     31 CL   UNL     1       5.629   4.715   7.993  0.00  0.00    -0.080 Cl
BRANCH  26  32
ATOM     32  O   UNL     1       2.705   4.308   8.097  0.00  0.00    -0.494 OA
ATOM     33  C   UNL     1       1.310   4.061   8.282  0.00  0.00    +0.277 C 
ENDBRANCH  26  32
ENDBRANCH  22  24
ENDBRANCH  10  22
BRANCH   9  34
ATOM     34  C   UNL     1       3.455   0.189   6.290  0.00  0.00    +0.103 C 
ATOM     35  N   UNL     1       3.765   0.699   7.256  0.00  0.00    -0.191 NA
ENDBRANCH   9  34
TORSDOF 8
