REMARK  Name = CHEMBL260157
REMARK  13 active torsions:
REMARK  status: ('A' for Active; 'I' for Inactive)
REMARK    1  A    between atoms: C_1  and  O_2
REMARK    2  A    between atoms: O_2  and  C_3
REMARK    3  A    between atoms: C_5  and  N_11
REMARK    4  A    between atoms: C_7  and  O_9
REMARK    5  A    between atoms: O_9  and  C_10
REMARK    6  A    between atoms: C_13  and  C_40
REMARK    7  A    between atoms: C_16  and  C_37
REMARK    8  A    between atoms: C_18  and  N_21
REMARK    9  A    between atoms: N_21  and  CA_22
REMARK   10  A    between atoms: CA_22  and  CB_24
REMARK   11  A    between atoms: CA_22  and  C_35
REMARK   12  A    between atoms: CB_24  and  CG_25
REMARK   13  A    between atoms: C_35  and  O_36
REMARK                            x       y       z     vdW  Elec       q    Type
REMARK                         _______ _______ _______ _____ _____    ______ ____
ROOT
ATOM      1  N   UNK A   0      -2.537  -4.066   0.016  0.00  0.00    -0.297 N 
ATOM      2  C   UNK A   0      -3.764  -4.715   0.130  0.00  0.00    +0.160 A 
ATOM      3  C   UNK A   0      -3.953  -6.112   0.247  0.00  0.00    +0.122 A 
ATOM      4  C   UNK A   0      -5.342  -6.330   0.336  0.00  0.00    +0.172 A 
ATOM      5  N   UNK A   0      -6.069  -7.441   0.460  0.00  0.00    -0.232 NA
ATOM      6  C   UNK A   0      -7.385  -7.393   0.525  0.00  0.00    +0.050 A 
ATOM      7  C   UNK A   0      -8.044  -6.170   0.466  0.00  0.00    +0.067 A 
ATOM      8  C   UNK A   0      -7.302  -5.011   0.337  0.00  0.00    +0.125 A 
ATOM      9  N   UNK A   0      -5.939  -5.104   0.273  0.00  0.00    -0.198 N 
ATOM     10  N   UNK A   0      -4.939  -4.133   0.152  0.00  0.00    -0.147 NA
ATOM     11  H   UNK A   0      -1.713  -4.571   0.091  0.00  0.00    +0.154 HD
ENDROOT
BRANCH   1  14
ATOM     12  C   UNK A   0      -3.491  -0.690  -1.095  0.00  0.00    +0.125 A 
ATOM     13  C   UNK A   0      -3.535  -2.058  -0.876  0.00  0.00    +0.069 A 
ATOM     14  C   UNK A   0      -2.494  -2.687  -0.206  0.00  0.00    +0.039 A 
ATOM     15  C   UNK A   0      -1.410  -1.945   0.244  0.00  0.00    +0.069 A 
ATOM     16  C   UNK A   0      -1.368  -0.577   0.024  0.00  0.00    +0.125 A 
ATOM     17  C   UNK A   0      -2.406   0.050  -0.650  0.00  0.00    +0.091 A 
BRANCH  12  19
ATOM     18  C   UNK A   0      -4.396   1.336  -1.948  0.00  0.00    +0.277 C 
ATOM     19  O   UNK A   0      -4.510  -0.074  -1.752  0.00  0.00    -0.495 OA
ENDBRANCH  12  19
BRANCH  16  20
ATOM     20  O   UNK A   0      -0.308   0.150   0.465  0.00  0.00    -0.495 OA
ATOM     21  C   UNK A   0      -0.331   1.555   0.203  0.00  0.00    +0.277 C 
ENDBRANCH  16  20
ENDBRANCH   1  14
BRANCH   3  22
ATOM     22  C   UNK A   0      -2.907  -7.133   0.271  0.00  0.00    +0.249 C 
ATOM     23  O   UNK A   0      -2.416  -7.478   1.330  0.00  0.00    -0.270 OA
ATOM     24  N   UNK A   0      -2.486  -7.692  -0.881  0.00  0.00    -0.325 N 
ATOM     25  H   UNK A   0      -2.877  -7.418  -1.725  0.00  0.00    +0.145 HD
ATOM     26  H   UNK A   0      -1.792  -8.370  -0.865  0.00  0.00    +0.145 HD
ENDBRANCH   3  22
BRANCH   6  27
ATOM     27  C   UNK A   0      -8.177  -8.668   0.665  0.00  0.00    +0.038 C 
ATOM     28  C   UNK A   0      -8.099  -9.676  -0.483  0.00  0.00    +0.010 C 
ATOM     29  C   UNK A   0      -7.394  -9.970   0.842  0.00  0.00    +0.010 C 
ENDBRANCH   6  27
BRANCH   8  30
ATOM     30  N   TRP A   1      -7.924  -3.784   0.275  0.00  0.00    -0.324 N 
ATOM     31  H   TRP A   1      -7.395  -2.976   0.185  0.00  0.00    +0.148 HD
BRANCH  30  32
ATOM     32  CA  TRP A   1      -9.385  -3.699   0.344  0.00  0.00    +0.101 C 
BRANCH  32  33
ATOM     33  CB  TRP A   1      -9.791  -2.322   0.871  0.00  0.00    +0.061 C 
BRANCH  33  34
ATOM     34  CG  TRP A   1      -9.315  -2.167   2.292  0.00  0.00    -0.021 A 
ATOM     35  CD1 TRP A   1     -10.026  -2.414   3.404  0.00  0.00    +0.087 A 
ATOM     36  NE1 TRP A   1      -9.263  -2.160   4.511  0.00  0.00    -0.360 N 
ATOM     37  HE1 TRP A   1      -9.560  -2.265   5.429  0.00  0.00    +0.165 HD
ATOM     38  CE2 TRP A   1      -8.011  -1.733   4.130  0.00  0.00    +0.047 A 
ATOM     39  CD2 TRP A   1      -7.987  -1.724   2.723  0.00  0.00    +0.003 A 
ATOM     40  CE3 TRP A   1      -6.828  -1.335   2.049  0.00  0.00    +0.010 A 
ATOM     41  CZ3 TRP A   1      -5.721  -0.967   2.760  0.00  0.00    +0.001 A 
ATOM     42  CH2 TRP A   1      -5.738  -0.978   4.148  0.00  0.00    +0.002 A 
ATOM     43  CZ2 TRP A   1      -6.874  -1.349   4.833  0.00  0.00    +0.026 A 
ENDBRANCH  33  34
ENDBRANCH  32  33
BRANCH  32  44
ATOM     44  C   TRP A   1      -9.975  -3.905  -1.052  0.00  0.00    +0.178 C 
BRANCH  44  45
ATOM     45  O   TRP A   1      -9.574  -2.829  -1.903  0.00  0.00    -0.393 OA
ATOM     46  H   TRP A   1      -9.912  -2.895  -2.806  0.00  0.00    +0.209 HD
ENDBRANCH  44  45
ENDBRANCH  32  44
ENDBRANCH  30  32
ENDBRANCH   8  30
TORSDOF 11
