REMARK  Name = CHEMBL275513
REMARK  10 active torsions:
REMARK  status: ('A' for Active; 'I' for Inactive)
REMARK    1  A    between atoms: C_1  and  O_2
REMARK    2  A    between atoms: O_2  and  C_3
REMARK    3  A    between atoms: C_7  and  N_9
REMARK    4  A    between atoms: C_14  and  O_27
REMARK    5  A    between atoms: C_16  and  O_17
REMARK    6  A    between atoms: O_17  and  C_18
REMARK    7  A    between atoms: C_18  and  C_19
REMARK    8  A    between atoms: C_19  and  C_20
REMARK    9  A    between atoms: C_20  and  N_21
REMARK   10  A    between atoms: O_27  and  C_28
REMARK                            x       y       z     vdW  Elec       q    Type
REMARK                         _______ _______ _______ _____ _____    ______ ____
ROOT
ATOM      1  N   UNL     1      -2.542  -4.064   0.018  0.00  0.00    -0.298 N 
ATOM      2  C   UNL     1      -1.382  -4.802  -0.096  0.00  0.00    +0.137 A 
ATOM      3  C   UNL     1      -1.427  -6.210  -0.210  0.00  0.00    +0.082 A 
ATOM      4  C   UNL     1      -0.201  -6.912  -0.323  0.00  0.00    +0.083 A 
ATOM      5  C   UNL     1      -0.214  -8.306  -0.436  0.00  0.00    +0.074 A 
ATOM      6  C   UNL     1      -1.417  -8.981  -0.437  0.00  0.00    +0.126 A 
ATOM      7  C   UNL     1      -2.625  -8.291  -0.325  0.00  0.00    +0.092 A 
ATOM      8  C   UNL     1      -2.641  -6.918  -0.212  0.00  0.00    +0.136 A 
ATOM      9  N   UNL     1       0.945  -6.213  -0.318  0.00  0.00    -0.235 NA
ATOM     10  C   UNL     1       0.926  -4.905  -0.209  0.00  0.00    +0.223 A 
ATOM     11  N   UNL     1      -0.195  -4.209  -0.107  0.00  0.00    -0.220 NA
ATOM     12  H   UNL     1      -3.405  -4.497  -0.081  0.00  0.00    +0.154 HD
ENDROOT
BRANCH   1  17
ATOM     13  C   UNL     1      -1.230  -0.767   0.990  0.00  0.00    +0.122 A 
ATOM     14  C   UNL     1      -2.348   0.030   0.784  0.00  0.00    +0.047 A 
ATOM     15  C   UNL     1      -3.524  -0.532   0.325  0.00  0.00    +0.025 A 
ATOM     16  C   UNL     1      -3.591  -1.889   0.070  0.00  0.00    +0.062 A 
ATOM     17  C   UNL     1      -2.475  -2.691   0.275  0.00  0.00    +0.054 A 
ATOM     18  C   UNL     1      -1.291  -2.127   0.730  0.00  0.00    +0.070 A 
ATOM     19 CL   UNL     1      -5.071  -2.591  -0.505  0.00  0.00    -0.082 Cl
BRANCH  13  21
ATOM     20  C   UNL     1      -0.083   1.195   1.689  0.00  0.00    +0.277 C 
ATOM     21  O   UNL     1      -0.074  -0.212   1.442  0.00  0.00    -0.495 OA
ENDBRANCH  13  21
ENDBRANCH   1  17
BRANCH   6  22
ATOM     22  O   UNL     1      -1.426 -10.335  -0.547  0.00  0.00    -0.495 OA
ATOM     23  C   UNL     1      -0.159 -10.985  -0.659  0.00  0.00    +0.277 C 
ENDBRANCH   6  22
BRANCH   8  24
ATOM     24  O   UNL     1      -3.820  -6.254  -0.103  0.00  0.00    -0.491 OA
BRANCH  24  25
ATOM     25  C   UNL     1      -5.011  -7.043  -0.113  0.00  0.00    +0.230 C 
BRANCH  25  26
ATOM     26  C   UNL     1      -6.230  -6.127   0.018  0.00  0.00    +0.056 C 
BRANCH  26  27
ATOM     27  C   UNL     1      -7.506  -6.971   0.007  0.00  0.00    +0.088 C 
BRANCH  27  28
ATOM     28  N   UNL     1      -8.676  -6.092   0.133  0.00  0.00    -0.298 NA
ATOM     29  C   UNL     1      -8.706  -5.441   1.451  0.00  0.00    +0.112 C 
ATOM     30  C   UNL     1      -9.905  -4.491   1.517  0.00  0.00    +0.175 C 
ATOM     31  O   UNL     1     -11.103  -5.223   1.247  0.00  0.00    -0.377 OA
ATOM     32  C   UNL     1     -11.108  -5.870  -0.028  0.00  0.00    +0.175 C 
ATOM     33  C   UNL     1      -9.921  -6.834  -0.110  0.00  0.00    +0.112 C 
ENDBRANCH  27  28
ENDBRANCH  26  27
ENDBRANCH  25  26
ENDBRANCH  24  25
ENDBRANCH   8  24
TORSDOF 8
