REMARK  Name = CHEMBL295528
REMARK  12 active torsions:
REMARK  status: ('A' for Active; 'I' for Inactive)
REMARK    1  A    between atoms: C_1  and  C_2
REMARK    2  A    between atoms: C_2  and  C_3
REMARK    3  A    between atoms: C_2  and  C_4
REMARK    4  A    between atoms: C_2  and  C_39
REMARK    5  A    between atoms: C_4  and  C_5
REMARK    6  A    between atoms: N_7  and  C_8
REMARK    7  A    between atoms: C_11  and  C_16
REMARK    8  A    between atoms: C_13  and  O_14
REMARK    9  A    between atoms: O_14  and  C_15
REMARK   10  A    between atoms: N_23  and  C_25
REMARK   11  A    between atoms: C_28  and  N_31
REMARK   12  A    between atoms: N_34  and  C_37
REMARK                            x       y       z     vdW  Elec       q    Type
REMARK                         _______ _______ _______ _____ _____    ______ ____
ROOT
ATOM      1  C   UNL     1      -6.226   0.982   6.195  0.00  0.00    +0.105 A 
ATOM      2  C   UNL     1      -5.629   1.311   7.490  0.00  0.00    +0.086 A 
ATOM      3  C   UNL     1      -4.319   1.374   7.992  0.00  0.00    +0.131 A 
ATOM      4  N   UNL     1      -4.147   1.722   9.264  0.00  0.00    -0.220 NA
ATOM      5  C   UNL     1      -5.179   2.001  10.040  0.00  0.00    +0.225 A 
ATOM      6  N   UNL     1      -6.422   1.956   9.614  0.00  0.00    -0.216 NA
ATOM      7  C   UNL     1      -6.696   1.618   8.354  0.00  0.00    +0.164 A 
ATOM      8  N   UNL     1      -7.843   1.482   7.630  0.00  0.00    -0.243 N 
ATOM      9  N   UNL     1      -7.526   1.100   6.322  0.00  0.00    -0.168 NA
ATOM     10  N   UNL     1      -3.236   1.082   7.186  0.00  0.00    -0.342 N 
ATOM     11  H   UNL     1      -3.377   0.778   6.275  0.00  0.00    +0.144 HD
ATOM     12  H   UNL     1      -2.334   1.181   7.529  0.00  0.00    +0.144 HD
ENDROOT
BRANCH   1  16
ATOM     13  C   UNL     1      -4.126  -0.140   2.667  0.00  0.00    +0.076 A 
ATOM     14  C   UNL     1      -3.811  -0.735   3.882  0.00  0.00    +0.027 A 
ATOM     15  C   UNL     1      -4.491  -0.372   5.026  0.00  0.00    +0.012 A 
ATOM     16  C   UNL     1      -5.495   0.593   4.966  0.00  0.00    +0.006 A 
ATOM     17  C   UNL     1      -5.812   1.192   3.747  0.00  0.00    +0.057 A 
ATOM     18  C   UNL     1      -5.125   0.830   2.602  0.00  0.00    +0.142 A 
BRANCH  13  21
ATOM     19  C   UNL     1      -2.195  -1.032   1.599  0.00  0.00    +0.218 C 
ATOM     20  O   UNL     1      -1.641  -1.093   2.677  0.00  0.00    -0.275 OA
ATOM     21  N   UNL     1      -3.434  -0.509   1.507  0.00  0.00    -0.283 N 
ATOM     22  H   UNL     1      -3.846  -0.390   0.638  0.00  0.00    +0.155 HD
BRANCH  19  23
ATOM     23  C   UNL     1      -1.497  -1.540   0.364  0.00  0.00    +0.107 C 
BRANCH  23  25
ATOM     24  C   UNL     1       0.713  -0.954   1.371  0.00  0.00    +0.016 C 
ATOM     25  C   UNL     1      -0.116  -2.076   0.743  0.00  0.00    -0.002 C 
ATOM     26  C   UNL     1      -0.270  -3.220   1.748  0.00  0.00    +0.016 C 
BRANCH  25  27
ATOM     27  C   UNL     1       0.582  -2.584  -0.493  0.00  0.00    -0.041 A 
ATOM     28  C   UNL     1      -0.047  -2.510  -1.722  0.00  0.00    +0.004 A 
ATOM     29  C   UNL     1       0.593  -2.976  -2.855  0.00  0.00    +0.000 A 
ATOM     30  C   UNL     1       1.861  -3.516  -2.760  0.00  0.00    +0.000 A 
ATOM     31  C   UNL     1       2.491  -3.590  -1.531  0.00  0.00    +0.000 A 
ATOM     32  C   UNL     1       1.853  -3.120  -0.399  0.00  0.00    +0.004 A 
ENDBRANCH  25  27
ENDBRANCH  23  25
ENDBRANCH  19  23
ENDBRANCH  13  21
BRANCH  18  33
ATOM     33  O   UNL     1      -5.429   1.415   1.413  0.00  0.00    -0.493 OA
ATOM     34  C   UNL     1      -6.464   2.401   1.421  0.00  0.00    +0.277 C 
ENDBRANCH  18  33
ENDBRANCH   1  16
BRANCH   8  35
ATOM     35  C   UNL     1      -9.198   1.707   8.141  0.00  0.00    +0.109 C 
ATOM     36  C   UNL     1     -10.013   0.418   8.010  0.00  0.00    +0.025 C 
ATOM     37  C   UNL     1     -11.427   0.652   8.544  0.00  0.00    -0.013 C 
ATOM     38  C   UNL     1     -12.099   1.765   7.736  0.00  0.00    -0.068 C 
ATOM     39  C   UNL     1     -11.285   3.054   7.867  0.00  0.00    -0.013 C 
ATOM     40  C   UNL     1      -9.870   2.819   7.334  0.00  0.00    +0.025 C 
BRANCH  38  41
ATOM     41  N   UNL     1     -13.457   1.990   8.249  0.00  0.00    +0.383 N 
ATOM     42  C   UNL     1     -14.239   0.752   8.124  0.00  0.00    -0.063 C 
ATOM     43  C   UNL     1     -15.648   0.981   8.675  0.00  0.00    +0.065 C 
ATOM     44  N   UNL     1     -16.294   2.066   7.924  0.00  0.00    -0.309 NA
ATOM     45  C   UNL     1     -15.510   3.306   8.019  0.00  0.00    +0.065 C 
ATOM     46  C   UNL     1     -14.102   3.058   7.473  0.00  0.00    -0.063 C 
ATOM     47  C   UNL     1     -17.672   2.278   8.387  0.00  0.00    +0.104 C 
ATOM     48  H   UNL     1     -13.410   2.261   9.219  0.00  0.00    -0.081 HD
ENDBRANCH  38  41
ENDBRANCH   8  35
TORSDOF 8
