REMARK  Name = CHEMBL472036
REMARK  11 active torsions:
REMARK  status: ('A' for Active; 'I' for Inactive)
REMARK    1  A    between atoms: C_1  and  C_2
REMARK    2  A    between atoms: C_7  and  O_8
REMARK    3  A    between atoms: O_8  and  C_9
REMARK    4  A    between atoms: C_9  and  C_10
REMARK    5  A    between atoms: C_10  and  C_11
REMARK    6  A    between atoms: C_11  and  N_12
REMARK    7  A    between atoms: N_12  and  C_13
REMARK    8  A    between atoms: N_12  and  C_14
REMARK    9  A    between atoms: C_17  and  C_31
REMARK   10  A    between atoms: C_18  and  N_19
REMARK   11  A    between atoms: N_19  and  C_20
REMARK                            x       y       z     vdW  Elec       q    Type
REMARK                         _______ _______ _______ _____ _____    ______ ____
ROOT
ATOM      1  C   UNL     1      -4.854  -2.541  -2.008  0.00  0.00    +0.047 C 
ATOM      2  C   UNL     1      -3.509  -2.961  -1.474  0.00  0.00    -0.008 A 
ATOM      3  C   UNL     1      -2.384  -2.683  -2.190  0.00  0.00    +0.018 A 
ATOM      4  C   UNL     1      -1.130  -3.071  -1.697  0.00  0.00    +0.023 A 
ATOM      5  C   UNL     1      -1.037  -3.750  -0.458  0.00  0.00    +0.076 A 
ATOM      6  C   UNL     1      -2.211  -4.024   0.259  0.00  0.00    +0.074 A 
ATOM      7  C   UNL     1      -3.429  -3.625  -0.248  0.00  0.00    +0.125 A 
ATOM      8  N   UNL     1       0.159  -4.123   0.020  0.00  0.00    -0.253 NA
ATOM      9  C   UNL     1       1.271  -3.881  -0.626  0.00  0.00    +0.132 A 
ATOM     10  C   UNL     1       1.273  -3.213  -1.861  0.00  0.00    +0.091 A 
ATOM     11  C   UNL     1       0.055  -2.795  -2.419  0.00  0.00    +0.060 A 
ENDROOT
BRANCH  11  12
ATOM     12  N   UNL     1       0.014  -2.136  -3.630  0.00  0.00    -0.313 N 
ATOM     13  H   UNL     1       0.128  -1.174  -3.663  0.00  0.00    +0.152 HD
BRANCH  12  14
ATOM     14  C   UNL     1      -0.192  -2.857  -4.812  0.00  0.00    +0.033 A 
ATOM     15  C   UNL     1      -0.490  -4.217  -4.752  0.00  0.00    +0.025 A 
ATOM     16  C   UNL     1      -0.694  -4.934  -5.897  0.00  0.00    +0.029 A 
ATOM     17  C   UNL     1      -0.604  -4.305  -7.141  0.00  0.00    +0.065 A 
ATOM     18  C   UNL     1      -0.303  -2.934  -7.205  0.00  0.00    +0.067 A 
ATOM     19  C   UNL     1      -0.103  -2.215  -6.037  0.00  0.00    +0.051 A 
ATOM     20  N   UNL     1      -0.284  -2.606  -8.550  0.00  0.00    -0.328 N 
ATOM     21  H   UNL     1      -0.105  -1.730  -8.926  0.00  0.00    +0.169 HD
ATOM     22  C   UNL     1      -0.564  -3.746  -9.250  0.00  0.00    +0.169 A 
ATOM     23  N   UNL     1      -0.751  -4.742  -8.421  0.00  0.00    -0.328 N 
ATOM     24  N   UNL     1      -0.638  -3.834 -10.625  0.00  0.00    -0.330 N 
ATOM     25  H   UNL     1      -0.486  -3.046 -11.170  0.00  0.00    +0.145 HD
ATOM     26  H   UNL     1      -0.842  -4.684 -11.046  0.00  0.00    +0.145 HD
ATOM     27  H   UNL     1      -0.962  -5.652  -8.680  0.00  0.00    +0.169 HD
ENDBRANCH  12  14
ENDBRANCH  11  12
BRANCH  10  28
ATOM     28  C   UNL     1       2.506  -2.962  -2.545  0.00  0.00    +0.103 C 
ATOM     29  N   UNL     1       3.484  -2.762  -3.088  0.00  0.00    -0.191 NA
ENDBRANCH  10  28
BRANCH   7  30
ATOM     30  O   UNL     1      -4.564  -3.886   0.450  0.00  0.00    -0.492 OA
BRANCH  30  31
ATOM     31  C   UNL     1      -4.417  -4.569   1.696  0.00  0.00    +0.227 C 
BRANCH  31  32
ATOM     32  C   UNL     1      -5.794  -4.773   2.332  0.00  0.00    +0.022 C 
BRANCH  32  33
ATOM     33  C   UNL     1      -5.636  -5.504   3.667  0.00  0.00    -0.076 C 
BRANCH  33  34
ATOM     34  N   UNL     1      -6.958  -5.699   4.277  0.00  0.00    +0.376 N 
ATOM     35  C   UNL     1      -6.820  -6.505   5.498  0.00  0.00    -0.097 C 
ATOM     36  C   UNL     1      -7.540  -4.394   4.615  0.00  0.00    -0.097 C 
ATOM     37  H   UNL     1      -7.562  -6.178   3.625  0.00  0.00    -0.083 HD
ENDBRANCH  33  34
ENDBRANCH  32  33
ENDBRANCH  31  32
ENDBRANCH  30  31
ENDBRANCH   7  30
TORSDOF 8
