REMARK  Name = CHEMBL418284
REMARK  10 active torsions:
REMARK  status: ('A' for Active; 'I' for Inactive)
REMARK    1  A    between atoms: C_1  and  C_2
REMARK    2  A    between atoms: N_7  and  C_8
REMARK    3  A    between atoms: C_8  and  C_9
REMARK    4  A    between atoms: C_9  and  C_10
REMARK    5  A    between atoms: C_10  and  N_11
REMARK    6  A    between atoms: C_17  and  C_30
REMARK    7  A    between atoms: N_25  and  C_26
REMARK    8  A    between atoms: C_26  and  C_27
REMARK    9  A    between atoms: C_26  and  C_28
REMARK   10  A    between atoms: C_26  and  C_29
REMARK                            x       y       z     vdW  Elec       q    Type
REMARK                         _______ _______ _______ _____ _____    ______ ____
ROOT
ATOM      1  N   UNL     1       5.079  -0.770   3.384  0.00  0.00    -0.313 N 
ATOM      2  C   UNL     1       6.423  -0.491   3.546  0.00  0.00    +0.217 A 
ATOM      3  N   UNL     1       7.017   0.314   2.668  0.00  0.00    -0.222 NA
ATOM      4  C   UNL     1       8.296   0.616   2.770  0.00  0.00    +0.126 A 
ATOM      5  C   UNL     1       9.031   0.067   3.835  0.00  0.00    +0.038 A 
ATOM      6  C   UNL     1      10.397   0.341   4.013  0.00  0.00    +0.025 A 
ATOM      7  C   UNL     1      11.042  -0.243   5.091  0.00  0.00    +0.026 A 
ATOM      8  C   UNL     1      10.316  -1.083   5.962  0.00  0.00    +0.136 A 
ATOM      9  N   UNL     1       9.035  -1.325   5.774  0.00  0.00    -0.212 NA
ATOM     10  C   UNL     1       8.366  -0.788   4.752  0.00  0.00    +0.167 A 
ATOM     11  N   UNL     1       7.062  -1.030   4.566  0.00  0.00    -0.195 NA
ATOM     12  N   UNL     1      10.965  -1.666   7.040  0.00  0.00    -0.254 N 
ATOM     13  C   UNL     1      10.286  -2.470   7.882  0.00  0.00    +0.305 C 
ATOM     14  O   UNL     1       9.104  -2.684   7.696  0.00  0.00    -0.252 OA
ATOM     15  N   UNL     1      10.917  -3.037   8.929  0.00  0.00    -0.294 N 
ATOM     16  H   UNL     1       4.625  -1.351   4.014  0.00  0.00    +0.149 HD
ATOM     17  H   UNL     1      11.908  -1.495   7.189  0.00  0.00    +0.158 HD
ATOM     18  H   UNL     1      11.860  -2.866   9.078  0.00  0.00    +0.151 HD
ENDROOT
BRANCH   7  19
ATOM     19  C   UNL     1      12.484   0.011   5.327  0.00  0.00    +0.022 A 
ATOM     20  C   UNL     1      13.445  -0.819   4.750  0.00  0.00    +0.050 A 
ATOM     21  C   UNL     1      14.786  -0.577   4.973  0.00  0.00    +0.021 A 
ATOM     22  C   UNL     1      15.177   0.486   5.767  0.00  0.00    +0.003 A 
ATOM     23  C   UNL     1      14.229   1.312   6.343  0.00  0.00    +0.021 A 
ATOM     24  C   UNL     1      12.885   1.084   6.123  0.00  0.00    +0.050 A 
ATOM     25 CL   UNL     1      11.696   2.126   6.840  0.00  0.00    -0.083 Cl
ATOM     26 CL   UNL     1      12.956  -2.154   3.753  0.00  0.00    -0.083 Cl
ENDBRANCH   7  19
BRANCH  15  27
ATOM     27  C   UNL     1      10.178  -3.911   9.844  0.00  0.00    +0.028 C 
ATOM     28  C   UNL     1       9.611  -5.101   9.066  0.00  0.00    +0.031 C 
ATOM     29  C   UNL     1      11.121  -4.419  10.937  0.00  0.00    +0.031 C 
ATOM     30  C   UNL     1       9.031  -3.127  10.484  0.00  0.00    +0.031 C 
ENDBRANCH  15  27
BRANCH   1  31
ATOM     31  C   UNL     1       4.340  -0.188   2.261  0.00  0.00    +0.102 C 
BRANCH  31  32
ATOM     32  C   UNL     1       2.883  -0.652   2.314  0.00  0.00    +0.000 C 
BRANCH  32  33
ATOM     33  C   UNL     1       2.111  -0.044   1.141  0.00  0.00    -0.077 C 
BRANCH  33  40
ATOM     34  C   UNL     1      -0.019   1.526   0.010  0.00  0.00    -0.013 C 
ATOM     35  C   UNL     1       0.002  -0.004   0.002  0.00  0.00    -0.072 C 
ATOM     36  C   UNL     1      -1.434  -0.533   0.009  0.00  0.00    -0.016 C 
ATOM     37  C   UNL     1      -2.148  -0.038   1.270  0.00  0.00    -0.003 C 
ATOM     38  C   UNL     1      -1.358  -0.487   2.502  0.00  0.00    -0.019 C 
ATOM     39  C   UNL     1       0.075   0.040   2.403  0.00  0.00    -0.078 C 
ATOM     40  N   UNL     1       0.712  -0.490   1.191  0.00  0.00    +0.381 N 
ATOM     41  H   UNL     1       0.683  -1.498   1.211  0.00  0.00    -0.081 HD
ENDBRANCH  33  40
ENDBRANCH  32  33
ENDBRANCH  31  32
ENDBRANCH   1  31
TORSDOF 6
