REMARK  Name = CHEMBL42136
REMARK  11 active torsions:
REMARK  status: ('A' for Active; 'I' for Inactive)
REMARK    1  A    between atoms: C_1  and  N_2
REMARK    2  A    between atoms: C_5  and  C_8
REMARK    3  A    between atoms: C_8  and  O_9
REMARK    4  A    between atoms: O_9  and  C_10
REMARK    5  A    between atoms: C_15  and  O_16
REMARK    6  A    between atoms: O_16  and  C_17
REMARK    7  A    between atoms: C_18  and  N_24
REMARK    8  A    between atoms: C_19  and  C_22
REMARK    9  A    between atoms: N_24  and  C_25
REMARK   10  A    between atoms: C_27  and  O_33
REMARK   11  A    between atoms: O_33  and  C_34
REMARK                            x       y       z     vdW  Elec       q    Type
REMARK                         _______ _______ _______ _____ _____    ______ ____
ROOT
ATOM      1  C   UNL     1       2.804  -8.672  -0.688  0.00  0.00    +0.164 A 
ATOM      2  C   UNL     1       1.432  -8.583  -0.753  0.00  0.00    +0.077 A 
ATOM      3  C   UNL     1       0.651  -9.104   0.290  0.00  0.00    +0.077 A 
ATOM      4  C   UNL     1       1.293  -9.715   1.395  0.00  0.00    +0.026 A 
ATOM      5  C   UNL     1       2.693  -9.793   1.435  0.00  0.00    +0.061 A 
ATOM      6  C   UNL     1       3.432  -9.284   0.406  0.00  0.00    +0.162 A 
ATOM      7  C   UNL     1       0.503 -10.239   2.444  0.00  0.00    +0.060 A 
ATOM      8  C   UNL     1      -0.891 -10.125   2.334  0.00  0.00    +0.091 A 
ATOM      9  C   UNL     1      -1.442  -9.504   1.202  0.00  0.00    +0.132 A 
ATOM     10  N   UNL     1      -0.687  -9.027   0.245  0.00  0.00    -0.253 NA
ENDROOT
BRANCH   6  11
ATOM     11  O   UNL     1       4.788  -9.365   0.445  0.00  0.00    -0.491 OA
ATOM     12  C   UNL     1       5.367 -10.000   1.587  0.00  0.00    +0.277 C 
ENDBRANCH   6  11
BRANCH   8  13
ATOM     13  C   UNL     1      -1.742 -10.638   3.365  0.00  0.00    +0.103 C 
ATOM     14  N   UNL     1      -2.418 -11.044   4.182  0.00  0.00    -0.191 NA
ENDBRANCH   8  13
BRANCH   7  15
ATOM     15  N   UNL     1       1.085 -10.844   3.540  0.00  0.00    -0.312 N 
ATOM     16  H   UNL     1       1.223 -10.338   4.357  0.00  0.00    +0.152 HD
BRANCH  15  17
ATOM     17  C   UNL     1       1.475 -12.185   3.474  0.00  0.00    +0.053 A 
ATOM     18  C   UNL     1       1.388 -12.876   2.273  0.00  0.00    +0.071 A 
ATOM     19  C   UNL     1       1.775 -14.205   2.211  0.00  0.00    +0.140 A 
ATOM     20  C   UNL     1       2.249 -14.843   3.349  0.00  0.00    +0.084 A 
ATOM     21  C   UNL     1       2.335 -14.155   4.545  0.00  0.00    +0.045 A 
ATOM     22  C   UNL     1       1.955 -12.827   4.610  0.00  0.00    +0.064 A 
ATOM     23 CL   UNL     1       2.072 -11.963   6.111  0.00  0.00    -0.082 Cl
ATOM     24 CL   UNL     1       2.734 -16.509   3.271  0.00  0.00    -0.080 Cl
BRANCH  19  25
ATOM     25  O   UNL     1       1.691 -14.883   1.036  0.00  0.00    -0.494 OA
ATOM     26  C   UNL     1       1.310 -14.134  -0.120  0.00  0.00    +0.277 C 
ENDBRANCH  19  25
ENDBRANCH  15  17
ENDBRANCH   7  15
BRANCH   1  27
ATOM     27  O   UNL     1       3.558  -8.167  -1.699  0.00  0.00    -0.488 OA
BRANCH  27  28
ATOM     28  C   UNL     1       2.861  -7.556  -2.787  0.00  0.00    +0.232 C 
BRANCH  28  33
ATOM     29  C   UNL     1       5.692  -6.619  -7.647  0.00  0.00    -0.096 C 
ATOM     30  N   UNL     1       4.788  -7.036  -6.567  0.00  0.00    +0.378 N 
ATOM     31  C   UNL     1       4.136  -5.852  -5.994  0.00  0.00    -0.079 C 
ATOM     32  C   UNL     1       3.132  -6.287  -4.924  0.00  0.00    -0.012 C 
ATOM     33  C   UNL     1       3.869  -7.050  -3.820  0.00  0.00    +0.023 C 
ATOM     34  C   UNL     1       4.606  -8.240  -4.441  0.00  0.00    -0.012 C 
ATOM     35  C   UNL     1       5.556  -7.734  -5.529  0.00  0.00    -0.079 C 
ATOM     36  H   UNL     1       4.085  -7.657  -6.939  0.00  0.00    -0.082 HD
ENDBRANCH  28  33
ENDBRANCH  27  28
ENDBRANCH   1  27
TORSDOF 8
