REMARK  Name = CHEMBL128612
REMARK  13 active torsions:
REMARK  status: ('A' for Active; 'I' for Inactive)
REMARK    1  A    between atoms: C_1  and  O_2
REMARK    2  A    between atoms: O_2  and  C_3
REMARK    3  A    between atoms: C_8  and  O_9
REMARK    4  A    between atoms: O_9  and  C_10
REMARK    5  A    between atoms: C_10  and  C_11
REMARK    6  A    between atoms: C_11  and  C_12
REMARK    7  A    between atoms: C_12  and  C_13
REMARK    8  A    between atoms: C_13  and  N_14
REMARK    9  A    between atoms: C_22  and  C_35
REMARK   10  A    between atoms: C_23  and  N_24
REMARK   11  A    between atoms: N_24  and  C_25
REMARK   12  A    between atoms: C_27  and  O_33
REMARK   13  A    between atoms: O_33  and  C_34
REMARK                            x       y       z     vdW  Elec       q    Type
REMARK                         _______ _______ _______ _____ _____    ______ ____
ROOT
ATOM      1  C   UNL     1      -1.156  -0.429   0.797  0.00  0.00    +0.162 A 
ATOM      2  C   UNL     1      -2.318   0.246   0.552  0.00  0.00    +0.061 A 
ATOM      3  C   UNL     1      -3.526  -0.460   0.451  0.00  0.00    +0.026 A 
ATOM      4  C   UNL     1      -3.537  -1.867   0.603  0.00  0.00    +0.077 A 
ATOM      5  C   UNL     1      -2.330  -2.538   0.854  0.00  0.00    +0.077 A 
ATOM      6  C   UNL     1      -1.158  -1.823   0.943  0.00  0.00    +0.164 A 
ATOM      7  N   UNL     1      -4.689  -2.548   0.507  0.00  0.00    -0.253 NA
ATOM      8  C   UNL     1      -5.830  -1.951   0.272  0.00  0.00    +0.132 A 
ATOM      9  C   UNL     1      -5.912  -0.559   0.108  0.00  0.00    +0.091 A 
ATOM     10  C   UNL     1      -4.744   0.213   0.197  0.00  0.00    +0.060 A 
ENDROOT
BRANCH   1  12
ATOM     11  C   UNL     1      -0.052   1.676   0.736  0.00  0.00    +0.277 C 
ATOM     12  O   UNL     1       0.013   0.258   0.894  0.00  0.00    -0.491 OA
ENDBRANCH   1  12
BRANCH  10  13
ATOM     13  N   UNL     1      -4.782   1.584   0.042  0.00  0.00    -0.312 N 
ATOM     14  H   UNL     1      -3.981   2.065  -0.219  0.00  0.00    +0.152 HD
BRANCH  13  15
ATOM     15  C   UNL     1      -5.975   2.280   0.260  0.00  0.00    +0.053 A 
ATOM     16  C   UNL     1      -6.624   2.897  -0.801  0.00  0.00    +0.071 A 
ATOM     17  C   UNL     1      -7.806   3.585  -0.582  0.00  0.00    +0.140 A 
ATOM     18  C   UNL     1      -8.341   3.656   0.698  0.00  0.00    +0.084 A 
ATOM     19  C   UNL     1      -7.694   3.041   1.755  0.00  0.00    +0.045 A 
ATOM     20  C   UNL     1      -6.516   2.349   1.538  0.00  0.00    +0.064 A 
ATOM     21 CL   UNL     1      -5.711   1.572   2.865  0.00  0.00    -0.082 Cl
ATOM     22 CL   UNL     1      -9.822   4.518   0.973  0.00  0.00    -0.080 Cl
BRANCH  17  23
ATOM     23  O   UNL     1      -8.443   4.190  -1.619  0.00  0.00    -0.494 OA
ATOM     24  C   UNL     1      -7.901   3.981  -2.924  0.00  0.00    +0.277 C 
ENDBRANCH  17  23
ENDBRANCH  13  15
ENDBRANCH  10  13
BRANCH   9  25
ATOM     25  C   UNL     1      -7.175   0.066  -0.147  0.00  0.00    +0.103 C 
ATOM     26  N   UNL     1      -8.177   0.562  -0.350  0.00  0.00    -0.191 NA
ENDBRANCH   9  25
BRANCH   6  27
ATOM     27  O   UNL     1       0.011  -2.475   1.180  0.00  0.00    -0.488 OA
BRANCH  27  28
ATOM     28  C   UNL     1      -0.056  -3.895   1.319  0.00  0.00    +0.229 C 
BRANCH  28  29
ATOM     29  C   UNL     1       1.346  -4.449   1.580  0.00  0.00    +0.042 C 
BRANCH  29  30
ATOM     30  C   UNL     1       1.275  -5.970   1.730  0.00  0.00    +0.019 C 
BRANCH  30  31
ATOM     31  C   UNL     1       2.678  -6.523   1.990  0.00  0.00    +0.084 C 
BRANCH  31  32
ATOM     32  N   UNL     1       2.609  -7.983   2.134  0.00  0.00    -0.298 NA
ATOM     33  C   UNL     1       1.861  -8.359   3.342  0.00  0.00    +0.112 C 
ATOM     34  C   UNL     1       1.763  -9.885   3.421  0.00  0.00    +0.175 C 
ATOM     35  O   UNL     1       3.080 -10.444   3.402  0.00  0.00    -0.377 OA
ATOM     36  C   UNL     1       3.836 -10.098   2.239  0.00  0.00    +0.175 C 
ATOM     37  C   UNL     1       3.955  -8.575   2.148  0.00  0.00    +0.112 C 
ENDBRANCH  31  32
ENDBRANCH  30  31
ENDBRANCH  29  30
ENDBRANCH  28  29
ENDBRANCH  27  28
ENDBRANCH   6  27
TORSDOF 11
