REMARK  Name = CHEMBL168916
REMARK  6 active torsions:
REMARK  status: ('A' for Active; 'I' for Inactive)
REMARK    1  A    between atoms: C_4  and  C_7
REMARK    2  A    between atoms: N_9  and  C_17
REMARK    3  A    between atoms: C_12  and  N_16
REMARK    4  A    between atoms: C_17  and  C_18
REMARK    5  A    between atoms: C_17  and  C_20
REMARK    6  A    between atoms: C_18  and  O_19
REMARK                            x       y       z     vdW  Elec       q    Type
REMARK                         _______ _______ _______ _____ _____    ______ ____
ROOT
ATOM      1  C   UNL     1       3.694  -0.786   0.001  0.00  0.00    +0.012 A 
ATOM      2  C   UNL     1       4.723  -0.524  -0.841  0.00  0.00    +0.097 A 
ATOM      3  N   UNL     1       5.765  -1.369  -0.571  0.00  0.00    -0.322 N 
ATOM      4  C   UNL     1       5.440  -2.208   0.460  0.00  0.00    +0.147 A 
ATOM      5  C   UNL     1       4.136  -1.883   0.872  0.00  0.00    +0.066 A 
ATOM      6  C   UNL     1       3.564  -2.601   1.930  0.00  0.00    +0.129 A 
ATOM      7  N   UNL     1       4.284  -3.562   2.503  0.00  0.00    -0.220 NA
ATOM      8  C   UNL     1       5.507  -3.834   2.088  0.00  0.00    +0.225 A 
ATOM      9  N   UNL     1       6.080  -3.190   1.093  0.00  0.00    -0.218 NA
ENDROOT
BRANCH   1  13
ATOM     10  C   UNL     1      -0.067   1.193   0.112  0.00  0.00    +0.000 A 
ATOM     11  C   UNL     1       1.101   1.934   0.106  0.00  0.00    +0.001 A 
ATOM     12  C   UNL     1       2.325   1.297   0.070  0.00  0.00    +0.008 A 
ATOM     13  C   UNL     1       2.382  -0.096   0.040  0.00  0.00    -0.016 A 
ATOM     14  C   UNL     1       1.202  -0.837   0.046  0.00  0.00    +0.008 A 
ATOM     15  C   UNL     1      -0.016  -0.189   0.082  0.00  0.00    +0.001 A 
ENDBRANCH   1  13
BRANCH   6  16
ATOM     16  N   UNL     1       2.282  -2.318   2.368  0.00  0.00    -0.343 N 
ATOM     17  H   UNL     1       1.768  -1.615   1.942  0.00  0.00    +0.144 HD
ATOM     18  H   UNL     1       1.898  -2.823   3.102  0.00  0.00    +0.144 HD
ENDBRANCH   6  16
BRANCH   3  19
ATOM     19  C   UNL     1       7.044  -1.375  -1.284  0.00  0.00    +0.144 C 
BRANCH  19  20
ATOM     20  C   UNL     1       6.821  -1.797  -2.714  0.00  0.00    -0.023 A 
ATOM     21  C   UNL     1       6.107  -0.981  -3.571  0.00  0.00    +0.006 A 
ATOM     22  C   UNL     1       5.902  -1.368  -4.883  0.00  0.00    +0.000 A 
ATOM     23  C   UNL     1       6.411  -2.570  -5.336  0.00  0.00    +0.000 A 
ATOM     24  C   UNL     1       7.126  -3.385  -4.479  0.00  0.00    +0.000 A 
ATOM     25  C   UNL     1       7.335  -2.997  -3.169  0.00  0.00    +0.006 A 
ENDBRANCH  19  20
BRANCH  19  26
ATOM     26  C   UNL     1       7.651   0.029  -1.256  0.00  0.00    +0.185 C 
BRANCH  26  27
ATOM     27  O   UNL     1       7.971   0.383   0.092  0.00  0.00    -0.393 OA
ATOM     28  H   UNL     1       8.360   1.262   0.186  0.00  0.00    +0.209 HD
ENDBRANCH  26  27
ENDBRANCH  19  26
ENDBRANCH   3  19
TORSDOF 6
