REMARK  Name = CHEMBL1173309
REMARK  3 active torsions:
REMARK  status: ('A' for Active; 'I' for Inactive)
REMARK    1  A    between atoms: C_3  and  N_11
REMARK    2  A    between atoms: C_5  and  S_7
REMARK    3  A    between atoms: S_7  and  N_10
REMARK                            x       y       z     vdW  Elec       q    Type
REMARK                         _______ _______ _______ _____ _____    ______ ____
ROOT
ATOM      1  N   UNL     1       3.583   2.122  -0.029  0.00  0.00    -0.297 N 
ATOM      2  C   UNL     1       3.567   3.503  -0.122  0.00  0.00    +0.156 A 
ATOM      3  C   UNL     1       4.765   4.229  -0.239  0.00  0.00    +0.148 A 
ATOM      4  C   UNL     1       4.690   5.628  -0.331  0.00  0.00    +0.165 A 
ATOM      5  N   UNL     1       5.984   6.071  -0.434  0.00  0.00    -0.329 N 
ATOM      6  H   UNL     1       6.270   6.995  -0.512  0.00  0.00    +0.168 HD
ATOM      7  C   UNL     1       6.795   4.975  -0.404  0.00  0.00    +0.198 A 
ATOM      8  N   UNL     1       6.078   3.895  -0.290  0.00  0.00    -0.231 NA
ATOM      9  N   UNL     1       3.498   6.216  -0.304  0.00  0.00    -0.195 NA
ATOM     10  C   UNL     1       2.394   5.495  -0.193  0.00  0.00    +0.221 A 
ATOM     11  N   UNL     1       2.418   4.171  -0.109  0.00  0.00    -0.197 NA
ATOM     12  N   UNL     1       1.170   6.144  -0.168  0.00  0.00    -0.303 N 
ATOM     13  C   UNL     1      -0.076   5.401   0.073  0.00  0.00    +0.089 C 
ATOM     14  C   UNL     1      -0.858   6.111   1.182  0.00  0.00    -0.063 C 
ATOM     15  N   UNL     1      -1.054   7.520   0.817  0.00  0.00    +0.381 N 
ATOM     16  C   UNL     1       0.243   8.204   0.749  0.00  0.00    -0.063 C 
ATOM     17  C   UNL     1       1.081   7.598  -0.377  0.00  0.00    +0.089 C 
ATOM     18  H   UNL     1       4.428   1.650   0.034  0.00  0.00    +0.154 HD
ATOM     19  H   UNL     1      -1.508   7.573  -0.082  0.00  0.00    -0.086 HD
ATOM     20  H   UNL     1      -1.633   7.968   1.511  0.00  0.00    -0.086 HD
ENDROOT
BRANCH   1  23
ATOM     21  C   UNL     1       0.104   1.169  -0.737  0.00  0.00    +0.004 A 
ATOM     22  C   UNL     1       1.290   1.877  -0.744  0.00  0.00    +0.023 A 
ATOM     23  C   UNL     1       2.381   1.408  -0.024  0.00  0.00    +0.034 A 
ATOM     24  C   UNL     1       2.276   0.227   0.700  0.00  0.00    +0.051 A 
ATOM     25  C   UNL     1       1.087  -0.476   0.702  0.00  0.00    +0.107 A 
ATOM     26  C   UNL     1       0.003  -0.006  -0.016  0.00  0.00    +0.028 A 
BRANCH  25  27
ATOM     27  S   UNL     1       0.953  -1.974   1.620  0.00  0.00    +0.056 S 
ATOM     28  O   UNL     1      -0.092  -2.726   1.019  0.00  0.00    -0.153 OA
ATOM     29  O   UNL     1       2.272  -2.483   1.762  0.00  0.00    -0.153 OA
BRANCH  27  30
ATOM     30  N   UNL     1       0.433  -1.573   3.140  0.00  0.00    -0.204 NA
ATOM     31  H   UNL     1      -0.105  -2.198   3.650  0.00  0.00    +0.144 HD
ATOM     32  H   UNL     1       0.668  -0.712   3.521  0.00  0.00    +0.144 HD
ENDBRANCH  27  30
ENDBRANCH  25  27
ENDBRANCH   1  23
TORSDOF 3
