REMARK  Name = CHEMBL437004
REMARK  9 active torsions:
REMARK  status: ('A' for Active; 'I' for Inactive)
REMARK    1  A    between atoms: C_1  and  C_2
REMARK    2  A    between atoms: C_6  and  C_34
REMARK    3  A    between atoms: C_7  and  C_8
REMARK    4  A    between atoms: C_10  and  C_33
REMARK    5  A    between atoms: N_18  and  C_19
REMARK    6  A    between atoms: C_23  and  O_25
REMARK    7  A    between atoms: O_25  and  C_26
REMARK    8  A    between atoms: C_26  and  C_27
REMARK    9  A    between atoms: C_27  and  N_28
REMARK                            x       y       z     vdW  Elec       q    Type
REMARK                         _______ _______ _______ _____ _____    ______ ____
ROOT
ATOM      1  C   UNL     1      -0.061  -0.114   2.571  0.00  0.00    -0.015 A 
ATOM      2  C   UNL     1       0.942  -0.379   3.518  0.00  0.00    +0.014 A 
ATOM      3  C   UNL     1       0.963   0.270   4.712  0.00  0.00    -0.022 A 
ATOM      4  C   UNL     1      -0.028   1.219   5.011  0.00  0.00    +0.097 A 
ATOM      5  C   UNL     1      -1.047   1.496   4.061  0.00  0.00    +0.112 A 
ATOM      6  C   UNL     1      -1.047   0.819   2.833  0.00  0.00    +0.040 A 
ATOM      7  N   UNL     1      -1.983   2.404   4.362  0.00  0.00    -0.144 NA
ATOM      8  N   UNL     1      -1.947   3.009   5.500  0.00  0.00    -0.112 NA
ATOM      9  C   UNL     1      -0.997   2.761   6.403  0.00  0.00    +0.240 A 
ATOM     10  N   UNL     1      -0.041   1.878   6.176  0.00  0.00    -0.211 NA
ATOM     11  N   UNL     1      -1.013   3.446   7.607  0.00  0.00    -0.282 N 
ATOM     12  C   UNL     1       2.047  -0.030   5.715  0.00  0.00    +0.046 C 
ATOM     13  H   UNL     1      -0.283   3.336   8.237  0.00  0.00    +0.155 HD
ENDROOT
BRANCH   1  20
ATOM     14  C   UNL     1       0.372   1.349   0.113  0.00  0.00    +0.044 C 
ATOM     15  C   UNL     1       0.149  -0.141   0.087  0.00  0.00    -0.042 A 
ATOM     16  C   UNL     1       0.156  -0.820  -1.114  0.00  0.00    +0.004 A 
ATOM     17  C   UNL     1      -0.049  -2.188  -1.140  0.00  0.00    +0.001 A 
ATOM     18  C   UNL     1      -0.262  -2.883   0.037  0.00  0.00    +0.004 A 
ATOM     19  C   UNL     1      -0.272  -2.214   1.244  0.00  0.00    -0.042 A 
ATOM     20  C   UNL     1      -0.059  -0.837   1.277  0.00  0.00    -0.012 A 
ATOM     21  C   UNL     1      -0.504  -2.972   2.526  0.00  0.00    +0.044 C 
ENDBRANCH   1  20
BRANCH  11  22
ATOM     22  C   UNL     1      -2.077   4.292   7.913  0.00  0.00    +0.040 A 
ATOM     23  C   UNL     1      -3.378   3.979   7.513  0.00  0.00    +0.043 A 
ATOM     24  C   UNL     1      -4.405   4.840   7.834  0.00  0.00    +0.116 A 
ATOM     25  N   UNL     1      -4.173   5.950   8.511  0.00  0.00    -0.221 NA
ATOM     26  C   UNL     1      -2.956   6.283   8.909  0.00  0.00    +0.216 A 
ATOM     27  C   UNL     1      -1.871   5.466   8.631  0.00  0.00    +0.090 A 
BRANCH  26  28
ATOM     28  O   UNL     1      -2.768   7.434   9.603  0.00  0.00    -0.478 OA
BRANCH  28  29
ATOM     29  C   UNL     1      -3.926   8.230   9.864  0.00  0.00    +0.212 C 
BRANCH  29  30
ATOM     30  C   UNL     1      -3.520   9.478  10.650  0.00  0.00    -0.037 C 
BRANCH  30  31
ATOM     31  N   UNL     1      -2.650  10.320   9.818  0.00  0.00    +0.382 N 
ATOM     32  C   UNL     1      -3.425  10.902   8.693  0.00  0.00    -0.079 C 
ATOM     33  C   UNL     1      -2.582  12.137   8.285  0.00  0.00    -0.020 C 
ATOM     34  C   UNL     1      -2.071  12.671   9.642  0.00  0.00    -0.020 C 
ATOM     35  C   UNL     1      -2.151  11.470  10.603  0.00  0.00    -0.079 C 
ATOM     36  H   UNL     1      -1.876   9.778   9.465  0.00  0.00    -0.082 HD
ENDBRANCH  30  31
ENDBRANCH  29  30
ENDBRANCH  28  29
ENDBRANCH  26  28
ENDBRANCH  11  22
TORSDOF 6
