REMARK  Name = CHEMBL459850
REMARK  6 active torsions:
REMARK  status: ('A' for Active; 'I' for Inactive)
REMARK    1  A    between atoms: C_1  and  C_2
REMARK    2  A    between atoms: C_5  and  N_21
REMARK    3  A    between atoms: C_7  and  N_8
REMARK    4  A    between atoms: N_16  and  C_19
REMARK    5  A    between atoms: C_22  and  C_24
REMARK    6  A    between atoms: C_28  and  C_30
REMARK                            x       y       z     vdW  Elec       q    Type
REMARK                         _______ _______ _______ _____ _____    ______ ____
ROOT
ATOM      1  C   UNL     1      -0.044   1.502   0.029  0.00  0.00    +0.045 C 
ATOM      2  C   UNL     1      -0.017  -0.004   0.015  0.00  0.00    -0.029 A 
ATOM      3  C   UNL     1      -0.004  -0.684  -1.188  0.00  0.00    +0.007 A 
ATOM      4  C   UNL     1       0.020  -2.065  -1.204  0.00  0.00    +0.024 A 
ATOM      5  C   UNL     1       0.033  -2.775  -0.010  0.00  0.00    +0.035 A 
ATOM      6  C   UNL     1       0.021  -2.096   1.200  0.00  0.00    +0.047 A 
ATOM      7  C   UNL     1       0.001  -0.708   1.213  0.00  0.00    +0.043 A 
ENDROOT
BRANCH   7   8
ATOM      8  N   UNL     1      -0.005  -0.019   2.430  0.00  0.00    -0.250 N 
ATOM      9  C   UNL     1      -1.279   0.321   3.090  0.00  0.00    +0.155 C 
ATOM     10  C   UNL     1      -1.186   1.064   4.400  0.00  0.00    +0.029 A 
ATOM     11  C   UNL     1      -2.300   1.437   5.111  0.00  0.00    +0.123 A 
ATOM     12  N   UNL     1      -2.135   2.089   6.257  0.00  0.00    -0.223 NA
ATOM     13  C   UNL     1      -0.921   2.374   6.706  0.00  0.00    +0.214 A 
ATOM     14  N   UNL     1       0.174   2.029   6.044  0.00  0.00    -0.199 NA
ATOM     15  C   UNL     1       0.082   1.375   4.892  0.00  0.00    +0.138 A 
ATOM     16  N   UNL     1       1.209   1.001   4.181  0.00  0.00    -0.242 N 
ATOM     17  C   UNL     1       1.151   0.337   3.019  0.00  0.00    +0.314 C 
ATOM     18  O   UNL     1       2.194   0.047   2.467  0.00  0.00    -0.252 OA
ATOM     19  C   UNL     1       2.525   1.343   4.726  0.00  0.00    +0.141 C 
ATOM     20  N   UNL     1      -0.793   3.055   7.904  0.00  0.00    -0.327 N 
ATOM     21  H   UNL     1      -1.585   3.316   8.401  0.00  0.00    +0.145 HD
ATOM     22  H   UNL     1       0.088   3.272   8.247  0.00  0.00    +0.145 HD
ENDBRANCH   7   8
BRANCH   5  23
ATOM     23  N   UNL     1       0.057  -4.173  -0.027  0.00  0.00    -0.281 N 
ATOM     24  C   UNL     1       0.740  -4.847   0.919  0.00  0.00    +0.248 C 
ATOM     25  O   UNL     1       1.265  -4.245   1.836  0.00  0.00    -0.270 OA
ATOM     26  H   UNL     1      -0.417  -4.658  -0.720  0.00  0.00    +0.155 HD
BRANCH  24  27
ATOM     27  C   UNL     1       0.852  -6.319   0.844  0.00  0.00    +0.038 A 
ATOM     28  C   UNL     1       0.256  -7.014  -0.210  0.00  0.00    +0.013 A 
ATOM     29  C   UNL     1       0.364  -8.388  -0.276  0.00  0.00    +0.001 A 
ATOM     30  C   UNL     1       1.061  -9.077   0.701  0.00  0.00    +0.012 A 
ATOM     31  C   UNL     1       1.655  -8.395   1.748  0.00  0.00    +0.056 A 
ATOM     32  C   UNL     1       1.558  -7.020   1.822  0.00  0.00    +0.025 A 
BRANCH  31  33
ATOM     33  C   UNL     1       2.412  -9.153   2.806  0.00  0.00    +0.417 C 
ATOM     34  F   UNL     1       2.376 -10.521   2.515  0.00  0.00    -0.166 F 
ATOM     35  F   UNL     1       3.741  -8.717   2.832  0.00  0.00    -0.166 F 
ATOM     36  F   UNL     1       1.823  -8.926   4.055  0.00  0.00    -0.166 F 
ENDBRANCH  31  33
ENDBRANCH  24  27
ENDBRANCH   5  23
TORSDOF 4
