REMARK  Name = CHEMBL491686
REMARK  4 active torsions:
REMARK  status: ('A' for Active; 'I' for Inactive)
REMARK    1  A    between atoms: C_1  and  C_2
REMARK    2  A    between atoms: C_4  and  N_8
REMARK    3  A    between atoms: N_15  and  C_16
REMARK    4  A    between atoms: C_20  and  C_22
REMARK                            x       y       z     vdW  Elec       q    Type
REMARK                         _______ _______ _______ _____ _____    ______ ____
ROOT
ATOM      1  N   UNL     1      -0.552  -3.469   1.448  0.00  0.00    -0.285 N 
ATOM      2  C   UNL     1      -0.625  -3.301   2.822  0.00  0.00    +0.129 A 
ATOM      3  C   UNL     1      -1.020  -2.077   3.367  0.00  0.00    +0.061 A 
ATOM      4  C   UNL     1      -1.079  -1.955   4.742  0.00  0.00    +0.089 A 
ATOM      5  N   UNL     1      -0.760  -2.995   5.498  0.00  0.00    -0.334 N 
ATOM      6  C   UNL     1      -0.388  -4.144   4.955  0.00  0.00    +0.199 A 
ATOM      7  N   UNL     1      -0.324  -4.304   3.641  0.00  0.00    -0.201 NA
ATOM      8  N   UNL     1      -0.061  -5.208   5.780  0.00  0.00    -0.285 N 
ATOM      9  H   UNL     1      -0.854  -2.761   0.857  0.00  0.00    +0.155 HD
ATOM     10  H   UNL     1       0.303  -6.023   5.401  0.00  0.00    +0.155 HD
ATOM     11  H   UNL     1      -0.800  -2.914   6.464  0.00  0.00    +0.168 HD
ENDROOT
BRANCH   1  15
ATOM     12  C   UNL     1       1.496  -8.002   1.056  0.00  0.00    +0.067 C 
ATOM     13  C   UNL     1       0.865  -6.678   0.710  0.00  0.00    +0.062 A 
ATOM     14  C   UNL     1       0.479  -5.693   1.622  0.00  0.00    +0.068 A 
ATOM     15  C   UNL     1      -0.047  -4.653   0.917  0.00  0.00    +0.120 A 
ATOM     16  N   UNL     1       0.011  -4.983  -0.399  0.00  0.00    -0.264 N 
ATOM     17  N   UNL     1       0.592  -6.254  -0.498  0.00  0.00    -0.178 NA
ATOM     18  H   UNL     1      -0.292  -4.434  -1.140  0.00  0.00    +0.190 HD
ENDBRANCH   1  15
BRANCH   8  19
ATOM     19  C   UNL     1      -0.258  -5.107   7.161  0.00  0.00    +0.034 A 
ATOM     20  C   UNL     1      -1.403  -4.495   7.657  0.00  0.00    +0.023 A 
ATOM     21  C   UNL     1      -1.602  -4.393   9.021  0.00  0.00    +0.002 A 
ATOM     22  C   UNL     1      -0.664  -4.898   9.900  0.00  0.00    +0.010 A 
ATOM     23  C   UNL     1       0.489  -5.514   9.411  0.00  0.00    +0.009 A 
ATOM     24  C   UNL     1       0.687  -5.622   8.035  0.00  0.00    +0.034 A 
BRANCH  23  25
ATOM     25  C   UNL     1       1.495  -6.056  10.351  0.00  0.00    +0.109 A 
ATOM     26  N   UNL     1       2.633  -6.658  10.083  0.00  0.00    -0.239 NA
ATOM     27  C   UNL     1       3.460  -7.104  11.048  0.00  0.00    +0.079 A 
ATOM     28  C   UNL     1       4.704  -7.764  10.897  0.00  0.00    +0.029 A 
ATOM     29  C   UNL     1       5.421  -8.154  11.984  0.00  0.00    +0.002 A 
ATOM     30  C   UNL     1       4.971  -7.924  13.277  0.00  0.00    +0.001 A 
ATOM     31  C   UNL     1       3.761  -7.282  13.468  0.00  0.00    +0.017 A 
ATOM     32  C   UNL     1       3.028  -6.884  12.377  0.00  0.00    +0.040 A 
ATOM     33  S   UNL     1       1.478  -6.051  12.138  0.00  0.00    -0.067 S 
ENDBRANCH  23  25
ENDBRANCH   8  19
TORSDOF 3
