REMARK  Name = CHEMBL217464
REMARK  7 active torsions:
REMARK  status: ('A' for Active; 'I' for Inactive)
REMARK    1  A    between atoms: C_1  and  N_2
REMARK    2  A    between atoms: C_5  and  O_8
REMARK    3  A    between atoms: O_8  and  C_9
REMARK    4  A    between atoms: C_11  and  O_30
REMARK    5  A    between atoms: N_19  and  C_20
REMARK    6  A    between atoms: O_30  and  C_31
REMARK    7  A    between atoms: C_31  and  C_32
REMARK                            x       y       z     vdW  Elec       q    Type
REMARK                         _______ _______ _______ _____ _____    ______ ____
ROOT
ATOM      1  C   UNL     1      -0.399  -4.596   2.063  0.00  0.00    +0.137 A 
ATOM      2  C   UNL     1      -0.494  -3.876   3.235  0.00  0.00    +0.092 A 
ATOM      3  C   UNL     1      -1.150  -4.409   4.345  0.00  0.00    +0.126 A 
ATOM      4  C   UNL     1      -1.717  -5.666   4.296  0.00  0.00    +0.074 A 
ATOM      5  C   UNL     1      -1.636  -6.418   3.120  0.00  0.00    +0.083 A 
ATOM      6  C   UNL     1      -0.975  -5.876   1.990  0.00  0.00    +0.082 A 
ATOM      7  C   UNL     1      -0.913  -6.657   0.814  0.00  0.00    +0.138 A 
ATOM      8  N   UNL     1      -1.482  -7.857   0.826  0.00  0.00    -0.220 NA
ATOM      9  C   UNL     1      -2.094  -8.320   1.903  0.00  0.00    +0.223 A 
ATOM     10  N   UNL     1      -2.173  -7.645   3.025  0.00  0.00    -0.235 NA
ATOM     11  N   UNL     1      -0.278  -6.186  -0.317  0.00  0.00    -0.295 N 
ATOM     12  H   UNL     1       0.205  -5.346  -0.287  0.00  0.00    +0.154 HD
ENDROOT
BRANCH  11  13
ATOM     13  C   UNL     1      -0.332  -6.921  -1.508  0.00  0.00    +0.097 A 
ATOM     14  C   UNL     1       0.154  -8.223  -1.545  0.00  0.00    +0.066 A 
ATOM     15  C   UNL     1       0.101  -8.948  -2.721  0.00  0.00    +0.025 A 
ATOM     16  C   UNL     1      -0.436  -8.383  -3.863  0.00  0.00    +0.051 A 
ATOM     17  C   UNL     1      -0.924  -7.085  -3.835  0.00  0.00    +0.168 A 
ATOM     18  C   UNL     1      -0.877  -6.352  -2.654  0.00  0.00    +0.189 A 
ATOM     19  O   UNL     1      -1.419  -5.119  -2.882  0.00  0.00    -0.451 OA
ATOM     20  C   UNL     1      -1.429  -4.964  -4.314  0.00  0.00    +0.466 C 
ATOM     21  O   UNL     1      -1.492  -6.312  -4.806  0.00  0.00    -0.453 OA
ATOM     22 CL   UNL     1       0.830  -8.937  -0.114  0.00  0.00    -0.081 Cl
ENDBRANCH  11  13
BRANCH   1  23
ATOM     23  O   UNL     1       0.241  -4.071   0.988  0.00  0.00    -0.488 OA
BRANCH  23  28
ATOM     24  C   UNL     1       3.807   0.242   0.661  0.00  0.00    -0.096 C 
ATOM     25  N   UNL     1       3.076  -1.028   0.560  0.00  0.00    +0.378 N 
ATOM     26  C   UNL     1       1.749  -0.782  -0.018  0.00  0.00    -0.076 C 
ATOM     27  C   UNL     1       1.014  -2.112  -0.201  0.00  0.00    +0.026 C 
ATOM     28  C   UNL     1       0.860  -2.795   1.161  0.00  0.00    +0.170 C 
ATOM     29  C   UNL     1       2.245  -2.979   1.788  0.00  0.00    +0.026 C 
ATOM     30  C   UNL     1       2.935  -1.617   1.897  0.00  0.00    -0.076 C 
ATOM     31  H   UNL     1       3.587  -1.663  -0.035  0.00  0.00    -0.082 HD
ENDBRANCH  23  28
ENDBRANCH   1  23
BRANCH   3  32
ATOM     32  O   UNL     1      -1.230  -3.681   5.489  0.00  0.00    -0.489 OA
BRANCH  32  33
ATOM     33  C   UNL     1      -1.914  -4.279   6.592  0.00  0.00    +0.262 C 
BRANCH  33  34
ATOM     34  C   UNL     1      -1.903  -3.318   7.782  0.00  0.00    +0.254 C 
ATOM     35  F   UNL     1      -2.643  -2.174   7.464  0.00  0.00    -0.246 F 
ENDBRANCH  33  34
ENDBRANCH  32  33
ENDBRANCH   3  32
TORSDOF 6
