REMARK  Name = CHEMBL453386
REMARK  3 active torsions:
REMARK  status: ('A' for Active; 'I' for Inactive)
REMARK    1  A    between atoms: C_1  and  C_2
REMARK    2  A    between atoms: C_19  and  O_25
REMARK    3  A    between atoms: C_21  and  O_24
REMARK                            x       y       z     vdW  Elec       q    Type
REMARK                         _______ _______ _______ _____ _____    ______ ____
ROOT
ATOM      1  C   UNL     1      -0.019   1.526   0.010  0.00  0.00    +0.052 C 
ATOM      2  C   UNL     1       0.002  -0.004   0.002  0.00  0.00    +0.176 C 
ATOM      3  C   UNL     1      -1.437  -0.529  -0.001  0.00  0.00    +0.079 C 
ATOM      4  C   UNL     1      -1.926  -0.637  -1.442  0.00  0.00    +0.155 C 
ATOM      5  C   UNL     1      -3.410  -0.899  -1.705  0.00  0.00    +0.170 C 
ATOM      6  O   UNL     1      -2.806   0.371  -1.948  0.00  0.00    -0.364 OA
ATOM      7  C   UNL     1      -4.351  -1.005  -0.532  0.00  0.00    +0.007 C 
ATOM      8  C   UNL     1      -4.080  -1.817   0.494  0.00  0.00    -0.002 C 
ATOM      9  C   UNL     1      -2.880  -2.643   0.505  0.00  0.00    +0.003 C 
ATOM     10  C   UNL     1      -2.345  -3.059   1.681  0.00  0.00    +0.046 C 
ATOM     11  C   UNL     1      -1.191  -3.861   1.667  0.00  0.00    +0.160 C 
ATOM     12  O   UNL     1      -0.800  -4.334   0.619  0.00  0.00    -0.292 OA
ATOM     13  C   UNL     1      -0.433  -4.141   2.940  0.00  0.00    +0.116 C 
ATOM     14  C   UNL     1       1.028  -3.839   2.688  0.00  0.00    -0.001 A 
ATOM     15  C   UNL     1       1.386  -2.636   2.068  0.00  0.00    +0.105 A 
ATOM     16  C   UNL     1       2.738  -2.358   1.820  0.00  0.00    +0.135 A 
ATOM     17  C   UNL     1       3.709  -3.274   2.195  0.00  0.00    +0.093 A 
ATOM     18  C   UNL     1       3.341  -4.458   2.816  0.00  0.00    +0.139 A 
ATOM     19  C   UNL     1       2.000  -4.735   3.063  0.00  0.00    +0.087 A 
ATOM     20 CL   UNL     1       1.554  -6.217   3.849  0.00  0.00    -0.079 Cl
ATOM     21  C   UNL     1       0.356  -1.664   1.669  0.00  0.00    +0.343 C 
ATOM     22  O   UNL     1      -0.819  -1.940   1.807  0.00  0.00    -0.245 OA
ATOM     23  O   UNL     1       0.705  -0.471   1.153  0.00  0.00    -0.458 OA
ENDROOT
BRANCH  18  24
ATOM     24  O   UNL     1       4.293  -5.351   3.185  0.00  0.00    -0.505 OA
ATOM     25  H   UNL     1       4.633  -5.217   4.080  0.00  0.00    +0.292 HD
ENDBRANCH  18  24
BRANCH  16  26
ATOM     26  O   UNL     1       3.095  -1.197   1.216  0.00  0.00    -0.506 OA
ATOM     27  H   UNL     1       3.263  -0.469   1.830  0.00  0.00    +0.292 HD
ENDBRANCH  16  26
TORSDOF 2
