REMARK  Name = CHEMBL475570
REMARK  4 active torsions:
REMARK  status: ('A' for Active; 'I' for Inactive)
REMARK    1  A    between atoms: C_1  and  C_2
REMARK    2  A    between atoms: C_5  and  C_20
REMARK    3  A    between atoms: C_6  and  N_8
REMARK    4  A    between atoms: C_13  and  C_15
REMARK                            x       y       z     vdW  Elec       q    Type
REMARK                         _______ _______ _______ _____ _____    ______ ____
ROOT
ATOM      1  N   UNL     1       0.050  -2.797   2.392  0.00  0.00    -0.283 N 
ATOM      2  C   UNL     1       0.151  -2.116   3.594  0.00  0.00    +0.220 A 
ATOM      3  N   UNL     1       0.127  -0.790   3.588  0.00  0.00    -0.223 NA
ATOM      4  C   UNL     1       0.220  -0.102   4.715  0.00  0.00    +0.116 A 
ATOM      5  C   UNL     1       0.345  -0.780   5.915  0.00  0.00    +0.050 A 
ATOM      6  C   UNL     1       0.368  -2.179   5.889  0.00  0.00    +0.101 A 
ATOM      7  N   UNL     1       0.265  -2.805   4.717  0.00  0.00    -0.212 NA
ATOM      8  H   UNL     1      -0.023  -3.764   2.387  0.00  0.00    +0.155 HD
ENDROOT
BRANCH   1  14
ATOM      9  C   UNL     1       1.299   1.217  -0.157  0.00  0.00    +0.044 C 
ATOM     10  C   UNL     1       0.653  -0.142  -0.079  0.00  0.00    -0.049 A 
ATOM     11  C   UNL     1       0.062  -0.692  -1.202  0.00  0.00    +0.004 A 
ATOM     12  C   UNL     1      -0.532  -1.939  -1.135  0.00  0.00    +0.005 A 
ATOM     13  C   UNL     1      -0.538  -2.639   0.055  0.00  0.00    -0.029 A 
ATOM     14  C   UNL     1       0.054  -2.091   1.185  0.00  0.00    +0.037 A 
ATOM     15  C   UNL     1       0.656  -0.840   1.113  0.00  0.00    +0.027 A 
ATOM     16  C   UNL     1      -1.186  -3.998   0.128  0.00  0.00    +0.045 C 
ENDBRANCH   1  14
BRANCH   6  17
ATOM     17  C   UNL     1       0.501  -2.950   7.143  0.00  0.00    +0.127 A 
ATOM     18  N   UNL     1       0.605  -2.516   8.392  0.00  0.00    -0.246 NA
ATOM     19  C   UNL     1       0.716  -3.349   9.396  0.00  0.00    +0.119 A 
ATOM     20  C   UNL     1       0.726  -4.691   9.166  0.00  0.00    +0.067 A 
ATOM     21  S   UNL     1       0.556  -4.721   7.386  0.00  0.00    -0.074 S 
ENDBRANCH   6  17
TORSDOF 2
