REMARK  Name = CHEMBL1076433
REMARK  9 active torsions:
REMARK  status: ('A' for Active; 'I' for Inactive)
REMARK    1  A    between atoms: C_1  and  C_2
REMARK    2  A    between atoms: C_2  and  N_3
REMARK    3  A    between atoms: N_6  and  C_9
REMARK    4  A    between atoms: C_9  and  C_10
REMARK    5  A    between atoms: C_13  and  C_17
REMARK    6  A    between atoms: N_19  and  C_20
REMARK    7  A    between atoms: C_23  and  C_43
REMARK    8  A    between atoms: C_24  and  N_26
REMARK    9  A    between atoms: C_38  and  N_42
REMARK                            x       y       z     vdW  Elec       q    Type
REMARK                         _______ _______ _______ _____ _____    ______ ____
ROOT
ATOM      1  C   UNL     1       1.179 -11.365  -8.134  0.00  0.00    +0.035 A 
ATOM      2  C   UNL     1       1.171 -10.382  -9.117  0.00  0.00    +0.024 A 
ATOM      3  C   UNL     1       0.015 -10.123  -9.828  0.00  0.00    +0.007 A 
ATOM      4  C   UNL     1      -1.137 -10.839  -9.565  0.00  0.00    -0.029 A 
ATOM      5  C   UNL     1      -1.136 -11.822  -8.583  0.00  0.00    +0.038 A 
ATOM      6  C   UNL     1       0.025 -12.090  -7.871  0.00  0.00    +0.047 A 
ATOM      7  C   UNL     1      -2.395 -10.553 -10.343  0.00  0.00    +0.045 C 
ENDROOT
BRANCH   5   8
ATOM      8  N   UNL     1      -2.302 -12.546  -8.317  0.00  0.00    -0.286 N 
ATOM      9  C   UNL     1      -3.426 -11.896  -7.851  0.00  0.00    +0.184 A 
ATOM     10  N   UNL     1      -3.482 -10.629  -7.525  0.00  0.00    -0.327 N 
ATOM     11  C   UNL     1      -4.738 -10.318  -7.107  0.00  0.00    +0.066 A 
ATOM     12  C   UNL     1      -5.334  -9.138  -6.655  0.00  0.00    +0.028 A 
ATOM     13  C   UNL     1      -6.662  -9.138  -6.293  0.00  0.00    +0.002 A 
ATOM     14  C   UNL     1      -7.414 -10.300  -6.374  0.00  0.00    +0.002 A 
ATOM     15  C   UNL     1      -6.841 -11.474  -6.819  0.00  0.00    +0.028 A 
ATOM     16  C   UNL     1      -5.505 -11.492  -7.188  0.00  0.00    +0.074 A 
ATOM     17  N   UNL     1      -4.653 -12.477  -7.666  0.00  0.00    -0.266 N 
ATOM     18  C   UNL     1      -4.982 -13.809  -7.911  0.00  0.00    +0.145 A 
ATOM     19  C   UNL     1      -4.176 -14.835  -7.431  0.00  0.00    +0.090 A 
ATOM     20  C   UNL     1      -4.548 -16.149  -7.702  0.00  0.00    +0.121 A 
ATOM     21  N   UNL     1      -5.655 -16.374  -8.407  0.00  0.00    -0.221 NA
ATOM     22  C   UNL     1      -6.393 -15.374  -8.844  0.00  0.00    +0.225 A 
ATOM     23  N   UNL     1      -6.076 -14.118  -8.603  0.00  0.00    -0.218 NA
ATOM     24  H   UNL     1      -2.321 -13.505  -8.460  0.00  0.00    +0.155 HD
ATOM     25  H   UNL     1      -2.740 -10.007  -7.573  0.00  0.00    +0.169 HD
BRANCH  20  26
ATOM     26  N   UNL     1      -3.777 -17.207  -7.246  0.00  0.00    -0.343 N 
ATOM     27  H   UNL     1      -2.972 -17.034  -6.734  0.00  0.00    +0.144 HD
ATOM     28  H   UNL     1      -4.043 -18.119  -7.440  0.00  0.00    +0.144 HD
ENDBRANCH  20  26
ENDBRANCH   5   8
BRANCH   1  31
ATOM     29  C   UNL     1       3.168 -10.614  -7.069  0.00  0.00    +0.248 C 
ATOM     30  O   UNL     1       2.944  -9.487  -7.467  0.00  0.00    -0.270 OA
ATOM     31  N   UNL     1       2.349 -11.627  -7.415  0.00  0.00    -0.281 N 
ATOM     32  H   UNL     1       2.571 -12.537  -7.165  0.00  0.00    +0.155 HD
BRANCH  29  36
ATOM     33  C   UNL     1       6.536 -11.357  -4.588  0.00  0.00    -0.015 A 
ATOM     34  C   UNL     1       6.283 -10.074  -5.040  0.00  0.00    +0.007 A 
ATOM     35  C   UNL     1       5.191  -9.826  -5.846  0.00  0.00    +0.013 A 
ATOM     36  C   UNL     1       4.340 -10.873  -6.206  0.00  0.00    +0.038 A 
ATOM     37  C   UNL     1       4.601 -12.165  -5.747  0.00  0.00    +0.033 A 
ATOM     38  C   UNL     1       5.700 -12.401  -4.945  0.00  0.00    +0.046 A 
ATOM     39 CL   UNL     1       6.030 -14.008  -4.378  0.00  0.00    -0.083 Cl
BRANCH  33  40
ATOM     40  C   UNL     1       7.731 -11.620  -3.708  0.00  0.00    +0.120 C 
BRANCH  40  44
ATOM     41  N   UNL     1      11.511 -12.270  -5.485  0.00  0.00    +0.381 N 
ATOM     42  C   UNL     1      11.007 -13.279  -4.545  0.00  0.00    -0.063 C 
ATOM     43  C   UNL     1       9.917 -12.660  -3.667  0.00  0.00    +0.066 C 
ATOM     44  N   UNL     1       8.824 -12.171  -4.519  0.00  0.00    -0.302 NA
ATOM     45  C   UNL     1       9.318 -11.178  -5.483  0.00  0.00    +0.066 C 
ATOM     46  C   UNL     1      10.413 -11.809  -6.346  0.00  0.00    -0.063 C 
ATOM     47  H   UNL     1      11.884 -11.487  -4.969  0.00  0.00    -0.082 HD
BRANCH  41  49
ATOM     48  C   UNL     1      13.764 -13.226  -5.434  0.00  0.00    -0.017 C 
ATOM     49  C   UNL     1      12.569 -12.860  -6.315  0.00  0.00    -0.082 C 
ENDBRANCH  41  49
ENDBRANCH  40  44
ENDBRANCH  33  40
ENDBRANCH  29  36
ENDBRANCH   1  31
TORSDOF 7
