REMARK  Name = CHEMBL230897
REMARK  8 active torsions:
REMARK  status: ('A' for Active; 'I' for Inactive)
REMARK    1  A    between atoms: C_1  and  C_2
REMARK    2  A    between atoms: C_4  and  C_27
REMARK    3  A    between atoms: N_12  and  C_13
REMARK    4  A    between atoms: C_16  and  O_19
REMARK    5  A    between atoms: O_19  and  C_20
REMARK    6  A    between atoms: C_20  and  C_21
REMARK    7  A    between atoms: C_21  and  N_22
REMARK    8  A    between atoms: C_32  and  C_33
REMARK                            x       y       z     vdW  Elec       q    Type
REMARK                         _______ _______ _______ _____ _____    ______ ____
ROOT
ATOM      1  C   UNL     1      -0.079   1.314  -0.051  0.00  0.00    +0.046 C 
ATOM      2  C   UNL     1      -0.972   0.112   0.119  0.00  0.00    -0.022 A 
ATOM      3  C   UNL     1      -1.643  -0.393  -0.950  0.00  0.00    +0.014 A 
ATOM      4  C   UNL     1      -2.480  -1.512  -0.812  0.00  0.00    -0.015 A 
ATOM      5  C   UNL     1      -2.639  -2.125   0.418  0.00  0.00    +0.040 A 
ATOM      6  C   UNL     1      -1.955  -1.621   1.532  0.00  0.00    +0.112 A 
ATOM      7  C   UNL     1      -1.106  -0.492   1.379  0.00  0.00    +0.097 A 
ATOM      8  N   UNL     1      -0.457  -0.027   2.453  0.00  0.00    -0.211 NA
ATOM      9  C   UNL     1      -0.621  -0.634   3.615  0.00  0.00    +0.240 A 
ATOM     10  N   UNL     1      -1.417  -1.698   3.740  0.00  0.00    -0.112 NA
ATOM     11  N   UNL     1      -2.076  -2.180   2.742  0.00  0.00    -0.144 NA
ATOM     12  N   UNL     1       0.049  -0.157   4.728  0.00  0.00    -0.282 N 
ATOM     13  H   UNL     1       0.567   0.662   4.668  0.00  0.00    +0.155 HD
ENDROOT
BRANCH   4  14
ATOM     14  C   UNL     1      -3.201  -2.041  -1.995  0.00  0.00    -0.009 A 
ATOM     15  C   UNL     1      -3.939  -1.192  -2.824  0.00  0.00    +0.068 A 
ATOM     16  C   UNL     1      -4.596  -1.728  -3.917  0.00  0.00    +0.214 A 
ATOM     17  N   UNL     1      -4.531  -3.021  -4.179  0.00  0.00    -0.227 NA
ATOM     18  C   UNL     1      -3.844  -3.854  -3.421  0.00  0.00    +0.117 A 
ATOM     19  C   UNL     1      -3.155  -3.402  -2.315  0.00  0.00    -0.024 A 
ATOM     20  C   UNL     1      -2.368  -4.361  -1.460  0.00  0.00    +0.046 C 
ATOM     21  F   UNL     1      -5.313  -0.918  -4.726  0.00  0.00    -0.184 F 
ENDBRANCH   4  14
BRANCH  12  22
ATOM     22  C   UNL     1      -0.020  -0.855   5.939  0.00  0.00    +0.034 A 
ATOM     23  C   UNL     1       0.010  -2.243   5.944  0.00  0.00    +0.027 A 
ATOM     24  C   UNL     1      -0.058  -2.931   7.140  0.00  0.00    +0.047 A 
ATOM     25  C   UNL     1      -0.158  -2.235   8.336  0.00  0.00    +0.121 A 
ATOM     26  C   UNL     1      -0.189  -0.848   8.332  0.00  0.00    +0.047 A 
ATOM     27  C   UNL     1      -0.114  -0.159   7.138  0.00  0.00    +0.027 A 
BRANCH  25  28
ATOM     28  O   UNL     1      -0.226  -2.913   9.513  0.00  0.00    -0.494 OA
BRANCH  28  29
ATOM     29  C   UNL     1      -0.328  -2.133  10.706  0.00  0.00    +0.210 C 
BRANCH  29  30
ATOM     30  C   UNL     1      -0.393  -3.063  11.919  0.00  0.00    -0.037 C 
BRANCH  30  31
ATOM     31  N   UNL     1       0.873  -3.798  12.041  0.00  0.00    +0.382 N 
ATOM     32  C   UNL     1       1.035  -4.706  10.886  0.00  0.00    -0.079 C 
ATOM     33  C   UNL     1       1.724  -5.966  11.467  0.00  0.00    -0.020 C 
ATOM     34  C   UNL     1       1.048  -6.079  12.859  0.00  0.00    -0.020 C 
ATOM     35  C   UNL     1       0.861  -4.605  13.275  0.00  0.00    -0.079 C 
ATOM     36  H   UNL     1       1.643  -3.146  12.069  0.00  0.00    -0.082 HD
ENDBRANCH  30  31
ENDBRANCH  29  30
ENDBRANCH  28  29
ENDBRANCH  25  28
ENDBRANCH  12  22
TORSDOF 6
