REMARK  Name = CHEMBL190188
REMARK  9 active torsions:
REMARK  status: ('A' for Active; 'I' for Inactive)
REMARK    1  A    between atoms: C_1  and  C_2
REMARK    2  A    between atoms: C_2  and  N_3
REMARK    3  A    between atoms: C_8  and  C_28
REMARK    4  A    between atoms: C_13  and  N_17
REMARK    5  A    between atoms: N_17  and  C_18
REMARK    6  A    between atoms: C_18  and  C_19
REMARK    7  A    between atoms: C_19  and  C_20
REMARK    8  A    between atoms: C_20  and  N_21
REMARK    9  A    between atoms: N_24  and  C_27
REMARK                            x       y       z     vdW  Elec       q    Type
REMARK                         _______ _______ _______ _____ _____    ______ ____
ROOT
ATOM      1  N   UNL     1       0.688  -0.476  -1.203  0.00  0.00    -0.299 N 
ATOM      2  C   UNL     1       0.827  -1.799  -1.425  0.00  0.00    +0.305 C 
ATOM      3  O   UNL     1       0.383  -2.599  -0.625  0.00  0.00    -0.252 OA
ATOM      4  N   UNL     1       1.458  -2.233  -2.534  0.00  0.00    -0.254 N 
ATOM      5  C   UNL     1       1.601  -3.595  -2.762  0.00  0.00    +0.135 A 
ATOM      6  C   UNL     1       2.269  -4.034  -3.926  0.00  0.00    +0.026 A 
ATOM      7  C   UNL     1       2.416  -5.391  -4.160  0.00  0.00    +0.023 A 
ATOM      8  C   UNL     1       1.885  -6.285  -3.213  0.00  0.00    +0.019 A 
ATOM      9  C   UNL     1       1.989  -7.675  -3.371  0.00  0.00    +0.123 A 
ATOM     10  N   UNL     1       1.482  -8.481  -2.468  0.00  0.00    -0.240 NA
ATOM     11  C   UNL     1       0.857  -8.035  -1.381  0.00  0.00    +0.121 A 
ATOM     12  C   UNL     1       0.705  -6.684  -1.138  0.00  0.00    +0.071 A 
ATOM     13  C   UNL     1       1.225  -5.769  -2.067  0.00  0.00    +0.078 A 
ATOM     14  N   UNL     1       1.115  -4.450  -1.887  0.00  0.00    -0.231 NA
ATOM     15  H   UNL     1       1.042   0.162  -1.842  0.00  0.00    +0.150 HD
ATOM     16  H   UNL     1       1.812  -1.595  -3.172  0.00  0.00    +0.158 HD
ENDROOT
BRANCH   6  17
ATOM     17  C   UNL     1       2.811  -3.048  -4.892  0.00  0.00    +0.022 A 
ATOM     18  C   UNL     1       4.116  -2.576  -4.754  0.00  0.00    +0.050 A 
ATOM     19  C   UNL     1       4.614  -1.658  -5.657  0.00  0.00    +0.021 A 
ATOM     20  C   UNL     1       3.822  -1.206  -6.697  0.00  0.00    +0.003 A 
ATOM     21  C   UNL     1       2.527  -1.671  -6.840  0.00  0.00    +0.021 A 
ATOM     22  C   UNL     1       2.018  -2.593  -5.946  0.00  0.00    +0.050 A 
ATOM     23 CL   UNL     1       0.395  -3.180  -6.131  0.00  0.00    -0.083 Cl
ATOM     24 CL   UNL     1       5.112  -3.141  -3.449  0.00  0.00    -0.083 Cl
ENDBRANCH   6  17
BRANCH   1  26
ATOM     25  C   UNL     1      -0.019   1.526   0.010  0.00  0.00    +0.024 C 
ATOM     26  C   UNL     1       0.002  -0.004   0.002  0.00  0.00    +0.102 C 
ENDBRANCH   1  26
BRANCH  11  27
ATOM     27  N   UNL     1       0.345  -8.950  -0.468  0.00  0.00    -0.329 N 
ATOM     28  H   UNL     1       0.445  -9.902  -0.627  0.00  0.00    +0.147 HD
BRANCH  27  29
ATOM     29  C   UNL     1      -0.346  -8.477   0.734  0.00  0.00    +0.104 C 
BRANCH  29  30
ATOM     30  C   UNL     1      -0.807  -9.678   1.562  0.00  0.00    +0.034 C 
BRANCH  30  31
ATOM     31  C   UNL     1      -1.529  -9.185   2.818  0.00  0.00    +0.086 C 
BRANCH  31  32
ATOM     32  N   UNL     1      -1.972 -10.338   3.614  0.00  0.00    -0.306 NA
ATOM     33  C   UNL     1      -3.004 -11.104   2.901  0.00  0.00    +0.066 C 
ATOM     34  C   UNL     1      -3.394 -12.326   3.735  0.00  0.00    -0.064 C 
ATOM     35  N   UNL     1      -3.901 -11.886   5.042  0.00  0.00    +0.379 N 
ATOM     36  C   UNL     1      -2.850 -11.144   5.751  0.00  0.00    -0.064 C 
ATOM     37  C   UNL     1      -2.455  -9.912   4.934  0.00  0.00    +0.066 C 
ATOM     38  C   UNL     1      -4.292 -13.059   5.835  0.00  0.00    -0.096 C 
ATOM     39  H   UNL     1      -4.702 -11.289   4.908  0.00  0.00    -0.082 HD
ENDBRANCH  31  32
ENDBRANCH  30  31
ENDBRANCH  29  30
ENDBRANCH  27  29
ENDBRANCH  11  27
TORSDOF 7
