REMARK  Name = CHEMBL307769
REMARK  8 active torsions:
REMARK  status: ('A' for Active; 'I' for Inactive)
REMARK    1  A    between atoms: C_1  and  O_2
REMARK    2  A    between atoms: O_2  and  C_3
REMARK    3  A    between atoms: C_5  and  N_11
REMARK    4  A    between atoms: N_11  and  C_12
REMARK    5  A    between atoms: C_16  and  C_24
REMARK    6  A    between atoms: C_21  and  C_22
REMARK    7  A    between atoms: C_25  and  C_26
REMARK    8  A    between atoms: C_29  and  C_32
REMARK                            x       y       z     vdW  Elec       q    Type
REMARK                         _______ _______ _______ _____ _____    ______ ____
ROOT
ATOM      1  C   UNL     1       2.071   1.788   4.132  0.00  0.00    +0.060 A 
ATOM      2  C   UNL     1       2.814   2.613   5.008  0.00  0.00    +0.023 A 
ATOM      3  C   UNL     1       3.811   2.073   5.836  0.00  0.00    +0.013 A 
ATOM      4  C   UNL     1       4.514   2.883   6.671  0.00  0.00    +0.017 A 
ATOM      5  C   UNL     1       4.253   4.264   6.716  0.00  0.00    +0.027 A 
ATOM      6  C   UNL     1       3.273   4.823   5.907  0.00  0.00    +0.045 A 
ATOM      7  C   UNL     1       2.539   4.002   5.041  0.00  0.00    +0.074 A 
ATOM      8  N   UNL     1       1.588   4.522   4.250  0.00  0.00    -0.254 NA
ATOM      9  C   UNL     1       0.886   3.782   3.431  0.00  0.00    +0.132 A 
ATOM     10  C   UNL     1       1.095   2.397   3.329  0.00  0.00    +0.091 A 
ENDROOT
BRANCH   1  11
ATOM     11  N   UNL     1       2.303   0.429   4.065  0.00  0.00    -0.312 N 
ATOM     12  H   UNL     1       2.715  -0.030   4.814  0.00  0.00    +0.152 HD
BRANCH  11  15
ATOM     13  C   UNL     1       0.570  -1.934   1.839  0.00  0.00    +0.140 A 
ATOM     14  C   UNL     1       0.925  -1.227   2.978  0.00  0.00    +0.071 A 
ATOM     15  C   UNL     1       1.943  -0.286   2.919  0.00  0.00    +0.053 A 
ATOM     16  C   UNL     1       2.605  -0.055   1.718  0.00  0.00    +0.064 A 
ATOM     17  C   UNL     1       2.248  -0.761   0.585  0.00  0.00    +0.045 A 
ATOM     18  C   UNL     1       1.238  -1.703   0.644  0.00  0.00    +0.084 A 
ATOM     19 CL   UNL     1       0.798  -2.594  -0.780  0.00  0.00    -0.080 Cl
ATOM     20 CL   UNL     1       3.879   1.122   1.642  0.00  0.00    -0.082 Cl
BRANCH  13  22
ATOM     21  C   UNL     1      -1.147  -2.960   3.124  0.00  0.00    +0.277 C 
ATOM     22  O   UNL     1      -0.426  -2.857   1.894  0.00  0.00    -0.494 OA
ENDBRANCH  13  22
ENDBRANCH  11  15
ENDBRANCH   1  11
BRANCH  10  23
ATOM     23  C   UNL     1       0.315   1.613   2.419  0.00  0.00    +0.103 C 
ATOM     24  N   UNL     1      -0.304   0.991   1.697  0.00  0.00    -0.191 NA
ENDBRANCH  10  23
BRANCH   5  25
ATOM     25  C   UNL     1       5.005   5.100   7.603  0.00  0.00    -0.061 C 
ATOM     26  C   UNL     1       5.620   5.786   8.331  0.00  0.00    -0.061 C 
BRANCH  26  27
ATOM     27  C   UNL     1       6.372   6.622   9.218  0.00  0.00    +0.025 A 
ATOM     28  C   UNL     1       7.364   6.066  10.032  0.00  0.00    +0.017 A 
ATOM     29  C   UNL     1       8.085   6.871  10.884  0.00  0.00    +0.010 A 
ATOM     30  C   UNL     1       7.826   8.241  10.937  0.00  0.00    -0.018 A 
ATOM     31  C   UNL     1       6.836   8.798  10.126  0.00  0.00    +0.010 A 
ATOM     32  C   UNL     1       6.117   7.997   9.268  0.00  0.00    +0.017 A 
BRANCH  30  33
ATOM     33  C   UNL     1       8.603   9.107  11.856  0.00  0.00    -0.018 A 
ATOM     34  C   UNL     1       9.596   8.555  12.664  0.00  0.00    +0.008 A 
ATOM     35  C   UNL     1      10.316   9.366  13.518  0.00  0.00    +0.001 A 
ATOM     36  C   UNL     1      10.053  10.723  13.573  0.00  0.00    +0.000 A 
ATOM     37  C   UNL     1       9.069  11.275  12.774  0.00  0.00    +0.001 A 
ATOM     38  C   UNL     1       8.347  10.476  11.912  0.00  0.00    +0.008 A 
ENDBRANCH  30  33
ENDBRANCH  26  27
ENDBRANCH   5  25
TORSDOF 7
