REMARK  Name = CHEMBL44577
REMARK  7 active torsions:
REMARK  status: ('A' for Active; 'I' for Inactive)
REMARK    1  A    between atoms: C_1  and  N_2
REMARK    2  A    between atoms: N_5  and  C_8
REMARK    3  A    between atoms: C_11  and  N_14
REMARK    4  A    between atoms: C_17  and  C_19
REMARK    5  A    between atoms: C_22  and  O_25
REMARK    6  A    between atoms: O_25  and  C_26
REMARK    7  A    between atoms: C_32  and  N_36
REMARK                            x       y       z     vdW  Elec       q    Type
REMARK                         _______ _______ _______ _____ _____    ______ ____
ROOT
ATOM      1  N   UNL     1      -2.265  -8.543   1.732  0.00  0.00    -0.243 N 
ATOM      2  C   UNL     1      -2.217  -9.240   2.903  0.00  0.00    +0.164 A 
ATOM      3  C   UNL     1      -1.817 -10.551   2.583  0.00  0.00    +0.086 A 
ATOM      4  C   UNL     1      -1.630 -10.584   1.133  0.00  0.00    +0.105 A 
ATOM      5  N   UNL     1      -1.909  -9.387   0.674  0.00  0.00    -0.168 NA
ATOM      6  C   UNL     1      -1.688 -11.486   3.623  0.00  0.00    +0.131 A 
ATOM      7  N   UNL     1      -1.950 -11.089   4.864  0.00  0.00    -0.220 NA
ATOM      8  C   UNL     1      -2.322  -9.848   5.120  0.00  0.00    +0.225 A 
ATOM      9  N   UNL     1      -2.456  -8.939   4.179  0.00  0.00    -0.216 NA
ENDROOT
BRANCH   1  13
ATOM     10  C   UNL     1      -3.095  -4.759  -0.053  0.00  0.00    -0.068 C 
ATOM     11  C   UNL     1      -4.257  -5.538   0.565  0.00  0.00    -0.013 C 
ATOM     12  C   UNL     1      -3.868  -7.011   0.701  0.00  0.00    +0.025 C 
ATOM     13  C   UNL     1      -2.637  -7.133   1.602  0.00  0.00    +0.109 C 
ATOM     14  C   UNL     1      -1.474  -6.353   0.983  0.00  0.00    +0.025 C 
ATOM     15  C   UNL     1      -1.863  -4.880   0.847  0.00  0.00    -0.013 C 
BRANCH  10  20
ATOM     16  C   UNL     1      -4.297   0.418  -1.924  0.00  0.00    +0.104 C 
ATOM     17  N   UNL     1      -3.931  -0.992  -1.738  0.00  0.00    -0.309 NA
ATOM     18  C   UNL     1      -5.051  -1.756  -1.171  0.00  0.00    +0.065 C 
ATOM     19  C   UNL     1      -4.650  -3.228  -1.049  0.00  0.00    -0.063 C 
ATOM     20  N   UNL     1      -3.468  -3.344  -0.185  0.00  0.00    +0.383 N 
ATOM     21  C   UNL     1      -2.351  -2.596  -0.777  0.00  0.00    -0.063 C 
ATOM     22  C   UNL     1      -2.733  -1.119  -0.896  0.00  0.00    +0.065 C 
ATOM     23  H   UNL     1      -3.680  -2.967   0.727  0.00  0.00    -0.081 HD
ENDBRANCH  10  20
ENDBRANCH   1  13
BRANCH   4  24
ATOM     24  C   UNL     1      -1.209 -11.756   0.328  0.00  0.00    +0.003 A 
ATOM     25  C   UNL     1      -0.251 -11.607  -0.674  0.00  0.00    +0.014 A 
ATOM     26  C   UNL     1       0.139 -12.699  -1.420  0.00  0.00    +0.047 A 
ATOM     27  C   UNL     1      -0.421 -13.946  -1.175  0.00  0.00    +0.128 A 
ATOM     28  C   UNL     1      -1.376 -14.097  -0.178  0.00  0.00    +0.047 A 
ATOM     29  C   UNL     1      -1.766 -13.010   0.576  0.00  0.00    +0.014 A 
BRANCH  27  30
ATOM     30  O   UNL     1      -0.035 -15.020  -1.912  0.00  0.00    -0.456 OA
BRANCH  30  31
ATOM     31  C   UNL     1      -0.865 -15.448  -2.899  0.00  0.00    +0.128 A 
ATOM     32  C   UNL     1      -1.997 -14.713  -3.223  0.00  0.00    +0.046 A 
ATOM     33  C   UNL     1      -2.839 -15.150  -4.226  0.00  0.00    +0.004 A 
ATOM     34  C   UNL     1      -2.555 -16.319  -4.908  0.00  0.00    +0.000 A 
ATOM     35  C   UNL     1      -1.429 -17.053  -4.587  0.00  0.00    +0.004 A 
ATOM     36  C   UNL     1      -0.580 -16.617  -3.588  0.00  0.00    +0.046 A 
ENDBRANCH  30  31
ENDBRANCH  27  30
ENDBRANCH   4  24
BRANCH   6  37
ATOM     37  N   UNL     1      -1.299 -12.786   3.362  0.00  0.00    -0.342 N 
ATOM     38  H   UNL     1      -0.950 -13.021   2.488  0.00  0.00    +0.144 HD
ATOM     39  H   UNL     1      -1.376 -13.463   4.052  0.00  0.00    +0.144 HD
ENDBRANCH   6  37
TORSDOF 6
