REMARK  Name = CHEMBL1087215
REMARK  13 active torsions:
REMARK  status: ('A' for Active; 'I' for Inactive)
REMARK    1  A    between atoms: C_1  and  N_2
REMARK    2  A    between atoms: N_2  and  C_3
REMARK    3  A    between atoms: N_2  and  C_4
REMARK    4  A    between atoms: C_4  and  C_5
REMARK    5  A    between atoms: C_8  and  C_11
REMARK    6  A    between atoms: C_12  and  C_13
REMARK    7  A    between atoms: C_18  and  O_19
REMARK    8  A    between atoms: O_19  and  C_20
REMARK    9  A    between atoms: C_21  and  N_27
REMARK   10  A    between atoms: C_22  and  C_25
REMARK   11  A    between atoms: N_27  and  C_28
REMARK   12  A    between atoms: C_30  and  O_36
REMARK   13  A    between atoms: O_36  and  C_37
REMARK                            x       y       z     vdW  Elec       q    Type
REMARK                         _______ _______ _______ _____ _____    ______ ____
ROOT
ATOM      1  C   UNL     1      -6.982   3.907   8.075  0.00  0.00    +0.019 A 
ATOM      2  C   UNL     1      -5.702   3.864   8.610  0.00  0.00    +0.040 A 
ATOM      3  C   UNL     1      -5.401   2.937   9.616  0.00  0.00    +0.074 A 
ATOM      4  C   UNL     1      -6.412   2.055  10.070  0.00  0.00    +0.026 A 
ATOM      5  C   UNL     1      -7.699   2.115   9.517  0.00  0.00    +0.058 A 
ATOM      6  C   UNL     1      -7.981   3.026   8.541  0.00  0.00    +0.128 A 
ATOM      7  C   UNL     1      -6.101   1.120  11.086  0.00  0.00    +0.060 A 
ATOM      8  C   UNL     1      -4.794   1.116  11.595  0.00  0.00    +0.091 A 
ATOM      9  C   UNL     1      -3.854   2.027  11.084  0.00  0.00    +0.132 A 
ATOM     10  N   UNL     1      -4.168   2.881  10.145  0.00  0.00    -0.254 NA
ENDROOT
BRANCH   1  12
ATOM     11  C   UNL     1      -6.353   5.722   6.572  0.00  0.00    +0.028 C 
ATOM     12  C   UNL     1      -7.301   4.881   7.019  0.00  0.00    +0.013 C 
BRANCH  11  16
ATOM     13  C   UNL     1      -7.293   8.488   3.558  0.00  0.00    -0.046 A 
ATOM     14  C   UNL     1      -5.998   8.478   4.060  0.00  0.00    +0.005 A 
ATOM     15  C   UNL     1      -5.682   7.569   5.053  0.00  0.00    +0.028 A 
ATOM     16  C   UNL     1      -6.672   6.697   5.515  0.00  0.00    +0.064 A 
ATOM     17  N   UNL     1      -7.900   6.740   5.006  0.00  0.00    -0.255 NA
ATOM     18  C   UNL     1      -8.226   7.601   4.064  0.00  0.00    +0.113 A 
BRANCH  13  19
ATOM     19  C   UNL     1      -7.680   9.462   2.475  0.00  0.00    -0.042 C 
BRANCH  19  21
ATOM     20  C   UNL     1      -7.068  11.354   3.817  0.00  0.00    -0.096 C 
ATOM     21  N   UNL     1      -8.166  10.707   3.087  0.00  0.00    +0.379 N 
ATOM     22  C   UNL     1      -8.655  11.610   2.037  0.00  0.00    -0.096 C 
ATOM     23  H   UNL     1      -8.918  10.496   3.726  0.00  0.00    -0.082 HD
ENDBRANCH  19  21
ENDBRANCH  13  19
ENDBRANCH  11  16
ENDBRANCH   1  12
BRANCH   6  24
ATOM     24  O   UNL     1      -9.230   3.084   8.012  0.00  0.00    -0.495 OA
ATOM     25  C   UNL     1     -10.196   2.165   8.527  0.00  0.00    +0.277 C 
ENDBRANCH   6  24
BRANCH   8  26
ATOM     26  C   UNL     1      -4.421   0.193  12.624  0.00  0.00    +0.103 C 
ATOM     27  N   UNL     1      -4.125  -0.539  13.441  0.00  0.00    -0.191 NA
ENDBRANCH   8  26
BRANCH   7  28
ATOM     28  N   UNL     1      -7.054   0.241  11.562  0.00  0.00    -0.312 N 
ATOM     29  H   UNL     1      -7.093  -0.665  11.217  0.00  0.00    +0.152 HD
BRANCH  28  30
ATOM     30  C   UNL     1      -7.962   0.656  12.541  0.00  0.00    +0.053 A 
ATOM     31  C   UNL     1      -7.984   1.983  12.950  0.00  0.00    +0.071 A 
ATOM     32  C   UNL     1      -8.885   2.391  13.920  0.00  0.00    +0.140 A 
ATOM     33  C   UNL     1      -9.764   1.474  14.481  0.00  0.00    +0.084 A 
ATOM     34  C   UNL     1      -9.741   0.153  14.072  0.00  0.00    +0.045 A 
ATOM     35  C   UNL     1      -8.847  -0.257  13.101  0.00  0.00    +0.064 A 
ATOM     36 CL   UNL     1      -8.826  -1.915  12.585  0.00  0.00    -0.082 Cl
ATOM     37 CL   UNL     1     -10.893   1.986  15.696  0.00  0.00    -0.080 Cl
BRANCH  32  38
ATOM     38  O   UNL     1      -8.908   3.689  14.324  0.00  0.00    -0.494 OA
ATOM     39  C   UNL     1      -8.061   4.601  13.622  0.00  0.00    +0.277 C 
ENDBRANCH  32  38
ENDBRANCH  28  30
ENDBRANCH   7  28
TORSDOF 9
