REMARK  Name = CHEMBL370693
REMARK  8 active torsions:
REMARK  status: ('A' for Active; 'I' for Inactive)
REMARK    1  A    between atoms: C_1  and  N_2
REMARK    2  A    between atoms: C_8  and  C_10
REMARK    3  A    between atoms: C_13  and  C_16
REMARK    4  A    between atoms: C_21  and  N_27
REMARK    5  A    between atoms: C_22  and  C_25
REMARK    6  A    between atoms: N_27  and  C_28
REMARK    7  A    between atoms: C_30  and  O_36
REMARK    8  A    between atoms: O_36  and  C_37
REMARK                            x       y       z     vdW  Elec       q    Type
REMARK                         _______ _______ _______ _____ _____    ______ ____
ROOT
ATOM      1  C   UNL     1       2.424  -7.874   9.186  0.00  0.00    +0.040 A 
ATOM      2  C   UNL     1       2.734  -6.550   9.227  0.00  0.00    +0.046 A 
ATOM      3  C   UNL     1       4.039  -6.124   8.929  0.00  0.00    +0.081 A 
ATOM      4  C   UNL     1       4.949  -7.152   8.599  0.00  0.00    +0.061 A 
ATOM      5  S   UNL     1       3.974  -8.629   8.724  0.00  0.00    -0.083 S 
ATOM      6  C   UNL     1       6.271  -6.888   8.281  0.00  0.00    +0.066 A 
ATOM      7  C   UNL     1       6.694  -5.542   8.295  0.00  0.00    +0.092 A 
ATOM      8  C   UNL     1       5.751  -4.559   8.629  0.00  0.00    +0.132 A 
ATOM      9  N   UNL     1       4.515  -4.854   8.922  0.00  0.00    -0.253 NA
ENDROOT
BRANCH   1  13
ATOM     10  C   UNL     1      -1.281  -9.700   9.972  0.00  0.00    +0.055 A 
ATOM     11  C   UNL     1      -0.163 -10.520   9.765  0.00  0.00    +0.016 A 
ATOM     12  C   UNL     1       1.053  -9.920   9.508  0.00  0.00    +0.029 A 
ATOM     13  C   UNL     1       1.128  -8.525   9.461  0.00  0.00    +0.078 A 
ATOM     14  N   UNL     1       0.047  -7.778   9.661  0.00  0.00    -0.254 NA
ATOM     15  C   UNL     1      -1.129  -8.313   9.904  0.00  0.00    +0.124 A 
BRANCH  10  23
ATOM     16  C   UNL     1      -3.160 -13.076  14.877  0.00  0.00    +0.105 C 
ATOM     17  N   UNL     1      -2.990 -12.794  13.445  0.00  0.00    -0.302 NA
ATOM     18  C   UNL     1      -4.145 -12.061  12.912  0.00  0.00    +0.103 C 
ATOM     19  C   UNL     1      -4.015 -11.946  11.390  0.00  0.00    +0.123 C 
ATOM     20  N   UNL     1      -2.705 -11.356  11.076  0.00  0.00    -0.295 N 
ATOM     21  C   UNL     1      -1.508 -11.954  11.686  0.00  0.00    +0.123 C 
ATOM     22  C   UNL     1      -1.737 -12.069  13.197  0.00  0.00    +0.103 C 
ATOM     23  C   UNL     1      -2.604 -10.295  10.251  0.00  0.00    +0.248 C 
ATOM     24  O   UNL     1      -3.601  -9.827   9.738  0.00  0.00    -0.270 OA
ENDBRANCH  10  23
ENDBRANCH   1  13
BRANCH   7  25
ATOM     25  C   UNL     1       8.045  -5.190   7.979  0.00  0.00    +0.103 C 
ATOM     26  N   UNL     1       9.117  -4.911   7.727  0.00  0.00    -0.191 NA
ENDBRANCH   7  25
BRANCH   6  27
ATOM     27  N   UNL     1       7.150  -7.911   7.961  0.00  0.00    -0.311 N 
ATOM     28  H   UNL     1       7.583  -8.417   8.666  0.00  0.00    +0.152 HD
BRANCH  27  29
ATOM     29  C   UNL     1       7.410  -8.215   6.621  0.00  0.00    +0.054 A 
ATOM     30  C   UNL     1       6.854  -7.441   5.612  0.00  0.00    +0.071 A 
ATOM     31  C   UNL     1       7.114  -7.744   4.286  0.00  0.00    +0.140 A 
ATOM     32  C   UNL     1       7.932  -8.821   3.968  0.00  0.00    +0.084 A 
ATOM     33  C   UNL     1       8.486  -9.591   4.974  0.00  0.00    +0.045 A 
ATOM     34  C   UNL     1       8.232  -9.289   6.298  0.00  0.00    +0.064 A 
ATOM     35 CL   UNL     1       8.934 -10.254   7.559  0.00  0.00    -0.082 Cl
ATOM     36 CL   UNL     1       8.258  -9.201   2.305  0.00  0.00    -0.080 Cl
BRANCH  31  37
ATOM     37  O   UNL     1       6.570  -6.988   3.296  0.00  0.00    -0.494 OA
ATOM     38  C   UNL     1       5.690  -5.935   3.693  0.00  0.00    +0.277 C 
ENDBRANCH  31  37
ENDBRANCH  27  29
ENDBRANCH   6  27
TORSDOF 6
