REMARK  Name = CHEMBL219964
REMARK  12 active torsions:
REMARK  status: ('A' for Active; 'I' for Inactive)
REMARK    1  A    between atoms: C_1  and  N_2
REMARK    2  A    between atoms: N_2  and  C_3
REMARK    3  A    between atoms: N_2  and  C_4
REMARK    4  A    between atoms: C_4  and  C_5
REMARK    5  A    between atoms: C_7  and  C_10
REMARK    6  A    between atoms: C_15  and  O_16
REMARK    7  A    between atoms: O_16  and  C_17
REMARK    8  A    between atoms: C_18  and  N_24
REMARK    9  A    between atoms: C_19  and  C_22
REMARK   10  A    between atoms: N_24  and  C_25
REMARK   11  A    between atoms: C_27  and  O_33
REMARK   12  A    between atoms: O_33  and  C_34
REMARK                            x       y       z     vdW  Elec       q    Type
REMARK                         _______ _______ _______ _____ _____    ______ ____
ROOT
ATOM      1  C   UNL     1      -2.575  -4.669  -6.782  0.00  0.00    +0.029 A 
ATOM      2  C   UNL     1      -1.744  -3.583  -6.990  0.00  0.00    +0.040 A 
ATOM      3  C   UNL     1      -2.230  -2.456  -7.667  0.00  0.00    +0.074 A 
ATOM      4  C   UNL     1      -3.570  -2.450  -8.127  0.00  0.00    +0.026 A 
ATOM      5  C   UNL     1      -4.394  -3.563  -7.905  0.00  0.00    +0.058 A 
ATOM      6  C   UNL     1      -3.902  -4.654  -7.248  0.00  0.00    +0.129 A 
ATOM      7  C   UNL     1      -4.055  -1.310  -8.809  0.00  0.00    +0.060 A 
ATOM      8  C   UNL     1      -3.175  -0.234  -8.996  0.00  0.00    +0.091 A 
ATOM      9  C   UNL     1      -1.862  -0.326  -8.506  0.00  0.00    +0.132 A 
ATOM     10  N   UNL     1      -1.438  -1.393  -7.878  0.00  0.00    -0.254 NA
ENDROOT
BRANCH   1  13
ATOM     11  C   UNL     1      -0.769  -7.591  -5.445  0.00  0.00    +0.089 A 
ATOM     12  C   UNL     1      -0.816  -6.589  -6.339  0.00  0.00    +0.051 A 
ATOM     13  C   UNL     1      -2.061  -5.862  -6.067  0.00  0.00    +0.024 A 
ATOM     14  C   UNL     1      -2.645  -6.508  -5.023  0.00  0.00    +0.203 A 
ATOM     15  O   UNL     1      -1.863  -7.538  -4.671  0.00  0.00    -0.469 OA
BRANCH  11  16
ATOM     16  C   UNL     1       0.332  -8.614  -5.335  0.00  0.00    -0.004 C 
BRANCH  16  18
ATOM     17  C   UNL     1       0.794  -8.021  -3.057  0.00  0.00    -0.096 C 
ATOM     18  N   UNL     1       1.362  -8.128  -4.407  0.00  0.00    +0.381 N 
ATOM     19  C   UNL     1       2.490  -9.068  -4.391  0.00  0.00    -0.096 C 
ATOM     20  H   UNL     1       1.685  -7.221  -4.709  0.00  0.00    -0.082 HD
ENDBRANCH  16  18
ENDBRANCH  11  16
ENDBRANCH   1  13
BRANCH   6  21
ATOM     21  O   UNL     1      -4.702  -5.732  -7.040  0.00  0.00    -0.494 OA
ATOM     22  C   UNL     1      -6.040  -5.654  -7.538  0.00  0.00    +0.277 C 
ENDBRANCH   6  21
BRANCH   8  23
ATOM     23  C   UNL     1      -3.610   0.947  -9.680  0.00  0.00    +0.103 C 
ATOM     24  N   UNL     1      -3.955   1.883 -10.222  0.00  0.00    -0.191 NA
ENDBRANCH   8  23
BRANCH   7  25
ATOM     25  N   UNL     1      -5.354  -1.258  -9.276  0.00  0.00    -0.312 N 
ATOM     26  H   UNL     1      -6.040  -0.814  -8.754  0.00  0.00    +0.152 HD
BRANCH  25  27
ATOM     27  C   UNL     1      -5.679  -1.845 -10.503  0.00  0.00    +0.053 A 
ATOM     28  C   UNL     1      -4.728  -2.582 -11.195  0.00  0.00    +0.071 A 
ATOM     29  C   UNL     1      -5.053  -3.163 -12.410  0.00  0.00    +0.140 A 
ATOM     30  C   UNL     1      -6.330  -3.008 -12.933  0.00  0.00    +0.084 A 
ATOM     31  C   UNL     1      -7.277  -2.273 -12.243  0.00  0.00    +0.045 A 
ATOM     32  C   UNL     1      -6.958  -1.698 -11.027  0.00  0.00    +0.064 A 
ATOM     33 CL   UNL     1      -8.151  -0.783 -10.160  0.00  0.00    -0.082 Cl
ATOM     34 CL   UNL     1      -6.738  -3.736 -14.455  0.00  0.00    -0.080 Cl
BRANCH  29  35
ATOM     35  O   UNL     1      -4.123  -3.885 -13.090  0.00  0.00    -0.494 OA
ATOM     36  C   UNL     1      -2.870  -4.104 -12.439  0.00  0.00    +0.277 C 
ENDBRANCH  29  35
ENDBRANCH  25  27
ENDBRANCH   7  25
TORSDOF 8
