REMARK  Name = CHEMBL552038
REMARK  2 active torsions:
REMARK  status: ('A' for Active; 'I' for Inactive)
REMARK    1  A    between atoms: C_1  and  C_2
REMARK    2  A    between atoms: N_19  and  C_20
REMARK                            x       y       z     vdW  Elec       q    Type
REMARK                         _______ _______ _______ _____ _____    ______ ____
ROOT
ATOM      1  C   UNL     1      -0.054   1.538  -0.003  0.00  0.00    +0.065 C 
ATOM      2  C   UNL     1      -0.503   0.100  -0.032  0.00  0.00    +0.035 A 
ATOM      3  C   UNL     1      -0.608  -0.680  -1.132  0.00  0.00    +0.068 A 
ATOM      4  C   UNL     1      -1.059  -1.945  -0.722  0.00  0.00    +0.146 A 
ATOM      5  N   UNL     1      -1.217  -1.918   0.581  0.00  0.00    -0.158 NA
ATOM      6  N   UNL     1      -0.867  -0.641   1.036  0.00  0.00    -0.280 N 
ATOM      7  H   UNL     1      -0.885  -0.340   1.958  0.00  0.00    +0.189 HD
ATOM      8  N   UNL     1      -1.299  -3.043  -1.557  0.00  0.00    -0.282 N 
ATOM      9  C   UNL     1      -1.091  -2.934  -2.916  0.00  0.00    +0.137 A 
ATOM     10  C   UNL     1      -1.334  -4.033  -3.779  0.00  0.00    +0.038 A 
ATOM     11  C   UNL     1      -1.790  -5.266  -3.300  0.00  0.00    +0.013 A 
ATOM     12  C   UNL     1      -2.007  -6.289  -4.176  0.00  0.00    +0.001 A 
ATOM     13  C   UNL     1      -1.781  -6.122  -5.539  0.00  0.00    +0.002 A 
ATOM     14  C   UNL     1      -1.336  -4.934  -6.037  0.00  0.00    +0.026 A 
ATOM     15  C   UNL     1      -1.103  -3.861  -5.165  0.00  0.00    +0.052 A 
ATOM     16  N   UNL     1      -0.666  -2.672  -5.605  0.00  0.00    -0.327 N 
ATOM     17  C   UNL     1      -0.457  -1.682  -4.758  0.00  0.00    +0.199 A 
ATOM     18  N   UNL     1      -0.666  -1.799  -3.450  0.00  0.00    -0.200 NA
ATOM     19  N   UNL     1      -0.006  -0.471  -5.253  0.00  0.00    -0.285 N 
ATOM     20  H   UNL     1      -1.610  -3.881  -1.180  0.00  0.00    +0.155 HD
ATOM     21  H   UNL     1       0.244   0.240  -4.641  0.00  0.00    +0.155 HD
ATOM     22  H   UNL     1      -0.503  -2.538  -6.552  0.00  0.00    +0.169 HD
ENDROOT
BRANCH  19  23
ATOM     23  C   UNL     1       0.091  -0.271  -6.633  0.00  0.00    +0.034 A 
ATOM     24  C   UNL     1      -0.923  -0.714  -7.473  0.00  0.00    +0.023 A 
ATOM     25  C   UNL     1      -0.825  -0.514  -8.836  0.00  0.00    +0.002 A 
ATOM     26  C   UNL     1       0.282   0.124  -9.365  0.00  0.00    +0.000 A 
ATOM     27  C   UNL     1       1.293   0.565  -8.532  0.00  0.00    +0.002 A 
ATOM     28  C   UNL     1       1.198   0.375  -7.167  0.00  0.00    +0.023 A 
ENDBRANCH  19  23
TORSDOF 1
