REMARK  Name = CHEMBL216693
REMARK  9 active torsions:
REMARK  status: ('A' for Active; 'I' for Inactive)
REMARK    1  A    between atoms: C_1  and  N_2
REMARK    2  A    between atoms: N_5  and  C_8
REMARK    3  A    between atoms: C_8  and  C_9
REMARK    4  A    between atoms: C_9  and  C_10
REMARK    5  A    between atoms: C_10  and  O_11
REMARK    6  A    between atoms: O_11  and  C_12
REMARK    7  A    between atoms: C_16  and  O_18
REMARK    8  A    between atoms: O_18  and  C_19
REMARK    9  A    between atoms: N_29  and  C_30
REMARK                            x       y       z     vdW  Elec       q    Type
REMARK                         _______ _______ _______ _____ _____    ______ ____
ROOT
ATOM      1  C   UNL     1       1.585  -7.699   4.305  0.00  0.00    +0.126 A 
ATOM      2  C   UNL     1       1.903  -8.486   3.217  0.00  0.00    +0.074 A 
ATOM      3  C   UNL     1       1.841  -9.878   3.328  0.00  0.00    +0.083 A 
ATOM      4  C   UNL     1       1.451 -10.464   4.558  0.00  0.00    +0.082 A 
ATOM      5  C   UNL     1       1.131  -9.644   5.652  0.00  0.00    +0.137 A 
ATOM      6  C   UNL     1       1.206  -8.274   5.518  0.00  0.00    +0.092 A 
ATOM      7  C   UNL     1       1.398 -11.874   4.638  0.00  0.00    +0.138 A 
ATOM      8  N   UNL     1       1.716 -12.578   3.558  0.00  0.00    -0.220 NA
ATOM      9  C   UNL     1       2.075 -11.988   2.430  0.00  0.00    +0.223 A 
ATOM     10  N   UNL     1       2.142 -10.684   2.296  0.00  0.00    -0.235 NA
ATOM     11  N   UNL     1       1.026 -12.503   5.809  0.00  0.00    -0.295 N 
ATOM     12  H   UNL     1       0.716 -11.978   6.563  0.00  0.00    +0.154 HD
ENDROOT
BRANCH  11  13
ATOM     13  C   UNL     1       1.097 -13.898   5.907  0.00  0.00    +0.097 A 
ATOM     14  C   UNL     1       0.376 -14.695   5.026  0.00  0.00    +0.066 A 
ATOM     15  C   UNL     1       0.446 -16.073   5.123  0.00  0.00    +0.025 A 
ATOM     16  C   UNL     1       1.232 -16.662   6.096  0.00  0.00    +0.051 A 
ATOM     17  C   UNL     1       1.954 -15.874   6.980  0.00  0.00    +0.168 A 
ATOM     18  C   UNL     1       1.892 -14.488   6.883  0.00  0.00    +0.189 A 
ATOM     19  O   UNL     1       2.688 -13.946   7.852  0.00  0.00    -0.451 OA
ATOM     20  C   UNL     1       2.921 -15.008   8.796  0.00  0.00    +0.466 C 
ATOM     21  O   UNL     1       2.789 -16.203   8.009  0.00  0.00    -0.453 OA
ATOM     22 CL   UNL     1      -0.613 -13.961   3.803  0.00  0.00    -0.081 Cl
ENDBRANCH  11  13
BRANCH   1  23
ATOM     23  O   UNL     1       1.647  -6.346   4.195  0.00  0.00    -0.492 OA
BRANCH  23  24
ATOM     24  C   UNL     1       2.041  -5.816   2.928  0.00  0.00    +0.230 C 
BRANCH  24  25
ATOM     25  C   UNL     1       2.053  -4.288   2.997  0.00  0.00    +0.056 C 
BRANCH  25  26
ATOM     26  C   UNL     1       2.474  -3.720   1.640  0.00  0.00    +0.087 C 
BRANCH  26  31
ATOM     27  C   UNL     1       3.627   1.793   1.453  0.00  0.00    -0.096 C 
ATOM     28  N   UNL     1       3.667   0.327   1.368  0.00  0.00    +0.379 N 
ATOM     29  C   UNL     1       2.600  -0.141   0.472  0.00  0.00    -0.064 C 
ATOM     30  C   UNL     1       2.653  -1.666   0.368  0.00  0.00    +0.066 C 
ATOM     31  N   UNL     1       2.486  -2.252   1.706  0.00  0.00    -0.306 NA
ATOM     32  C   UNL     1       3.532  -1.774   2.620  0.00  0.00    +0.066 C 
ATOM     33  C   UNL     1       3.472  -0.247   2.706  0.00  0.00    -0.064 C 
ATOM     34  H   UNL     1       4.562   0.036   1.004  0.00  0.00    -0.082 HD
ENDBRANCH  26  31
ENDBRANCH  25  26
ENDBRANCH  24  25
ENDBRANCH  23  24
ENDBRANCH   1  23
BRANCH   5  35
ATOM     35  O   UNL     1       0.756 -10.196   6.834  0.00  0.00    -0.488 OA
BRANCH  35  36
ATOM     36  C   UNL     1       0.525  -9.301   7.924  0.00  0.00    +0.178 C 
ATOM     37  C   UNL     1       1.856  -8.964   8.602  0.00  0.00    +0.072 C 
ATOM     38  C   UNL     1       1.590  -8.069   9.815  0.00  0.00    +0.163 C 
ATOM     39  O   UNL     1       0.697  -8.735  10.710  0.00  0.00    -0.380 OA
ATOM     40  C   UNL     1      -0.581  -9.033  10.145  0.00  0.00    +0.163 C 
ATOM     41  C   UNL     1      -0.402  -9.967   8.946  0.00  0.00    +0.072 C 
ENDBRANCH  35  36
ENDBRANCH   5  35
TORSDOF 8
