REMARK  Name = CHEMBL379517
REMARK  10 active torsions:
REMARK  status: ('A' for Active; 'I' for Inactive)
REMARK    1  A    between atoms: C_1  and  C_2
REMARK    2  A    between atoms: C_2  and  N_3
REMARK    3  A    between atoms: N_3  and  C_4
REMARK    4  A    between atoms: N_3  and  C_6
REMARK    5  A    between atoms: C_4  and  C_5
REMARK    6  A    between atoms: C_6  and  C_7
REMARK    7  A    between atoms: C_7  and  O_8
REMARK    8  A    between atoms: O_8  and  C_9
REMARK    9  A    between atoms: C_12  and  N_15
REMARK   10  A    between atoms: C_28  and  C_30
REMARK                            x       y       z     vdW  Elec       q    Type
REMARK                         _______ _______ _______ _____ _____    ______ ____
ROOT
ATOM      1  N   UNL     1      -1.795  -3.443   8.098  0.00  0.00    -0.284 N 
ATOM      2  C   UNL     1      -2.760  -2.994   8.984  0.00  0.00    +0.221 A 
ATOM      3  N   UNL     1      -3.824  -2.364   8.505  0.00  0.00    -0.222 NA
ATOM      4  C   UNL     1      -4.776  -1.916   9.312  0.00  0.00    +0.125 A 
ATOM      5  C   UNL     1      -4.636  -2.122  10.681  0.00  0.00    +0.036 A 
ATOM      6  C   UNL     1      -3.493  -2.796  11.155  0.00  0.00    +0.150 A 
ATOM      7  N   UNL     1      -2.590  -3.216  10.281  0.00  0.00    -0.197 NA
ATOM      8  N   UNL     1      -3.337  -3.009  12.514  0.00  0.00    -0.226 N 
ATOM      9  C   UNL     1      -2.247  -3.677  13.243  0.00  0.00    +0.139 C 
ATOM     10  C   UNL     1      -2.659  -3.588  14.722  0.00  0.00    +0.118 C 
ATOM     11  C   UNL     1      -3.979  -2.859  14.697  0.00  0.00    +0.238 C 
ATOM     12  O   UNL     1      -4.647  -2.583  15.672  0.00  0.00    -0.274 OA
ATOM     13  N   UNL     1      -4.303  -2.562  13.419  0.00  0.00    -0.186 N 
ATOM     14  C   UNL     1      -5.447  -1.890  12.959  0.00  0.00    +0.067 C 
ATOM     15  C   UNL     1      -5.643  -1.659  11.645  0.00  0.00    +0.038 C 
ATOM     16  H   UNL     1      -1.052  -3.976   8.420  0.00  0.00    +0.155 HD
ENDROOT
BRANCH  14  17
ATOM     17  C   UNL     1      -6.456  -1.427  13.934  0.00  0.00    +0.035 A 
ATOM     18  C   UNL     1      -7.249  -2.353  14.617  0.00  0.00    +0.051 A 
ATOM     19  C   UNL     1      -8.189  -1.912  15.527  0.00  0.00    +0.021 A 
ATOM     20  C   UNL     1      -8.348  -0.558  15.762  0.00  0.00    +0.003 A 
ATOM     21  C   UNL     1      -7.567   0.364  15.089  0.00  0.00    +0.021 A 
ATOM     22  C   UNL     1      -6.618  -0.061  14.181  0.00  0.00    +0.051 A 
ATOM     23 CL   UNL     1      -5.633   1.098  13.344  0.00  0.00    -0.083 Cl
ATOM     24 CL   UNL     1      -7.052  -4.053  14.323  0.00  0.00    -0.083 Cl
ENDBRANCH  14  17
BRANCH   1  28
ATOM     25  C   UNL     1      -2.083  -2.497   4.048  0.00  0.00    +0.121 A 
ATOM     26  C   UNL     1      -2.531  -1.597   5.003  0.00  0.00    +0.047 A 
ATOM     27  C   UNL     1      -2.436  -1.909   6.345  0.00  0.00    +0.027 A 
ATOM     28  C   UNL     1      -1.892  -3.125   6.738  0.00  0.00    +0.034 A 
ATOM     29  C   UNL     1      -1.444  -4.026   5.780  0.00  0.00    +0.027 A 
ATOM     30  C   UNL     1      -1.544  -3.714   4.439  0.00  0.00    +0.047 A 
BRANCH  25  31
ATOM     31  O   UNL     1      -2.176  -2.189   2.727  0.00  0.00    -0.494 OA
BRANCH  31  32
ATOM     32  C   UNL     1      -2.741  -0.919   2.395  0.00  0.00    +0.210 C 
BRANCH  32  33
ATOM     33  C   UNL     1      -2.764  -0.751   0.875  0.00  0.00    -0.037 C 
BRANCH  33  34
ATOM     34  N   UNL     1      -3.671  -1.746   0.286  0.00  0.00    +0.382 N 
ATOM     35  H   UNL     1      -3.397  -2.670   0.585  0.00  0.00    -0.082 HD
BRANCH  34  37
ATOM     36  C   UNL     1      -5.970  -2.589   0.230  0.00  0.00    -0.017 C 
ATOM     37  C   UNL     1      -5.046  -1.475   0.728  0.00  0.00    -0.082 C 
ENDBRANCH  34  37
BRANCH  34  38
ATOM     38  C   UNL     1      -3.602  -1.665  -1.179  0.00  0.00    -0.082 C 
ATOM     39  C   UNL     1      -2.208  -2.087  -1.648  0.00  0.00    -0.017 C 
ENDBRANCH  34  38
ENDBRANCH  33  34
ENDBRANCH  32  33
ENDBRANCH  31  32
ENDBRANCH  25  31
ENDBRANCH   1  28
TORSDOF 8
