REMARK  Name = CHEMBL331906
REMARK  4 active torsions:
REMARK  status: ('A' for Active; 'I' for Inactive)
REMARK    1  A    between atoms: C_3  and  C_8
REMARK    2  A    between atoms: C_5  and  O_7
REMARK    3  A    between atoms: C_14  and  N_15
REMARK    4  A    between atoms: N_15  and  C_16
REMARK                            x       y       z     vdW  Elec       q    Type
REMARK                         _______ _______ _______ _____ _____    ______ ____
ROOT
ATOM      1  C   UNL     1       3.714   2.284   0.022  0.00  0.00    +0.105 A 
ATOM      2  C   UNL     1       3.686   3.693  -0.368  0.00  0.00    +0.086 A 
ATOM      3  C   UNL     1       4.712   4.328   0.358  0.00  0.00    +0.161 A 
ATOM      4  N   UNL     1       4.902   5.635   0.184  0.00  0.00    -0.216 NA
ATOM      5  C   UNL     1       4.148   6.318  -0.649  0.00  0.00    +0.225 A 
ATOM      6  N   UNL     1       3.175   5.764  -1.350  0.00  0.00    -0.220 NA
ATOM      7  C   UNL     1       2.908   4.465  -1.246  0.00  0.00    +0.138 A 
ATOM      8  N   UNL     1       5.306   3.369   1.124  0.00  0.00    -0.259 N 
ATOM      9  N   UNL     1       4.676   2.140   0.902  0.00  0.00    -0.171 NA
ATOM     10  H   UNL     1       6.048   3.518   1.730  0.00  0.00    +0.191 HD
ENDROOT
BRANCH   1  13
ATOM     11  C   UNL     1       1.716   0.113  -2.309  0.00  0.00    +0.004 A 
ATOM     12  C   UNL     1       2.553   1.108  -1.844  0.00  0.00    +0.010 A 
ATOM     13  C   UNL     1       2.816   1.216  -0.480  0.00  0.00    +0.006 A 
ATOM     14  C   UNL     1       2.234   0.317   0.411  0.00  0.00    +0.055 A 
ATOM     15  C   UNL     1       1.397  -0.679  -0.064  0.00  0.00    +0.117 A 
ATOM     16  C   UNL     1       1.139  -0.779  -1.424  0.00  0.00    +0.045 A 
BRANCH  15  17
ATOM     17  O   UNL     1       0.827  -1.558   0.802  0.00  0.00    -0.507 OA
ATOM     18  H   UNL     1      -0.031  -1.273   1.144  0.00  0.00    +0.292 HD
ENDBRANCH  15  17
ENDBRANCH   1  13
BRANCH   7  19
ATOM     19  N   UNL     1       1.889   3.890  -1.983  0.00  0.00    -0.299 N 
ATOM     20  H   UNL     1       1.647   2.963  -1.835  0.00  0.00    +0.154 HD
BRANCH  19  21
ATOM     21  C   UNL     1       1.208   4.646  -2.941  0.00  0.00    +0.034 A 
ATOM     22  C   UNL     1       1.874   5.640  -3.647  0.00  0.00    +0.023 A 
ATOM     23  C   UNL     1       1.198   6.384  -4.594  0.00  0.00    +0.003 A 
ATOM     24  C   UNL     1      -0.141   6.142  -4.840  0.00  0.00    +0.020 A 
ATOM     25  C   UNL     1      -0.808   5.153  -4.139  0.00  0.00    +0.043 A 
ATOM     26  C   UNL     1      -0.136   4.400  -3.194  0.00  0.00    +0.043 A 
ATOM     27 CL   UNL     1      -2.489   4.852  -4.451  0.00  0.00    -0.083 Cl
ENDBRANCH  19  21
ENDBRANCH   7  19
TORSDOF 4
