REMARK  Name = CHEMBL240747
REMARK  0 active torsions:
REMARK  status: ('A' for Active; 'I' for Inactive)
REMARK                            x       y       z     vdW  Elec       q    Type
REMARK                         _______ _______ _______ _____ _____    ______ ____
ROOT
ATOM      1  C   UNL     1      -0.017   1.374   0.010  0.00  0.00    +0.001 A 
ATOM      2  C   UNL     1       1.172   2.088   0.002  0.00  0.00    +0.002 A 
ATOM      3  C   UNL     1       2.385   1.434  -0.013  0.00  0.00    +0.026 A 
ATOM      4  C   UNL     1       2.425   0.043  -0.021  0.00  0.00    +0.048 A 
ATOM      5  C   UNL     1       1.222  -0.679  -0.013  0.00  0.00    +0.008 A 
ATOM      6  C   UNL     1       0.002  -0.004   0.002  0.00  0.00    +0.010 A 
ATOM      7  C   UNL     1       1.590  -2.105  -0.025  0.00  0.00    +0.022 A 
ATOM      8  C   UNL     1       0.844  -3.291  -0.023  0.00  0.00    +0.061 A 
ATOM      9  C   UNL     1       1.499  -4.535  -0.036  0.00  0.00    +0.075 A 
ATOM     10  C   UNL     1       2.895  -4.587  -0.050  0.00  0.00    +0.081 A 
ATOM     11  C   UNL     1       3.646  -3.398  -0.051  0.00  0.00    +0.113 A 
ATOM     12  C   UNL     1       2.993  -2.152  -0.038  0.00  0.00    +0.076 A 
ATOM     13  N   UNL     1       3.473  -0.860  -0.036  0.00  0.00    -0.352 N 
ATOM     14  H   UNL     1       4.412  -0.617  -0.044  0.00  0.00    +0.166 HD
ATOM     15  N   UNL     1       4.954  -3.756  -0.065  0.00  0.00    -0.234 NA
ATOM     16  C   UNL     1       5.050  -5.054  -0.073  0.00  0.00    +0.197 A 
ATOM     17  N   UNL     1       3.811  -5.615  -0.064  0.00  0.00    -0.344 N 
ATOM     18  H   UNL     1       3.609  -6.564  -0.067  0.00  0.00    +0.167 HD
ATOM     19  C   UNL     1       0.434  -5.554  -0.031  0.00  0.00    +0.253 C 
ATOM     20  O   UNL     1       0.603  -6.757  -0.038  0.00  0.00    -0.270 OA
ATOM     21  N   UNL     1      -0.757  -4.929  -0.016  0.00  0.00    -0.248 N 
ATOM     22  C   UNL     1      -0.599  -3.593  -0.011  0.00  0.00    +0.252 C 
ATOM     23  O   UNL     1      -1.495  -2.773   0.002  0.00  0.00    -0.270 OA
ATOM     24  H   UNL     1      -1.615  -5.381  -0.010  0.00  0.00    +0.158 HD
ENDROOT
TORSDOF 0
