REMARK  Name = CHEMBL305621
REMARK  8 active torsions:
REMARK  status: ('A' for Active; 'I' for Inactive)
REMARK    1  A    between atoms: C_4  and  S_7
REMARK    2  A    between atoms: S_7  and  C_10
REMARK    3  A    between atoms: C_13  and  C_16
REMARK    4  A    between atoms: C_16  and  N_17
REMARK    5  A    between atoms: C_20  and  O_33
REMARK    6  A    between atoms: C_21  and  O_32
REMARK    7  A    between atoms: C_26  and  O_31
REMARK    8  A    between atoms: C_27  and  O_30
REMARK                            x       y       z     vdW  Elec       q    Type
REMARK                         _______ _______ _______ _____ _____    ______ ____
ROOT
ATOM      1  N   UNL     1       4.533  -1.167   6.591  0.00  0.00    -0.332 N 
ATOM      2  C   UNL     1       4.529   0.134   7.068  0.00  0.00    +0.054 A 
ATOM      3  C   UNL     1       5.399   1.203   6.875  0.00  0.00    +0.075 A 
ATOM      4  C   UNL     1       5.150   2.417   7.485  0.00  0.00    +0.160 A 
ATOM      5  C   UNL     1       4.029   2.583   8.298  0.00  0.00    +0.159 A 
ATOM      6  C   UNL     1       3.158   1.530   8.498  0.00  0.00    +0.059 A 
ATOM      7  C   UNL     1       3.403   0.302   7.886  0.00  0.00    +0.011 A 
ATOM      8  C   UNL     1       2.692  -0.991   7.891  0.00  0.00    +0.012 A 
ATOM      9  C   UNL     1       3.430  -1.856   7.072  0.00  0.00    +0.096 A 
ATOM     10  C   UNL     1       2.986  -3.164   6.884  0.00  0.00    +0.183 A 
ATOM     11  C   UNL     1       1.822  -3.595   7.502  0.00  0.00    +0.160 A 
ATOM     12  C   UNL     1       1.092  -2.730   8.309  0.00  0.00    +0.050 A 
ATOM     13  C   UNL     1       1.526  -1.438   8.511  0.00  0.00    +0.014 A 
ENDROOT
BRANCH  11  14
ATOM     14  O   UNL     1       1.391  -4.871   7.316  0.00  0.00    -0.503 OA
ATOM     15  H   UNL     1       1.735  -5.501   7.965  0.00  0.00    +0.292 HD
ENDBRANCH  11  14
BRANCH  10  16
ATOM     16  O   UNL     1       3.694  -4.016   6.095  0.00  0.00    -0.502 OA
ATOM     17  H   UNL     1       4.368  -4.523   6.568  0.00  0.00    +0.292 HD
ENDBRANCH  10  16
BRANCH   5  18
ATOM     18  O   UNL     1       3.793   3.783   8.894  0.00  0.00    -0.503 OA
ATOM     19  H   UNL     1       3.254   4.386   8.364  0.00  0.00    +0.292 HD
ENDBRANCH   5  18
BRANCH   4  20
ATOM     20  O   UNL     1       6.005   3.458   7.292  0.00  0.00    -0.503 OA
ATOM     21  H   UNL     1       5.781   4.015   6.534  0.00  0.00    +0.292 HD
ENDBRANCH   4  20
BRANCH   1  22
ATOM     22  C   UNL     1       5.551  -1.732   5.702  0.00  0.00    +0.157 C 
BRANCH  22  26
ATOM     23  C   UNL     1       4.406  -1.094   1.637  0.00  0.00    +0.094 A 
ATOM     24  C   UNL     1       5.171  -0.150   2.295  0.00  0.00    +0.028 A 
ATOM     25  C   UNL     1       5.541  -0.356   3.611  0.00  0.00    +0.007 A 
ATOM     26  C   UNL     1       5.147  -1.506   4.268  0.00  0.00    -0.028 A 
ATOM     27  C   UNL     1       4.381  -2.450   3.610  0.00  0.00    +0.007 A 
ATOM     28  C   UNL     1       4.007  -2.242   2.295  0.00  0.00    +0.028 A 
BRANCH  23  29
ATOM     29  S   UNL     1       3.934  -0.832  -0.041  0.00  0.00    +0.025 S 
ATOM     30  O   UNL     1       3.674  -2.114  -0.595  0.00  0.00    -0.164 OA
ATOM     31  O   UNL     1       4.890   0.060  -0.597  0.00  0.00    -0.164 OA
BRANCH  29  35
ATOM     32  C   UNL     1      -0.017   1.378   0.010  0.00  0.00    +0.000 A 
ATOM     33  C   UNL     1       1.171   2.086   0.002  0.00  0.00    +0.002 A 
ATOM     34  C   UNL     1       2.377   1.411  -0.013  0.00  0.00    +0.027 A 
ATOM     35  C   UNL     1       2.396   0.029  -0.020  0.00  0.00    +0.094 A 
ATOM     36  C   UNL     1       1.208  -0.679  -0.012  0.00  0.00    +0.027 A 
ATOM     37  C   UNL     1       0.002  -0.004   0.002  0.00  0.00    +0.002 A 
ENDBRANCH  29  35
ENDBRANCH  23  29
ENDBRANCH  22  26
ENDBRANCH   1  22
TORSDOF 8
