REMARK  Name = CHEMBL241040
REMARK  11 active torsions:
REMARK  status: ('A' for Active; 'I' for Inactive)
REMARK    1  A    between atoms: C_1  and  N_2
REMARK    2  A    between atoms: N_5  and  C_8
REMARK    3  A    between atoms: C_8  and  C_9
REMARK    4  A    between atoms: C_10  and  C_11
REMARK    5  A    between atoms: C_16  and  O_17
REMARK    6  A    between atoms: O_17  and  C_18
REMARK    7  A    between atoms: C_19  and  N_25
REMARK    8  A    between atoms: C_20  and  C_23
REMARK    9  A    between atoms: N_25  and  C_26
REMARK   10  A    between atoms: C_28  and  O_34
REMARK   11  A    between atoms: O_34  and  C_35
REMARK                            x       y       z     vdW  Elec       q    Type
REMARK                         _______ _______ _______ _____ _____    ______ ____
ROOT
ATOM      1  C   UNL     1      -1.039  -4.417   9.063  0.00  0.00    +0.069 A 
ATOM      2  C   UNL     1       0.073  -3.766   8.555  0.00  0.00    +0.048 A 
ATOM      3  C   UNL     1       1.261  -4.481   8.346  0.00  0.00    +0.074 A 
ATOM      4  C   UNL     1       1.302  -5.861   8.660  0.00  0.00    +0.026 A 
ATOM      5  C   UNL     1       0.164  -6.500   9.174  0.00  0.00    +0.058 A 
ATOM      6  C   UNL     1      -0.984  -5.789   9.376  0.00  0.00    +0.136 A 
ATOM      7  C   UNL     1       2.504  -6.577   8.447  0.00  0.00    +0.060 A 
ATOM      8  C   UNL     1       3.602  -5.875   7.931  0.00  0.00    +0.091 A 
ATOM      9  C   UNL     1       3.471  -4.505   7.648  0.00  0.00    +0.132 A 
ATOM     10  N   UNL     1       2.348  -3.867   7.855  0.00  0.00    -0.254 NA
ENDROOT
BRANCH   1  12
ATOM     11  C   UNL     1      -3.248  -3.090   9.453  0.00  0.00    -0.081 C 
ATOM     12  C   UNL     1      -2.253  -3.688   9.277  0.00  0.00    -0.061 C 
BRANCH  11  13
ATOM     13  C   UNL     1      -4.496  -2.340   9.673  0.00  0.00    +0.174 C 
BRANCH  13  18
ATOM     14  C   UNL     1      -4.748   2.849   7.492  0.00  0.00    -0.096 C 
ATOM     15  N   UNL     1      -4.986   1.447   7.860  0.00  0.00    +0.379 N 
ATOM     16  C   UNL     1      -5.174   1.347   9.313  0.00  0.00    -0.064 C 
ATOM     17  C   UNL     1      -5.440  -0.110   9.695  0.00  0.00    +0.067 C 
ATOM     18  N   UNL     1      -4.303  -0.940   9.273  0.00  0.00    -0.295 NA
ATOM     19  C   UNL     1      -4.087  -0.831   7.823  0.00  0.00    +0.067 C 
ATOM     20  C   UNL     1      -3.832   0.632   7.457  0.00  0.00    -0.064 C 
ATOM     21  H   UNL     1      -5.814   1.112   7.391  0.00  0.00    -0.082 HD
ENDBRANCH  13  18
ENDBRANCH  11  13
ENDBRANCH   1  12
BRANCH   6  22
ATOM     22  O   UNL     1      -2.082  -6.411   9.879  0.00  0.00    -0.494 OA
ATOM     23  C   UNL     1      -1.960  -7.803  10.176  0.00  0.00    +0.277 C 
ENDBRANCH   6  22
BRANCH   8  24
ATOM     24  C   UNL     1       4.845  -6.546   7.695  0.00  0.00    +0.103 C 
ATOM     25  N   UNL     1       5.830  -7.079   7.508  0.00  0.00    -0.191 NA
ENDBRANCH   8  24
BRANCH   7  26
ATOM     26  N   UNL     1       2.592  -7.924   8.739  0.00  0.00    -0.312 N 
ATOM     27  H   UNL     1       2.478  -8.581   8.034  0.00  0.00    +0.152 HD
BRANCH  26  28
ATOM     28  C   UNL     1       2.846  -8.340  10.049  0.00  0.00    +0.053 A 
ATOM     29  C   UNL     1       2.892  -7.409  11.078  0.00  0.00    +0.071 A 
ATOM     30  C   UNL     1       3.144  -7.825  12.375  0.00  0.00    +0.140 A 
ATOM     31  C   UNL     1       3.349  -9.172  12.644  0.00  0.00    +0.084 A 
ATOM     32  C   UNL     1       3.303 -10.099  11.619  0.00  0.00    +0.045 A 
ATOM     33  C   UNL     1       3.046  -9.688  10.324  0.00  0.00    +0.064 A 
ATOM     34 CL   UNL     1       2.982 -10.855   9.041  0.00  0.00    -0.082 Cl
ATOM     35 CL   UNL     1       3.665  -9.693  14.270  0.00  0.00    -0.080 Cl
BRANCH  30  36
ATOM     36  O   UNL     1       3.190  -6.915  13.384  0.00  0.00    -0.494 OA
ATOM     37  C   UNL     1       2.852  -5.566  13.056  0.00  0.00    +0.277 C 
ENDBRANCH  30  36
ENDBRANCH  26  28
ENDBRANCH   7  26
TORSDOF 8
