REMARK  Name = CHEMBL121954
REMARK  4 active torsions:
REMARK  status: ('A' for Active; 'I' for Inactive)
REMARK    1  A    between atoms: C_3  and  N_8
REMARK    2  A    between atoms: C_5  and  O_7
REMARK    3  A    between atoms: N_8  and  C_9
REMARK    4  A    between atoms: N_16  and  C_17
REMARK                            x       y       z     vdW  Elec       q    Type
REMARK                         _______ _______ _______ _____ _____    ______ ____
ROOT
ATOM      1  C   UNL     1       3.569   3.544  -0.122  0.00  0.00    +0.131 A 
ATOM      2  C   UNL     1       4.674   4.341  -0.392  0.00  0.00    +0.100 A 
ATOM      3  C   UNL     1       4.158   5.698  -0.642  0.00  0.00    +0.188 A 
ATOM      4  N   UNL     1       5.050   6.667  -0.931  0.00  0.00    -0.214 NA
ATOM      5  C   UNL     1       6.330   6.393  -0.984  0.00  0.00    +0.225 A 
ATOM      6  N   UNL     1       6.834   5.189  -0.767  0.00  0.00    -0.220 NA
ATOM      7  C   UNL     1       6.069   4.144  -0.472  0.00  0.00    +0.139 A 
ATOM      8  N   UNL     1       6.623   2.901  -0.251  0.00  0.00    -0.299 N 
ATOM      9  N   UNL     1       2.851   5.637  -0.514  0.00  0.00    -0.152 NA
ATOM     10  N   UNL     1       2.477   4.325  -0.202  0.00  0.00    -0.261 N 
ATOM     11  H   UNL     1       1.565   4.024  -0.061  0.00  0.00    +0.190 HD
ATOM     12  H   UNL     1       6.049   2.131  -0.121  0.00  0.00    +0.154 HD
ENDROOT
BRANCH   8  13
ATOM     13  C   UNL     1       8.013   2.752  -0.213  0.00  0.00    +0.034 A 
ATOM     14  C   UNL     1       8.599   1.579  -0.672  0.00  0.00    +0.023 A 
ATOM     15  C   UNL     1       9.972   1.434  -0.634  0.00  0.00    +0.003 A 
ATOM     16  C   UNL     1      10.763   2.454  -0.140  0.00  0.00    +0.020 A 
ATOM     17  C   UNL     1      10.183   3.624   0.318  0.00  0.00    +0.043 A 
ATOM     18  C   UNL     1       8.810   3.778   0.277  0.00  0.00    +0.043 A 
ATOM     19 CL   UNL     1      11.181   4.903   0.938  0.00  0.00    -0.083 Cl
ENDBRANCH   8  13
BRANCH   1  20
ATOM     20  N   UNL     1       3.587   2.192   0.170  0.00  0.00    -0.299 N 
ATOM     21  H   UNL     1       4.434   1.733   0.288  0.00  0.00    +0.154 HD
BRANCH  20  24
ATOM     22  C   UNL     1       0.112   1.125  -0.376  0.00  0.00    +0.005 A 
ATOM     23  C   UNL     1       1.298   1.821  -0.500  0.00  0.00    +0.023 A 
ATOM     24  C   UNL     1       2.387   1.488   0.296  0.00  0.00    +0.036 A 
ATOM     25  C   UNL     1       2.281   0.454   1.216  0.00  0.00    +0.068 A 
ATOM     26  C   UNL     1       1.089  -0.243   1.337  0.00  0.00    +0.119 A 
ATOM     27  C   UNL     1       0.004   0.095   0.539  0.00  0.00    +0.045 A 
BRANCH  26  28
ATOM     28  O   UNL     1       0.982  -1.256   2.237  0.00  0.00    -0.507 OA
ATOM     29  H   UNL     1       0.678  -0.975   3.111  0.00  0.00    +0.292 HD
ENDBRANCH  26  28
ENDBRANCH  20  24
ENDBRANCH   1  20
TORSDOF 4
