REMARK  Name = CHEMBL41465
REMARK  12 active torsions:
REMARK  status: ('A' for Active; 'I' for Inactive)
REMARK    1  A    between atoms: C_1  and  N_2
REMARK    2  A    between atoms: C_5  and  C_8
REMARK    3  A    between atoms: C_8  and  C_9
REMARK    4  A    between atoms: C_9  and  O_10
REMARK    5  A    between atoms: O_10  and  C_11
REMARK    6  A    between atoms: C_16  and  O_17
REMARK    7  A    between atoms: O_17  and  C_18
REMARK    8  A    between atoms: C_19  and  N_25
REMARK    9  A    between atoms: C_20  and  C_23
REMARK   10  A    between atoms: N_25  and  C_26
REMARK   11  A    between atoms: C_28  and  O_34
REMARK   12  A    between atoms: O_34  and  C_35
REMARK                            x       y       z     vdW  Elec       q    Type
REMARK                         _______ _______ _______ _____ _____    ______ ____
ROOT
ATOM      1  C   UNL     1      -0.837  -6.944   7.598  0.00  0.00    +0.164 A 
ATOM      2  C   UNL     1       0.239  -6.182   7.202  0.00  0.00    +0.077 A 
ATOM      3  C   UNL     1       1.420  -6.812   6.782  0.00  0.00    +0.077 A 
ATOM      4  C   UNL     1       1.483  -8.226   6.772  0.00  0.00    +0.026 A 
ATOM      5  C   UNL     1       0.372  -8.979   7.181  0.00  0.00    +0.061 A 
ATOM      6  C   UNL     1      -0.764  -8.344   7.591  0.00  0.00    +0.162 A 
ATOM      7  C   UNL     1       2.675  -8.857   6.348  0.00  0.00    +0.060 A 
ATOM      8  C   UNL     1       3.745  -8.039   5.954  0.00  0.00    +0.091 A 
ATOM      9  C   UNL     1       3.594  -6.644   5.995  0.00  0.00    +0.132 A 
ATOM     10  N   UNL     1       2.479  -6.086   6.393  0.00  0.00    -0.253 NA
ENDROOT
BRANCH   6  11
ATOM     11  O   UNL     1      -1.838  -9.076   7.992  0.00  0.00    -0.491 OA
ATOM     12  C   UNL     1      -1.701 -10.498   7.962  0.00  0.00    +0.277 C 
ENDBRANCH   6  11
BRANCH   8  13
ATOM     13  C   UNL     1       4.977  -8.621   5.515  0.00  0.00    +0.103 C 
ATOM     14  N   UNL     1       5.955  -9.083   5.167  0.00  0.00    -0.191 NA
ENDBRANCH   8  13
BRANCH   7  15
ATOM     15  N   UNL     1       2.783 -10.233   6.323  0.00  0.00    -0.312 N 
ATOM     16  H   UNL     1       2.637 -10.716   5.494  0.00  0.00    +0.152 HD
BRANCH  15  17
ATOM     17  C   UNL     1       3.103 -10.931   7.491  0.00  0.00    +0.053 A 
ATOM     18  C   UNL     1       3.195 -10.256   8.701  0.00  0.00    +0.071 A 
ATOM     19  C   UNL     1       3.513 -10.951   9.857  0.00  0.00    +0.140 A 
ATOM     20  C   UNL     1       3.737 -12.320   9.804  0.00  0.00    +0.084 A 
ATOM     21  C   UNL     1       3.646 -12.992   8.599  0.00  0.00    +0.045 A 
ATOM     22  C   UNL     1       3.324 -12.303   7.444  0.00  0.00    +0.064 A 
ATOM     23 CL   UNL     1       3.201 -13.151   5.934  0.00  0.00    -0.082 Cl
ATOM     24 CL   UNL     1       4.136 -13.190  11.253  0.00  0.00    -0.080 Cl
BRANCH  19  25
ATOM     25  O   UNL     1       3.604 -10.292  11.043  0.00  0.00    -0.494 OA
ATOM     26  C   UNL     1       3.243  -8.909  11.046  0.00  0.00    +0.277 C 
ENDBRANCH  19  25
ENDBRANCH  15  17
ENDBRANCH   7  15
BRANCH   1  27
ATOM     27  O   UNL     1      -1.980  -6.333   8.005  0.00  0.00    -0.488 OA
BRANCH  27  28
ATOM     28  C   UNL     1      -1.992  -4.904   7.989  0.00  0.00    +0.229 C 
BRANCH  28  29
ATOM     29  C   UNL     1      -3.352  -4.400   8.477  0.00  0.00    +0.044 C 
BRANCH  29  34
ATOM     30  C   UNL     1      -4.752   1.037   7.476  0.00  0.00    -0.096 C 
ATOM     31  N   UNL     1      -4.634  -0.425   7.565  0.00  0.00    +0.378 N 
ATOM     32  C   UNL     1      -4.719  -0.836   8.972  0.00  0.00    -0.079 C 
ATOM     33  C   UNL     1      -4.678  -2.363   9.064  0.00  0.00    -0.015 C 
ATOM     34  C   UNL     1      -3.365  -2.870   8.460  0.00  0.00    -0.011 C 
ATOM     35  C   UNL     1      -3.253  -2.373   7.016  0.00  0.00    -0.015 C 
ATOM     36  C   UNL     1      -3.347  -0.846   6.999  0.00  0.00    -0.079 C 
ATOM     37  H   UNL     1      -5.385  -0.854   7.045  0.00  0.00    -0.082 HD
ENDBRANCH  29  34
ENDBRANCH  28  29
ENDBRANCH  27  28
ENDBRANCH   1  27
TORSDOF 9
