REMARK  Name = CHEMBL261188
REMARK  13 active torsions:
REMARK  status: ('A' for Active; 'I' for Inactive)
REMARK    1  A    between atoms: C_1  and  O_2
REMARK    2  A    between atoms: O_2  and  C_3
REMARK    3  A    between atoms: C_5  and  N_11
REMARK    4  A    between atoms: C_7  and  O_9
REMARK    5  A    between atoms: O_9  and  C_10
REMARK    6  A    between atoms: C_13  and  C_36
REMARK    7  A    between atoms: C_16  and  C_33
REMARK    8  A    between atoms: C_18  and  N_21
REMARK    9  A    between atoms: N_21  and  CA_22
REMARK   10  A    between atoms: CA_22  and  C_24
REMARK   11  A    between atoms: CA_22  and  C_31
REMARK   12  A    between atoms: C_24  and  C_25
REMARK   13  A    between atoms: C_31  and  O_32
REMARK                            x       y       z     vdW  Elec       q    Type
REMARK                         _______ _______ _______ _____ _____    ______ ____
ROOT
ATOM      1  N   UNL     1       1.322  -4.001  -2.285  0.00  0.00    -0.297 N 
ATOM      2  C   UNL     1       1.847  -4.619  -3.417  0.00  0.00    +0.160 A 
ATOM      3  C   UNL     1       1.861  -6.011  -3.667  0.00  0.00    +0.122 A 
ATOM      4  C   UNL     1       2.482  -6.195  -4.919  0.00  0.00    +0.172 A 
ATOM      5  N   UNL     1       2.755  -7.288  -5.632  0.00  0.00    -0.232 NA
ATOM      6  C   UNL     1       3.355  -7.207  -6.803  0.00  0.00    +0.050 A 
ATOM      7  C   UNL     1       3.718  -5.968  -7.320  0.00  0.00    +0.067 A 
ATOM      8  C   UNL     1       3.440  -4.827  -6.590  0.00  0.00    +0.125 A 
ATOM      9  N   UNL     1       2.816  -4.954  -5.380  0.00  0.00    -0.198 N 
ATOM     10  N   UNL     1       2.406  -4.008  -4.434  0.00  0.00    -0.147 NA
ATOM     11  H   UNL     1       0.852  -4.527  -1.619  0.00  0.00    +0.154 HD
ENDROOT
BRANCH   1  14
ATOM     12  C   UNL     1       0.672  -0.539  -1.219  0.00  0.00    +0.125 A 
ATOM     13  C   UNL     1       0.521  -1.906  -1.395  0.00  0.00    +0.069 A 
ATOM     14  C   UNL     1       1.473  -2.623  -2.108  0.00  0.00    +0.039 A 
ATOM     15  C   UNL     1       2.575  -1.970  -2.644  0.00  0.00    +0.069 A 
ATOM     16  C   UNL     1       2.724  -0.604  -2.467  0.00  0.00    +0.125 A 
ATOM     17  C   UNL     1       1.771   0.113  -1.760  0.00  0.00    +0.091 A 
BRANCH  12  19
ATOM     18  C   UNL     1      -0.043   1.569  -0.385  0.00  0.00    +0.277 C 
ATOM     19  O   UNL     1      -0.259   0.163  -0.522  0.00  0.00    -0.495 OA
ENDBRANCH  12  19
BRANCH  16  20
ATOM     20  O   UNL     1       3.803   0.035  -2.992  0.00  0.00    -0.495 OA
ATOM     21  C   UNL     1       3.893   1.444  -2.771  0.00  0.00    +0.277 C 
ENDBRANCH  16  20
ENDBRANCH   1  14
BRANCH   3  22
ATOM     22  C   UNL     1       1.334  -7.058  -2.793  0.00  0.00    +0.249 C 
ATOM     23  O   UNL     1       0.177  -7.419  -2.905  0.00  0.00    -0.270 OA
ATOM     24  N   UNL     1       2.130  -7.625  -1.864  0.00  0.00    -0.325 N 
ATOM     25  H   UNL     1       3.052  -7.337  -1.775  0.00  0.00    +0.145 HD
ATOM     26  H   UNL     1       1.780  -8.319  -1.285  0.00  0.00    +0.145 HD
ENDBRANCH   3  22
BRANCH   6  27
ATOM     27  C   UNL     1       3.650  -8.462  -7.584  0.00  0.00    +0.038 C 
ATOM     28  C   UNL     1       2.458  -9.294  -8.060  0.00  0.00    +0.010 C 
ATOM     29  C   UNL     1       3.336  -9.801  -6.914  0.00  0.00    +0.010 C 
ENDBRANCH   6  27
BRANCH   8  30
ATOM     30  N   UNL     1       3.786  -3.585  -7.073  0.00  0.00    -0.324 N 
ATOM     31  H   UNL     1       3.587  -2.790  -6.553  0.00  0.00    +0.148 HD
BRANCH  30  32
ATOM     32  CA  UNL     1       4.454  -3.464  -8.371  0.00  0.00    +0.101 C 
BRANCH  32  33
ATOM     33  C   UNL     1       4.180  -2.078  -8.958  0.00  0.00    +0.061 C 
BRANCH  33  34
ATOM     34  C   UNL     1       2.708  -1.940  -9.253  0.00  0.00    -0.027 A 
ATOM     35  C   UNL     1       2.202  -2.312 -10.490  0.00  0.00    +0.006 A 
ATOM     36  C   UNL     1       0.842  -2.168 -10.716  0.00  0.00    +0.020 A 
ATOM     37  C   UNL     1       0.042  -1.661  -9.710  0.00  0.00    +0.111 A 
ATOM     38  N   UNL     1       0.557  -1.317  -8.547  0.00  0.00    -0.263 NA
ATOM     39  C   UNL     1       1.845  -1.447  -8.294  0.00  0.00    +0.114 A 
ENDBRANCH  33  34
ENDBRANCH  32  33
BRANCH  32  40
ATOM     40  C   UNL     1       5.962  -3.650  -8.187  0.00  0.00    +0.178 C 
BRANCH  40  41
ATOM     41  O   UNL     1       6.481  -2.581  -7.393  0.00  0.00    -0.393 OA
ATOM     42  H   UNL     1       7.433  -2.635  -7.236  0.00  0.00    +0.209 HD
ENDBRANCH  40  41
ENDBRANCH  32  40
ENDBRANCH  30  32
ENDBRANCH   8  30
TORSDOF 11
