REMARK  Name = CHEMBL169725
REMARK  8 active torsions:
REMARK  status: ('A' for Active; 'I' for Inactive)
REMARK    1  A    between atoms: C_1  and  O_2
REMARK    2  A    between atoms: O_2  and  C_3
REMARK    3  A    between atoms: C_8  and  O_9
REMARK    4  A    between atoms: O_9  and  C_10
REMARK    5  A    between atoms: C_10  and  C_11
REMARK    6  A    between atoms: C_11  and  C_12
REMARK    7  A    between atoms: C_12  and  N_13
REMARK    8  A    between atoms: N_23  and  C_24
REMARK                            x       y       z     vdW  Elec       q    Type
REMARK                         _______ _______ _______ _____ _____    ______ ____
ROOT
ATOM      1  C   UNL     1       1.238  -0.608   0.757  0.00  0.00    +0.162 A 
ATOM      2  C   UNL     1       1.609   0.142   1.837  0.00  0.00    +0.062 A 
ATOM      3  C   UNL     1       2.034  -0.493   3.010  0.00  0.00    +0.044 A 
ATOM      4  C   UNL     1       2.078  -1.908   3.070  0.00  0.00    +0.080 A 
ATOM      5  C   UNL     1       1.694  -2.657   1.952  0.00  0.00    +0.078 A 
ATOM      6  C   UNL     1       1.274  -2.008   0.812  0.00  0.00    +0.164 A 
ATOM      7  N   UNL     1       2.489  -2.493   4.207  0.00  0.00    -0.235 NA
ATOM      8  C   UNL     1       2.842  -1.764   5.239  0.00  0.00    +0.223 A 
ATOM      9  N   UNL     1       2.818  -0.441   5.229  0.00  0.00    -0.220 NA
ATOM     10  C   UNL     1       2.428   0.237   4.157  0.00  0.00    +0.134 A 
ATOM     11  N   UNL     1       2.408   1.617   4.160  0.00  0.00    -0.299 N 
ATOM     12  H   UNL     1       2.043   2.098   3.401  0.00  0.00    +0.154 HD
ENDROOT
BRANCH  11  13
ATOM     13  C   UNL     1       2.914   2.322   5.258  0.00  0.00    +0.036 A 
ATOM     14  C   UNL     1       2.312   3.506   5.660  0.00  0.00    +0.027 A 
ATOM     15  C   UNL     1       2.811   4.203   6.744  0.00  0.00    +0.051 A 
ATOM     16  C   UNL     1       3.913   3.722   7.433  0.00  0.00    +0.166 A 
ATOM     17  C   UNL     1       4.519   2.534   7.032  0.00  0.00    +0.168 A 
ATOM     18  C   UNL     1       4.016   1.833   5.949  0.00  0.00    +0.072 A 
ATOM     19  O   UNL     1       5.572   2.279   7.863  0.00  0.00    -0.453 OA
ATOM     20  C   UNL     1       5.854   3.529   8.520  0.00  0.00    +0.466 C 
ATOM     21  O   UNL     1       4.587   4.212   8.515  0.00  0.00    -0.453 OA
ENDBRANCH  11  13
BRANCH   1  23
ATOM     22  C   UNL     1       0.811   1.440  -0.374  0.00  0.00    +0.277 C 
ATOM     23  O   UNL     1       0.825   0.011  -0.381  0.00  0.00    -0.491 OA
ENDBRANCH   1  23
BRANCH   6  24
ATOM     24  O   UNL     1       0.896  -2.732  -0.274  0.00  0.00    -0.488 OA
BRANCH  24  25
ATOM     25  C   UNL     1       0.954  -4.155  -0.156  0.00  0.00    +0.230 C 
BRANCH  25  26
ATOM     26  C   UNL     1       0.494  -4.795  -1.468  0.00  0.00    +0.056 C 
BRANCH  26  27
ATOM     27  C   UNL     1       0.556  -6.318  -1.342  0.00  0.00    +0.088 C 
BRANCH  27  28
ATOM     28  N   UNL     1       0.115  -6.932  -2.602  0.00  0.00    -0.298 NA
ATOM     29  C   UNL     1      -1.310  -6.666  -2.846  0.00  0.00    +0.112 C 
ATOM     30  C   UNL     1      -1.713  -7.270  -4.194  0.00  0.00    +0.175 C 
ATOM     31  O   UNL     1      -1.417  -8.669  -4.191  0.00  0.00    -0.377 OA
ATOM     32  C   UNL     1      -0.037  -8.965  -3.956  0.00  0.00    +0.175 C 
ATOM     33  C   UNL     1       0.383  -8.377  -2.606  0.00  0.00    +0.112 C 
ENDBRANCH  27  28
ENDBRANCH  26  27
ENDBRANCH  25  26
ENDBRANCH  24  25
ENDBRANCH   6  24
TORSDOF 7
