REMARK  Name = CHEMBL404666
REMARK  6 active torsions:
REMARK  status: ('A' for Active; 'I' for Inactive)
REMARK    1  A    between atoms: C_1  and  C_2
REMARK    2  A    between atoms: C_2  and  C_3
REMARK    3  A    between atoms: C_2  and  C_4
REMARK    4  A    between atoms: C_2  and  N_5
REMARK    5  A    between atoms: N_7  and  C_15
REMARK    6  A    between atoms: C_8  and  N_14
REMARK                            x       y       z     vdW  Elec       q    Type
REMARK                         _______ _______ _______ _____ _____    ______ ____
ROOT
ATOM      1  N   UNL     1       0.957  -0.278  -1.186  0.00  0.00    -0.292 N 
ATOM      2  C   UNL     1       0.994  -1.750  -1.326  0.00  0.00    +0.222 C 
ATOM      3  N   UNL     1       2.239  -2.148  -1.995  0.00  0.00    -0.272 N 
ATOM      4  C   UNL     1       2.622  -1.516  -3.154  0.00  0.00    +0.101 C 
ATOM      5  C   UNL     1       2.210  -0.179  -3.288  0.00  0.00    +0.072 C 
ATOM      6  C   UNL     1       1.375   0.445  -2.309  0.00  0.00    +0.157 C 
ATOM      7  N   UNL     1       1.172   1.663  -2.716  0.00  0.00    -0.133 NA
ATOM      8  N   UNL     1       1.769   1.879  -3.838  0.00  0.00    -0.155 NA
ATOM      9  C   UNL     1       2.427   0.807  -4.250  0.00  0.00    +0.149 C 
ENDROOT
BRANCH   3  10
ATOM     10  C   UNL     1       3.031  -3.167  -1.456  0.00  0.00    +0.037 A 
ATOM     11  C   UNL     1       4.290  -2.874  -0.946  0.00  0.00    +0.025 A 
ATOM     12  C   UNL     1       5.070  -3.881  -0.413  0.00  0.00    +0.022 A 
ATOM     13  C   UNL     1       4.599  -5.182  -0.388  0.00  0.00    +0.041 A 
ATOM     14  C   UNL     1       3.346  -5.478  -0.895  0.00  0.00    +0.022 A 
ATOM     15  C   UNL     1       2.559  -4.473  -1.424  0.00  0.00    +0.025 A 
ATOM     16 CL   UNL     1       5.582  -6.447   0.282  0.00  0.00    -0.084 Cl
ENDBRANCH   3  10
BRANCH   1  18
ATOM     17  C   UNL     1       0.580   1.897  -0.133  0.00  0.00    +0.031 C 
ATOM     18  C   UNL     1       0.506   0.379   0.043  0.00  0.00    +0.029 C 
ATOM     19  C   UNL     1       1.407  -0.043   1.206  0.00  0.00    +0.031 C 
ATOM     20  C   UNL     1      -0.937  -0.031   0.341  0.00  0.00    +0.031 C 
ENDBRANCH   1  18
BRANCH   4  21
ATOM     21  N   UNL     1       3.355  -2.144  -4.110  0.00  0.00    -0.346 N 
ATOM     22  H   UNL     1       3.553  -3.090  -4.026  0.00  0.00    +0.143 HD
ATOM     23  H   UNL     1       3.680  -1.647  -4.877  0.00  0.00    +0.143 HD
ENDBRANCH   4  21
TORSDOF 3
