REMARK  Name = CHEMBL1086679
REMARK  9 active torsions:
REMARK  status: ('A' for Active; 'I' for Inactive)
REMARK    1  A    between atoms: C_1  and  O_2
REMARK    2  A    between atoms: O_2  and  C_3
REMARK    3  A    between atoms: C_5  and  N_11
REMARK    4  A    between atoms: N_11  and  C_12
REMARK    5  A    between atoms: C_15  and  C_24
REMARK    6  A    between atoms: C_21  and  C_22
REMARK    7  A    between atoms: C_25  and  C_26
REMARK    8  A    between atoms: C_26  and  C_27
REMARK    9  A    between atoms: C_27  and  N_28
REMARK                            x       y       z     vdW  Elec       q    Type
REMARK                         _______ _______ _______ _____ _____    ______ ____
ROOT
ATOM      1  C   UNL     1      -4.637   1.720  -0.235  0.00  0.00    +0.060 A 
ATOM      2  C   UNL     1      -5.781   2.525  -0.013  0.00  0.00    +0.023 A 
ATOM      3  C   UNL     1      -6.985   1.962   0.423  0.00  0.00    +0.019 A 
ATOM      4  C   UNL     1      -8.085   2.782   0.631  0.00  0.00    -0.025 A 
ATOM      5  C   UNL     1      -7.990   4.165   0.404  0.00  0.00    +0.010 A 
ATOM      6  C   UNL     1      -6.827   4.724  -0.020  0.00  0.00    +0.029 A 
ATOM      7  C   UNL     1      -5.695   3.920  -0.239  0.00  0.00    +0.073 A 
ATOM      8  N   UNL     1      -4.544   4.465  -0.657  0.00  0.00    -0.254 NA
ATOM      9  C   UNL     1      -3.471   3.746  -0.871  0.00  0.00    +0.132 A 
ATOM     10  C   UNL     1      -3.463   2.356  -0.667  0.00  0.00    +0.091 A 
ENDROOT
BRANCH   1  11
ATOM     11  N   UNL     1      -4.673   0.357  -0.029  0.00  0.00    -0.312 N 
ATOM     12  H   UNL     1      -5.520  -0.115  -0.054  0.00  0.00    +0.152 HD
BRANCH  11  15
ATOM     13  C   UNL     1      -1.843  -1.953  -0.467  0.00  0.00    +0.140 A 
ATOM     14  C   UNL     1      -3.017  -1.260  -0.714  0.00  0.00    +0.071 A 
ATOM     15  C   UNL     1      -3.489  -0.345   0.218  0.00  0.00    +0.053 A 
ATOM     16  C   UNL     1      -2.783  -0.128   1.396  0.00  0.00    +0.064 A 
ATOM     17  C   UNL     1      -1.613  -0.821   1.638  0.00  0.00    +0.045 A 
ATOM     18  C   UNL     1      -1.144  -1.736   0.713  0.00  0.00    +0.084 A 
ATOM     19 CL   UNL     1       0.323  -2.610   1.025  0.00  0.00    -0.080 Cl
ATOM     20 CL   UNL     1      -3.372   1.016   2.562  0.00  0.00    -0.082 Cl
BRANCH  13  22
ATOM     21  C   UNL     1      -2.082  -2.938  -2.618  0.00  0.00    +0.277 C 
ATOM     22  O   UNL     1      -1.378  -2.850  -1.377  0.00  0.00    -0.494 OA
ENDBRANCH  13  22
ENDBRANCH  11  15
ENDBRANCH   1  11
BRANCH  10  23
ATOM     23  C   UNL     1      -2.273   1.597  -0.903  0.00  0.00    +0.103 C 
ATOM     24  N   UNL     1      -1.328   0.994  -1.091  0.00  0.00    -0.191 NA
ENDBRANCH  10  23
BRANCH   4  25
ATOM     25  C   UNL     1      -9.361   2.197   1.091  0.00  0.00    +0.003 C 
ATOM     26  C   UNL     1     -10.414   2.978   1.290  0.00  0.00    -0.028 C 
BRANCH  26  27
ATOM     27  C   UNL     1     -11.716   2.382   1.760  0.00  0.00    +0.008 C 
BRANCH  27  28
ATOM     28  C   UNL     1     -12.171   3.093   3.036  0.00  0.00    -0.075 C 
BRANCH  28  29
ATOM     29  N   UNL     1     -13.440   2.511   3.494  0.00  0.00    +0.383 N 
ATOM     30  C   UNL     1     -14.490   2.785   2.503  0.00  0.00    -0.050 C 
ATOM     31  C   UNL     1     -15.811   2.178   2.982  0.00  0.00    +0.141 C 
ATOM     32  O   UNL     1     -16.143   2.723   4.263  0.00  0.00    -0.383 OA
ATOM     33  C   UNL     1     -15.139   2.503   5.257  0.00  0.00    +0.141 C 
ATOM     34  C   UNL     1     -13.817   3.110   4.782  0.00  0.00    -0.050 C 
ATOM     35  H   UNL     1     -13.333   1.514   3.605  0.00  0.00    -0.082 HD
ENDBRANCH  28  29
ENDBRANCH  27  28
ENDBRANCH  26  27
ENDBRANCH   4  25
TORSDOF 8
