REMARK  Name = CHEMBL418284
REMARK  10 active torsions:
REMARK  status: ('A' for Active; 'I' for Inactive)
REMARK    1  A    between atoms: C_1  and  C_2
REMARK    2  A    between atoms: N_7  and  C_8
REMARK    3  A    between atoms: C_8  and  C_9
REMARK    4  A    between atoms: C_9  and  C_10
REMARK    5  A    between atoms: C_10  and  N_11
REMARK    6  A    between atoms: C_17  and  C_30
REMARK    7  A    between atoms: N_25  and  C_26
REMARK    8  A    between atoms: C_26  and  C_27
REMARK    9  A    between atoms: C_26  and  C_28
REMARK   10  A    between atoms: C_26  and  C_29
REMARK                            x       y       z     vdW  Elec       q    Type
REMARK                         _______ _______ _______ _____ _____    ______ ____
ROOT
ATOM      1  N   UNL     1       0.989  -0.176   6.067  0.00  0.00    -0.313 N 
ATOM      2  C   UNL     1       0.577   0.219   7.326  0.00  0.00    +0.217 A 
ATOM      3  N   UNL     1      -0.534   0.946   7.434  0.00  0.00    -0.222 NA
ATOM      4  C   UNL     1      -0.977   1.352   8.607  0.00  0.00    +0.126 A 
ATOM      5  C   UNL     1      -0.249   1.001   9.756  0.00  0.00    +0.038 A 
ATOM      6  C   UNL     1      -0.656   1.395  11.042  0.00  0.00    +0.025 A 
ATOM      7  C   UNL     1       0.124   1.004  12.118  0.00  0.00    +0.026 A 
ATOM      8  C   UNL     1       1.284   0.234  11.891  0.00  0.00    +0.136 A 
ATOM      9  N   UNL     1       1.645  -0.123  10.676  0.00  0.00    -0.212 NA
ATOM     10  C   UNL     1       0.931   0.226   9.605  0.00  0.00    +0.167 A 
ATOM     11  N   UNL     1       1.296  -0.143   8.371  0.00  0.00    -0.195 NA
ATOM     12  N   UNL     1       2.062  -0.156  12.972  0.00  0.00    -0.254 N 
ATOM     13  C   UNL     1       3.173  -0.892  12.772  0.00  0.00    +0.305 C 
ATOM     14  O   UNL     1       3.494  -1.215  11.645  0.00  0.00    -0.252 OA
ATOM     15  N   UNL     1       3.928  -1.271  13.822  0.00  0.00    -0.294 N 
ATOM     16  H   UNL     1       1.793  -0.710   5.966  0.00  0.00    +0.149 HD
ATOM     17  H   UNL     1       1.806   0.101  13.872  0.00  0.00    +0.158 HD
ATOM     18  H   UNL     1       3.672  -1.014  14.722  0.00  0.00    +0.151 HD
ENDROOT
BRANCH   7  19
ATOM     19  C   UNL     1      -0.258   1.392  13.498  0.00  0.00    +0.022 A 
ATOM     20  C   UNL     1       0.208   2.588  14.043  0.00  0.00    +0.050 A 
ATOM     21  C   UNL     1      -0.152   2.944  15.328  0.00  0.00    +0.021 A 
ATOM     22  C   UNL     1      -0.972   2.117  16.074  0.00  0.00    +0.003 A 
ATOM     23  C   UNL     1      -1.437   0.929  15.539  0.00  0.00    +0.021 A 
ATOM     24  C   UNL     1      -1.089   0.565  14.253  0.00  0.00    +0.050 A 
ATOM     25 CL   UNL     1      -1.680  -0.923  13.581  0.00  0.00    -0.083 Cl
ATOM     26 CL   UNL     1       1.238   3.627  13.108  0.00  0.00    -0.083 Cl
ENDBRANCH   7  19
BRANCH  15  27
ATOM     27  C   UNL     1       5.136  -2.071  13.605  0.00  0.00    +0.028 C 
ATOM     28  C   UNL     1       6.107  -1.297  12.711  0.00  0.00    +0.031 C 
ATOM     29  C   UNL     1       5.803  -2.363  14.951  0.00  0.00    +0.031 C 
ATOM     30  C   UNL     1       4.759  -3.389  12.926  0.00  0.00    +0.031 C 
ENDBRANCH  15  27
BRANCH   1  31
ATOM     31  C   UNL     1       0.212   0.209   4.887  0.00  0.00    +0.102 C 
BRANCH  31  32
ATOM     32  C   UNL     1       0.881  -0.353   3.631  0.00  0.00    +0.000 C 
BRANCH  32  33
ATOM     33  C   UNL     1       0.070   0.050   2.397  0.00  0.00    -0.077 C 
BRANCH  33  40
ATOM     34  C   UNL     1      -0.019   1.526   0.010  0.00  0.00    -0.013 C 
ATOM     35  C   UNL     1       0.002  -0.004   0.002  0.00  0.00    -0.072 C 
ATOM     36  C   UNL     1       0.715  -0.497  -1.259  0.00  0.00    -0.016 C 
ATOM     37  C   UNL     1       0.733  -2.028  -1.263  0.00  0.00    -0.003 C 
ATOM     38  C   UNL     1       1.410  -2.524   0.018  0.00  0.00    -0.019 C 
ATOM     39  C   UNL     1       0.671  -1.956   1.232  0.00  0.00    -0.078 C 
ATOM     40  N   UNL     1       0.712  -0.490   1.191  0.00  0.00    +0.381 N 
ATOM     41  H   UNL     1       1.672  -0.182   1.158  0.00  0.00    -0.081 HD
ENDBRANCH  33  40
ENDBRANCH  32  33
ENDBRANCH  31  32
ENDBRANCH   1  31
TORSDOF 6
