REMARK  Name = CHEMBL1086860
REMARK  6 active torsions:
REMARK  status: ('A' for Active; 'I' for Inactive)
REMARK    1  A    between atoms: C_1  and  C_2
REMARK    2  A    between atoms: C_5  and  N_25
REMARK    3  A    between atoms: C_7  and  N_8
REMARK    4  A    between atoms: C_20  and  N_24
REMARK    5  A    between atoms: C_26  and  C_28
REMARK    6  A    between atoms: C_30  and  C_34
REMARK                            x       y       z     vdW  Elec       q    Type
REMARK                         _______ _______ _______ _____ _____    ______ ____
ROOT
ATOM      1  C   UNL     1      -3.304   0.614   0.969  0.00  0.00    +0.045 C 
ATOM      2  C   UNL     1      -3.010  -0.844   1.214  0.00  0.00    -0.029 A 
ATOM      3  C   UNL     1      -3.721  -1.814   0.535  0.00  0.00    +0.007 A 
ATOM      4  C   UNL     1      -3.456  -3.152   0.757  0.00  0.00    +0.024 A 
ATOM      5  C   UNL     1      -2.472  -3.525   1.665  0.00  0.00    +0.035 A 
ATOM      6  C   UNL     1      -1.756  -2.553   2.349  0.00  0.00    +0.047 A 
ATOM      7  C   UNL     1      -2.022  -1.210   2.119  0.00  0.00    +0.038 A 
ENDROOT
BRANCH   7   8
ATOM      8  N   UNL     1      -1.299  -0.227   2.802  0.00  0.00    -0.284 N 
ATOM      9  C   UNL     1      -0.195  -0.578   3.551  0.00  0.00    +0.207 A 
ATOM     10  N   UNL     1       0.333  -1.775   3.599  0.00  0.00    -0.214 NA
ATOM     11  C   UNL     1       1.407  -1.770   4.432  0.00  0.00    +0.091 A 
ATOM     12  C   UNL     1       2.311  -2.755   4.836  0.00  0.00    +0.030 A 
ATOM     13  C   UNL     1       3.321  -2.437   5.716  0.00  0.00    +0.002 A 
ATOM     14  C   UNL     1       3.448  -1.145   6.204  0.00  0.00    +0.002 A 
ATOM     15  C   UNL     1       2.562  -0.161   5.815  0.00  0.00    +0.028 A 
ATOM     16  C   UNL     1       1.540  -0.464   4.929  0.00  0.00    +0.077 A 
ATOM     17  N   UNL     1       0.517   0.275   4.352  0.00  0.00    -0.264 N 
ATOM     18  C   UNL     1       0.259   1.630   4.553  0.00  0.00    +0.145 A 
ATOM     19  C   UNL     1       0.011   2.468   3.472  0.00  0.00    +0.090 A 
ATOM     20  C   UNL     1      -0.241   3.814   3.725  0.00  0.00    +0.121 A 
ATOM     21  N   UNL     1      -0.234   4.246   4.984  0.00  0.00    -0.221 NA
ATOM     22  C   UNL     1       0.006   3.420   5.981  0.00  0.00    +0.225 A 
ATOM     23  N   UNL     1       0.243   2.139   5.782  0.00  0.00    -0.218 NA
ATOM     24  H   UNL     1      -1.574   0.702   2.749  0.00  0.00    +0.155 HD
BRANCH  20  25
ATOM     25  N   UNL     1      -0.494   4.690   2.681  0.00  0.00    -0.343 N 
ATOM     26  H   UNL     1      -0.497   4.367   1.766  0.00  0.00    +0.144 HD
ATOM     27  H   UNL     1      -0.669   5.626   2.865  0.00  0.00    +0.144 HD
ENDBRANCH  20  25
ENDBRANCH   7   8
BRANCH   5  28
ATOM     28  N   UNL     1      -2.205  -4.879   1.890  0.00  0.00    -0.280 N 
ATOM     29  C   UNL     1      -2.337  -5.768   0.886  0.00  0.00    +0.268 C 
ATOM     30  O   UNL     1      -2.596  -5.382  -0.238  0.00  0.00    -0.268 OA
ATOM     31  H   UNL     1      -1.924  -5.178   2.769  0.00  0.00    +0.155 HD
BRANCH  29  32
ATOM     32  C   UNL     1      -2.169  -7.211   1.150  0.00  0.00    +0.147 A 
ATOM     33  C   UNL     1      -2.271  -8.258   0.203  0.00  0.00    +0.057 A 
ATOM     34  C   UNL     1      -2.042  -9.397   0.898  0.00  0.00    +0.040 A 
ATOM     35  N   UNL     1      -1.817  -9.045   2.182  0.00  0.00    -0.281 N 
ATOM     36  N   UNL     1      -1.889  -7.769   2.311  0.00  0.00    -0.169 NA
ATOM     37  H   UNL     1      -1.625  -9.665   2.902  0.00  0.00    +0.189 HD
BRANCH  34  38
ATOM     38  C   UNL     1      -2.039 -10.798   0.342  0.00  0.00    +0.037 C 
ATOM     39  C   UNL     1      -2.537 -11.921   1.254  0.00  0.00    +0.010 C 
ATOM     40  C   UNL     1      -1.045 -11.794   0.942  0.00  0.00    +0.010 C 
ENDBRANCH  34  38
ENDBRANCH  29  32
ENDBRANCH   5  28
TORSDOF 5
