REMARK  Name = CHEMBL1083023
REMARK  6 active torsions:
REMARK  status: ('A' for Active; 'I' for Inactive)
REMARK    1  A    between atoms: C_1  and  N_2
REMARK    2  A    between atoms: N_5  and  C_8
REMARK    3  A    between atoms: C_11  and  C_14
REMARK    4  A    between atoms: C_21  and  C_24
REMARK    5  A    between atoms: C_22  and  N_23
REMARK    6  A    between atoms: C_28  and  O_30
REMARK                            x       y       z     vdW  Elec       q    Type
REMARK                         _______ _______ _______ _____ _____    ______ ____
ROOT
ATOM      1  C   UNL     1      -2.375  -6.737   4.296  0.00  0.00    +0.046 A 
ATOM      2  C   UNL     1      -3.557  -6.732   5.047  0.00  0.00    +0.145 A 
ATOM      3  N   UNL     1      -3.652  -7.866   5.696  0.00  0.00    -0.171 NA
ATOM      4  N   UNL     1      -2.539  -8.660   5.400  0.00  0.00    -0.200 N 
ATOM      5  C   UNL     1      -1.744  -7.966   4.525  0.00  0.00    +0.165 A 
ATOM      6  N   UNL     1      -0.604  -8.492   4.063  0.00  0.00    -0.235 NA
ATOM      7  C   UNL     1      -0.206  -9.690   4.427  0.00  0.00    +0.125 A 
ATOM      8  C   UNL     1      -0.981 -10.451   5.319  0.00  0.00    +0.040 A 
ATOM      9  C   UNL     1      -2.165  -9.912   5.811  0.00  0.00    +0.129 A 
ENDROOT
BRANCH   1  13
ATOM     10  C   UNL     1      -0.972  -3.611   1.778  0.00  0.00    +0.030 A 
ATOM     11  C   UNL     1      -2.280  -4.064   1.657  0.00  0.00    +0.024 A 
ATOM     12  C   UNL     1      -2.738  -5.078   2.473  0.00  0.00    +0.010 A 
ATOM     13  C   UNL     1      -1.886  -5.648   3.418  0.00  0.00    -0.013 A 
ATOM     14  C   UNL     1      -0.574  -5.191   3.537  0.00  0.00    +0.010 A 
ATOM     15  C   UNL     1      -0.120  -4.181   2.715  0.00  0.00    +0.024 A 
BRANCH  10  20
ATOM     16  C   UNL     1      -0.038   1.464  -0.002  0.00  0.00    -0.096 C 
ATOM     17  N   UNL     1      -0.008  -0.004  -0.004  0.00  0.00    +0.380 N 
ATOM     18  C   UNL     1      -1.383  -0.520  -0.014  0.00  0.00    -0.060 C 
ATOM     19  C   UNL     1      -1.352  -2.048  -0.132  0.00  0.00    +0.086 C 
ATOM     20  N   UNL     1      -0.511  -2.583   0.950  0.00  0.00    -0.333 N 
ATOM     21  C   UNL     1       0.828  -2.005   1.137  0.00  0.00    +0.086 C 
ATOM     22  C   UNL     1       0.695  -0.479   1.195  0.00  0.00    -0.060 C 
ATOM     23  H   UNL     1       0.477  -0.328  -0.827  0.00  0.00    -0.082 HD
ENDBRANCH  10  20
ENDBRANCH   1  13
BRANCH   8  24
ATOM     24  C   UNL     1      -0.540 -11.804   5.734  0.00  0.00    -0.010 A 
ATOM     25  C   UNL     1      -0.211 -12.055   7.066  0.00  0.00    +0.009 A 
ATOM     26  C   UNL     1       0.200 -13.315   7.450  0.00  0.00    +0.004 A 
ATOM     27  C   UNL     1       0.286 -14.332   6.517  0.00  0.00    +0.045 A 
ATOM     28  C   UNL     1      -0.040 -14.092   5.189  0.00  0.00    +0.117 A 
ATOM     29  C   UNL     1      -0.459 -12.831   4.796  0.00  0.00    +0.054 A 
BRANCH  28  30
ATOM     30  O   UNL     1       0.046 -15.095   4.276  0.00  0.00    -0.507 OA
ATOM     31  H   UNL     1      -0.767 -15.608   4.178  0.00  0.00    +0.292 HD
ENDBRANCH  28  30
ENDBRANCH   8  24
BRANCH   9  32
ATOM     32  N   UNL     1      -2.951 -10.626   6.684  0.00  0.00    -0.343 N 
ATOM     33  H   UNL     1      -3.780 -10.245   7.015  0.00  0.00    +0.144 HD
ATOM     34  H   UNL     1      -2.678 -11.512   6.970  0.00  0.00    +0.144 HD
ENDBRANCH   9  32
TORSDOF 5
