REMARK  Name = CHEMBL67812
REMARK  9 active torsions:
REMARK  status: ('A' for Active; 'I' for Inactive)
REMARK    1  A    between atoms: C_1  and  O_2
REMARK    2  A    between atoms: O_2  and  C_3
REMARK    3  A    between atoms: C_8  and  C_9
REMARK    4  A    between atoms: C_10  and  C_11
REMARK    5  A    between atoms: C_19  and  C_32
REMARK    6  A    between atoms: C_20  and  N_21
REMARK    7  A    between atoms: N_21  and  C_22
REMARK    8  A    between atoms: C_24  and  O_30
REMARK    9  A    between atoms: O_30  and  C_31
REMARK                            x       y       z     vdW  Elec       q    Type
REMARK                         _______ _______ _______ _____ _____    ______ ____
ROOT
ATOM      1  C   UNL     1      -0.103  -0.401  -1.406  0.00  0.00    +0.128 A 
ATOM      2  C   UNL     1       0.679   0.301  -2.276  0.00  0.00    +0.058 A 
ATOM      3  C   UNL     1       1.382  -0.371  -3.287  0.00  0.00    +0.026 A 
ATOM      4  C   UNL     1       1.280  -1.780  -3.407  0.00  0.00    +0.074 A 
ATOM      5  C   UNL     1       0.473  -2.488  -2.508  0.00  0.00    +0.040 A 
ATOM      6  C   UNL     1      -0.209  -1.804  -1.511  0.00  0.00    +0.019 A 
ATOM      7  N   UNL     1       1.952  -2.425  -4.373  0.00  0.00    -0.254 NA
ATOM      8  C   UNL     1       2.714  -1.794  -5.229  0.00  0.00    +0.132 A 
ATOM      9  C   UNL     1       2.873  -0.399  -5.183  0.00  0.00    +0.091 A 
ATOM     10  C   UNL     1       2.199   0.338  -4.198  0.00  0.00    +0.060 A 
ENDROOT
BRANCH   1  12
ATOM     11  C   UNL     1      -0.632   1.675  -0.377  0.00  0.00    +0.277 C 
ATOM     12  O   UNL     1      -0.781   0.255  -0.428  0.00  0.00    -0.495 OA
ENDBRANCH   1  12
BRANCH   6  13
ATOM     13  C   UNL     1      -1.052  -2.546  -0.560  0.00  0.00    +0.012 C 
ATOM     14  C   UNL     1      -1.156  -3.882  -0.656  0.00  0.00    +0.010 C 
BRANCH  14  15
ATOM     15  C   UNL     1      -2.000  -4.626   0.296  0.00  0.00    -0.007 A 
ATOM     16  C   UNL     1      -2.113  -6.021   0.211  0.00  0.00    +0.011 A 
ATOM     17  C   UNL     1      -2.918  -6.670   1.128  0.00  0.00    +0.020 A 
ATOM     18  C   UNL     1      -3.581  -5.930   2.092  0.00  0.00    +0.111 A 
ATOM     19  N   UNL     1      -3.458  -4.618   2.148  0.00  0.00    -0.263 NA
ATOM     20  C   UNL     1      -2.698  -3.953   1.302  0.00  0.00    +0.118 A 
ENDBRANCH  14  15
ENDBRANCH   6  13
BRANCH  10  21
ATOM     21  N   UNL     1       2.329   1.710  -4.121  0.00  0.00    -0.312 N 
ATOM     22  H   UNL     1       2.146   2.168  -3.285  0.00  0.00    +0.152 HD
BRANCH  21  23
ATOM     23  C   UNL     1       2.724   2.440  -5.246  0.00  0.00    +0.053 A 
ATOM     24  C   UNL     1       3.955   3.080  -5.262  0.00  0.00    +0.071 A 
ATOM     25  C   UNL     1       4.344   3.802  -6.379  0.00  0.00    +0.140 A 
ATOM     26  C   UNL     1       3.501   3.885  -7.480  0.00  0.00    +0.084 A 
ATOM     27  C   UNL     1       2.274   3.247  -7.463  0.00  0.00    +0.045 A 
ATOM     28  C   UNL     1       1.886   2.520  -6.353  0.00  0.00    +0.064 A 
ATOM     29 CL   UNL     1       0.348   1.715  -6.337  0.00  0.00    -0.082 Cl
ATOM     30 CL   UNL     1       3.988   4.790  -8.879  0.00  0.00    -0.080 Cl
BRANCH  25  31
ATOM     31  O   UNL     1       5.549   4.430  -6.397  0.00  0.00    -0.494 OA
ATOM     32  C   UNL     1       6.413   4.209  -5.280  0.00  0.00    +0.277 C 
ENDBRANCH  25  31
ENDBRANCH  21  23
ENDBRANCH  10  21
BRANCH   9  33
ATOM     33  C   UNL     1       3.715   0.264  -6.133  0.00  0.00    +0.103 C 
ATOM     34  N   UNL     1       4.383   0.790  -6.887  0.00  0.00    -0.191 NA
ENDBRANCH   9  33
TORSDOF 7
