REMARK  Name = CHEMBL190162
REMARK  13 active torsions:
REMARK  status: ('A' for Active; 'I' for Inactive)
REMARK    1  A    between atoms: C_1  and  C_2
REMARK    2  A    between atoms: C_2  and  N_3
REMARK    3  A    between atoms: C_8  and  C_27
REMARK    4  A    between atoms: C_13  and  N_17
REMARK    5  A    between atoms: N_17  and  C_18
REMARK    6  A    between atoms: C_18  and  C_19
REMARK    7  A    between atoms: C_19  and  C_20
REMARK    8  A    between atoms: C_20  and  C_21
REMARK    9  A    between atoms: C_21  and  N_22
REMARK   10  A    between atoms: N_22  and  C_23
REMARK   11  A    between atoms: N_22  and  C_25
REMARK   12  A    between atoms: C_23  and  C_24
REMARK   13  A    between atoms: C_25  and  C_26
REMARK                            x       y       z     vdW  Elec       q    Type
REMARK                         _______ _______ _______ _____ _____    ______ ____
ROOT
ATOM      1  N   UNL     1       0.559   0.808   2.017  0.00  0.00    -0.299 N 
ATOM      2  C   UNL     1       0.059  -0.426   1.808  0.00  0.00    +0.305 C 
ATOM      3  O   UNL     1       0.810  -1.359   1.601  0.00  0.00    -0.252 OA
ATOM      4  N   UNL     1      -1.274  -0.625   1.830  0.00  0.00    -0.254 N 
ATOM      5  C   UNL     1      -1.789  -1.897   1.615  0.00  0.00    +0.135 A 
ATOM      6  C   UNL     1      -3.188  -2.087   1.636  0.00  0.00    +0.026 A 
ATOM      7  C   UNL     1      -3.709  -3.353   1.422  0.00  0.00    +0.023 A 
ATOM      8  C   UNL     1      -2.808  -4.407   1.191  0.00  0.00    +0.019 A 
ATOM      9  C   UNL     1      -3.249  -5.719   0.965  0.00  0.00    +0.123 A 
ATOM     10  N   UNL     1      -2.380  -6.680   0.752  0.00  0.00    -0.240 NA
ATOM     11  C   UNL     1      -1.066  -6.466   0.740  0.00  0.00    +0.121 A 
ATOM     12  C   UNL     1      -0.536  -5.209   0.952  0.00  0.00    +0.071 A 
ATOM     13  C   UNL     1      -1.413  -4.138   1.185  0.00  0.00    +0.078 A 
ATOM     14  N   UNL     1      -0.963  -2.897   1.392  0.00  0.00    -0.231 NA
ATOM     15  H   UNL     1      -0.040   1.553   2.182  0.00  0.00    +0.150 HD
ATOM     16  H   UNL     1      -1.873   0.119   1.996  0.00  0.00    +0.158 HD
ENDROOT
BRANCH   6  17
ATOM     17  C   UNL     1      -4.094  -0.940   1.885  0.00  0.00    +0.022 A 
ATOM     18  C   UNL     1      -4.573  -0.182   0.817  0.00  0.00    +0.050 A 
ATOM     19  C   UNL     1      -5.417   0.885   1.055  0.00  0.00    +0.021 A 
ATOM     20  C   UNL     1      -5.786   1.203   2.350  0.00  0.00    +0.003 A 
ATOM     21  C   UNL     1      -5.314   0.455   3.413  0.00  0.00    +0.021 A 
ATOM     22  C   UNL     1      -4.474  -0.619   3.187  0.00  0.00    +0.050 A 
ATOM     23 CL   UNL     1      -3.889  -1.561   4.523  0.00  0.00    -0.083 Cl
ATOM     24 CL   UNL     1      -4.110  -0.578  -0.809  0.00  0.00    -0.083 Cl
ENDBRANCH   6  17
BRANCH   1  26
ATOM     25  C   UNL     1       2.307   2.502   2.256  0.00  0.00    +0.024 C 
ATOM     26  C   UNL     1       2.008   1.025   1.993  0.00  0.00    +0.102 C 
ENDBRANCH   1  26
BRANCH  11  27
ATOM     27  N   UNL     1      -0.207  -7.534   0.508  0.00  0.00    -0.329 N 
ATOM     28  H   UNL     1      -0.567  -8.422   0.357  0.00  0.00    +0.147 HD
BRANCH  27  29
ATOM     29  C   UNL     1       1.242  -7.318   0.490  0.00  0.00    +0.103 C 
BRANCH  29  30
ATOM     30  C   UNL     1       1.952  -8.646   0.216  0.00  0.00    +0.017 C 
BRANCH  30  31
ATOM     31  C   UNL     1       3.465  -8.421   0.198  0.00  0.00    -0.017 C 
BRANCH  31  32
ATOM     32  C   UNL     1       4.175  -9.748  -0.076  0.00  0.00    -0.079 C 
BRANCH  32  33
ATOM     33  N   UNL     1       5.628  -9.532  -0.093  0.00  0.00    +0.379 N 
ATOM     34  H   UNL     1       5.852  -8.810  -0.762  0.00  0.00    -0.082 HD
BRANCH  33  35
ATOM     35  C   UNL     1       6.078  -9.119   1.243  0.00  0.00    -0.082 C 
ATOM     36  C   UNL     1       7.563  -8.756   1.191  0.00  0.00    -0.017 C 
ENDBRANCH  33  35
BRANCH  33  37
ATOM     37  C   UNL     1       6.304 -10.779  -0.474  0.00  0.00    -0.082 C 
ATOM     38  C   UNL     1       5.946 -11.133  -1.919  0.00  0.00    -0.017 C 
ENDBRANCH  33  37
ENDBRANCH  32  33
ENDBRANCH  31  32
ENDBRANCH  30  31
ENDBRANCH  29  30
ENDBRANCH  27  29
ENDBRANCH  11  27
TORSDOF 10
