REMARK  Name = CHEMBL112706
REMARK  6 active torsions:
REMARK  status: ('A' for Active; 'I' for Inactive)
REMARK    1  A    between atoms: C_1  and  N_2
REMARK    2  A    between atoms: C_6  and  C_9
REMARK    3  A    between atoms: N_21  and  C_22
REMARK    4  A    between atoms: C_25  and  C_28
REMARK    5  A    between atoms: C_28  and  N_29
REMARK    6  A    between atoms: N_32  and  C_35
REMARK                            x       y       z     vdW  Elec       q    Type
REMARK                         _______ _______ _______ _____ _____    ______ ____
ROOT
ATOM      1  C   UNL     1       0.050   1.229   0.103  0.00  0.00    +0.154 C 
ATOM      2  N   UNL     1      -0.056   0.017  -0.713  0.00  0.00    -0.295 N 
ATOM      3  C   UNL     1      -1.284  -0.566  -0.907  0.00  0.00    +0.148 A 
ATOM      4  C   UNL     1      -1.404  -1.734  -1.690  0.00  0.00    +0.037 A 
ATOM      5  C   UNL     1      -0.259  -2.313  -2.283  0.00  0.00    +0.027 A 
ATOM      6  C   UNL     1       0.962  -1.726  -2.084  0.00  0.00    +0.050 A 
ATOM      7  C   UNL     1       1.050  -0.511  -1.269  0.00  0.00    +0.260 A 
ATOM      8  O   UNL     1       2.132   0.021  -1.091  0.00  0.00    -0.267 OA
ATOM      9  C   UNL     1      -2.677  -2.297  -1.865  0.00  0.00    +0.126 A 
ATOM     10  N   UNL     1      -3.710  -1.712  -1.288  0.00  0.00    -0.222 NA
ATOM     11  C   UNL     1      -3.560  -0.614  -0.557  0.00  0.00    +0.221 A 
ATOM     12  N   UNL     1      -2.379  -0.046  -0.365  0.00  0.00    -0.196 NA
ATOM     13  N   UNL     1      -4.676  -0.042   0.024  0.00  0.00    -0.284 N 
ATOM     14  H   UNL     1      -4.599   0.803   0.492  0.00  0.00    +0.155 HD
ENDROOT
BRANCH   6  15
ATOM     15  C   UNL     1       2.181  -2.309  -2.691  0.00  0.00    +0.024 A 
ATOM     16  C   UNL     1       2.920  -3.267  -1.995  0.00  0.00    +0.050 A 
ATOM     17  C   UNL     1       4.055  -3.808  -2.567  0.00  0.00    +0.021 A 
ATOM     18  C   UNL     1       4.460  -3.401  -3.825  0.00  0.00    +0.003 A 
ATOM     19  C   UNL     1       3.732  -2.452  -4.520  0.00  0.00    +0.021 A 
ATOM     20  C   UNL     1       2.591  -1.908  -3.962  0.00  0.00    +0.050 A 
ATOM     21 CL   UNL     1       1.675  -0.722  -4.838  0.00  0.00    -0.083 Cl
ATOM     22 CL   UNL     1       2.414  -3.778  -0.415  0.00  0.00    -0.083 Cl
ENDBRANCH   6  15
BRANCH  13  23
ATOM     23  C   UNL     1      -5.915  -0.683  -0.065  0.00  0.00    +0.034 A 
ATOM     24  C   UNL     1      -5.983  -2.071  -0.061  0.00  0.00    +0.023 A 
ATOM     25  C   UNL     1      -7.209  -2.701  -0.148  0.00  0.00    +0.007 A 
ATOM     26  C   UNL     1      -8.368  -1.952  -0.240  0.00  0.00    -0.033 A 
ATOM     27  C   UNL     1      -8.304  -0.570  -0.245  0.00  0.00    +0.007 A 
ATOM     28  C   UNL     1      -7.082   0.066  -0.151  0.00  0.00    +0.023 A 
BRANCH  26  29
ATOM     29  C   UNL     1      -9.704  -2.643  -0.336  0.00  0.00    +0.119 C 
BRANCH  29  30
ATOM     30  N   UNL     1     -10.241  -2.858   1.014  0.00  0.00    -0.302 NA
ATOM     31  C   UNL     1      -9.413  -3.812   1.765  0.00  0.00    +0.066 C 
ATOM     32  C   UNL     1      -9.971  -3.963   3.182  0.00  0.00    -0.064 C 
ATOM     33  N   UNL     1     -11.359  -4.441   3.113  0.00  0.00    +0.379 N 
ATOM     34  C   UNL     1     -12.178  -3.466   2.382  0.00  0.00    -0.064 C 
ATOM     35  C   UNL     1     -11.639  -3.311   0.959  0.00  0.00    +0.066 C 
ATOM     36  C   UNL     1     -11.888  -4.603   4.474  0.00  0.00    -0.096 C 
ATOM     37  H   UNL     1     -11.385  -5.329   2.635  0.00  0.00    -0.082 HD
ENDBRANCH  29  30
ENDBRANCH  26  29
ENDBRANCH  13  23
TORSDOF 4
