REMARK  Name = CHEMBL439182
REMARK  5 active torsions:
REMARK  status: ('A' for Active; 'I' for Inactive)
REMARK    1  A    between atoms: C_1  and  N_2
REMARK    2  A    between atoms: C_5  and  C_8
REMARK    3  A    between atoms: C_8  and  O_9
REMARK    4  A    between atoms: O_9  and  C_10
REMARK    5  A    between atoms: N_20  and  C_21
REMARK                            x       y       z     vdW  Elec       q    Type
REMARK                         _______ _______ _______ _____ _____    ______ ____
ROOT
ATOM      1  C   UNL     1       0.429  -5.758   2.002  0.00  0.00    +0.133 A 
ATOM      2  C   UNL     1       0.152  -6.359   0.790  0.00  0.00    +0.046 A 
ATOM      3  C   UNL     1       1.175  -6.661  -0.101  0.00  0.00    +0.006 A 
ATOM      4  C   UNL     1       2.475  -6.375   0.194  0.00  0.00    +0.029 A 
ATOM      5  C   UNL     1       2.795  -5.766   1.414  0.00  0.00    +0.080 A 
ATOM      6  C   UNL     1       1.759  -5.449   2.326  0.00  0.00    +0.082 A 
ATOM      7  C   UNL     1       2.110  -4.829   3.548  0.00  0.00    +0.138 A 
ATOM      8  N   UNL     1       3.392  -4.571   3.775  0.00  0.00    -0.220 NA
ATOM      9  C   UNL     1       4.326  -4.880   2.890  0.00  0.00    +0.223 A 
ATOM     10  N   UNL     1       4.061  -5.466   1.747  0.00  0.00    -0.235 NA
ATOM     11  N   UNL     1       1.146  -4.501   4.478  0.00  0.00    -0.295 N 
ATOM     12  H   UNL     1       0.224  -4.766   4.335  0.00  0.00    +0.154 HD
ENDROOT
BRANCH  11  13
ATOM     13  C   UNL     1       1.499  -3.785   5.629  0.00  0.00    +0.097 A 
ATOM     14  C   UNL     1       1.776  -4.461   6.811  0.00  0.00    +0.066 A 
ATOM     15  C   UNL     1       2.124  -3.754   7.947  0.00  0.00    +0.025 A 
ATOM     16  C   UNL     1       2.197  -2.373   7.912  0.00  0.00    +0.051 A 
ATOM     17  C   UNL     1       1.922  -1.691   6.737  0.00  0.00    +0.168 A 
ATOM     18  C   UNL     1       1.578  -2.397   5.590  0.00  0.00    +0.189 A 
ATOM     19  O   UNL     1       1.365  -1.507   4.576  0.00  0.00    -0.451 OA
ATOM     20  C   UNL     1       1.190  -0.229   5.217  0.00  0.00    +0.466 C 
ATOM     21  O   UNL     1       1.923  -0.357   6.445  0.00  0.00    -0.453 OA
ATOM     22 CL   UNL     1       1.684  -6.194   6.862  0.00  0.00    -0.081 Cl
ENDBRANCH  11  13
BRANCH   1  23
ATOM     23  O   UNL     1      -0.574  -5.466   2.867  0.00  0.00    -0.491 OA
BRANCH  23  24
ATOM     24  C   UNL     1      -1.901  -5.812   2.464  0.00  0.00    +0.232 C 
BRANCH  24  29
ATOM     25  C   UNL     1      -6.287  -3.494   5.276  0.00  0.00    -0.096 C 
ATOM     26  N   UNL     1      -5.275  -3.949   4.314  0.00  0.00    +0.378 N 
ATOM     27  C   UNL     1      -5.289  -5.415   4.247  0.00  0.00    -0.079 C 
ATOM     28  C   UNL     1      -4.294  -5.891   3.186  0.00  0.00    -0.012 C 
ATOM     29  C   UNL     1      -2.889  -5.409   3.560  0.00  0.00    +0.023 C 
ATOM     30  C   UNL     1      -2.904  -3.884   3.700  0.00  0.00    -0.012 C 
ATOM     31  C   UNL     1      -3.951  -3.482   4.741  0.00  0.00    -0.079 C 
ATOM     32  H   UNL     1      -5.485  -3.570   3.402  0.00  0.00    -0.082 HD
ENDBRANCH  24  29
ENDBRANCH  23  24
ENDBRANCH   1  23
TORSDOF 4
