REMARK  Name = CHEMBL171373
REMARK  8 active torsions:
REMARK  status: ('A' for Active; 'I' for Inactive)
REMARK    1  A    between atoms: C_1  and  O_2
REMARK    2  A    between atoms: O_2  and  C_3
REMARK    3  A    between atoms: C_8  and  O_9
REMARK    4  A    between atoms: O_9  and  C_10
REMARK    5  A    between atoms: C_10  and  C_11
REMARK    6  A    between atoms: C_11  and  C_12
REMARK    7  A    between atoms: C_12  and  N_13
REMARK    8  A    between atoms: N_23  and  C_24
REMARK                            x       y       z     vdW  Elec       q    Type
REMARK                         _______ _______ _______ _____ _____    ______ ____
ROOT
ATOM      1  C   UNL     1      -0.025  -0.541  -1.454  0.00  0.00    +0.162 A 
ATOM      2  C   UNL     1       0.737   0.202  -2.310  0.00  0.00    +0.062 A 
ATOM      3  C   UNL     1       1.381  -0.423  -3.385  0.00  0.00    +0.044 A 
ATOM      4  C   UNL     1       1.240  -1.820  -3.578  0.00  0.00    +0.080 A 
ATOM      5  C   UNL     1       0.454  -2.562  -2.688  0.00  0.00    +0.078 A 
ATOM      6  C   UNL     1      -0.165  -1.924  -1.635  0.00  0.00    +0.164 A 
ATOM      7  N   UNL     1       1.868  -2.394  -4.615  0.00  0.00    -0.235 NA
ATOM      8  C   UNL     1       2.598  -1.673  -5.433  0.00  0.00    +0.223 A 
ATOM      9  N   UNL     1       2.759  -0.367  -5.292  0.00  0.00    -0.220 NA
ATOM     10  C   UNL     1       2.182   0.299  -4.301  0.00  0.00    +0.134 A 
ATOM     11  N   UNL     1       2.359   1.662  -4.166  0.00  0.00    -0.296 N 
ATOM     12  H   UNL     1       2.011   2.121  -3.386  0.00  0.00    +0.154 HD
ENDROOT
BRANCH  11  13
ATOM     13  C   UNL     1       3.039   2.381  -5.157  0.00  0.00    +0.075 A 
ATOM     14  C   UNL     1       3.098   1.889  -6.451  0.00  0.00    +0.027 A 
ATOM     15  C   UNL     1       3.768   2.593  -7.433  0.00  0.00    +0.002 A 
ATOM     16  C   UNL     1       4.386   3.791  -7.122  0.00  0.00    +0.007 A 
ATOM     17  C   UNL     1       4.332   4.283  -5.835  0.00  0.00    -0.001 A 
ATOM     18  C   UNL     1       3.653   3.596  -4.839  0.00  0.00    +0.145 A 
ATOM     19  O   UNL     1       3.700   4.269  -3.655  0.00  0.00    -0.490 OA
ATOM     20  C   UNL     1       4.778   5.218  -3.693  0.00  0.00    +0.234 C 
ATOM     21  C   UNL     1       4.907   5.534  -5.199  0.00  0.00    +0.080 C 
ENDBRANCH  11  13
BRANCH   1  23
ATOM     22  C   UNL     1      -0.469   1.478  -0.279  0.00  0.00    +0.277 C 
ATOM     23  O   UNL     1      -0.650   0.067  -0.410  0.00  0.00    -0.491 OA
ENDBRANCH   1  23
BRANCH   6  24
ATOM     24  O   UNL     1      -0.924  -2.642  -0.766  0.00  0.00    -0.488 OA
BRANCH  24  25
ATOM     25  C   UNL     1      -1.028  -4.047  -1.004  0.00  0.00    +0.227 C 
BRANCH  25  26
ATOM     26  C   UNL     1      -1.916  -4.682   0.068  0.00  0.00    +0.022 C 
BRANCH  26  27
ATOM     27  C   UNL     1      -2.027  -6.186  -0.187  0.00  0.00    -0.075 C 
BRANCH  27  28
ATOM     28  N   UNL     1      -2.879  -6.795   0.843  0.00  0.00    +0.383 N 
ATOM     29  C   UNL     1      -2.228  -6.671   2.154  0.00  0.00    -0.050 C 
ATOM     30  C   UNL     1      -3.119  -7.307   3.225  0.00  0.00    +0.141 C 
ATOM     31  O   UNL     1      -3.361  -8.675   2.886  0.00  0.00    -0.383 OA
ATOM     32  C   UNL     1      -3.973  -8.849   1.605  0.00  0.00    +0.141 C 
ATOM     33  C   UNL     1      -3.084  -8.217   0.531  0.00  0.00    -0.050 C 
ATOM     34  H   UNL     1      -3.771  -6.324   0.864  0.00  0.00    -0.082 HD
ENDBRANCH  27  28
ENDBRANCH  26  27
ENDBRANCH  25  26
ENDBRANCH  24  25
ENDBRANCH   6  24
TORSDOF 7
