REMARK  Name = CHEMBL355019
REMARK  8 active torsions:
REMARK  status: ('A' for Active; 'I' for Inactive)
REMARK    1  A    between atoms: C_1  and  O_2
REMARK    2  A    between atoms: O_2  and  C_3
REMARK    3  A    between atoms: C_3  and  C_5
REMARK    4  A    between atoms: C_5  and  N_6
REMARK    5  A    between atoms: C_9  and  N_11
REMARK    6  A    between atoms: C_13  and  C_21
REMARK    7  A    between atoms: C_19  and  N_20
REMARK    8  A    between atoms: C_25  and  O_27
REMARK                            x       y       z     vdW  Elec       q    Type
REMARK                         _______ _______ _______ _____ _____    ______ ____
ROOT
ATOM      1  N   UNL     1       2.986  -5.590   3.393  0.00  0.00    -0.330 N 
ATOM      2  C   UNL     1       2.653  -5.525   4.718  0.00  0.00    +0.097 A 
ATOM      3  C   UNL     1       2.937  -6.707   5.319  0.00  0.00    +0.012 A 
ATOM      4  C   UNL     1       3.494  -7.580   4.278  0.00  0.00    +0.066 A 
ATOM      5  C   UNL     1       3.494  -6.826   3.092  0.00  0.00    +0.147 A 
ATOM      6  N   UNL     1       3.950  -7.393   1.977  0.00  0.00    -0.218 NA
ATOM      7  C   UNL     1       4.389  -8.634   1.985  0.00  0.00    +0.225 A 
ATOM      8  N   UNL     1       4.402  -9.378   3.076  0.00  0.00    -0.220 NA
ATOM      9  C   UNL     1       3.975  -8.896   4.240  0.00  0.00    +0.129 A 
ENDROOT
BRANCH   1  13
ATOM     10  N   UNL     1       1.400  -2.529   2.299  0.00  0.00    +0.388 N 
ATOM     11  C   UNL     1       2.813  -2.104   2.206  0.00  0.00    -0.076 C 
ATOM     12  C   UNL     1       3.614  -3.244   2.883  0.00  0.00    +0.005 C 
ATOM     13  C   UNL     1       2.818  -4.497   2.433  0.00  0.00    +0.070 C 
ATOM     14  C   UNL     1       1.358  -3.997   2.425  0.00  0.00    -0.053 C 
ATOM     15  H   UNL     1       0.974  -2.107   3.110  0.00  0.00    -0.081 HD
BRANCH  10  16
ATOM     16  C   UNL     1       0.679  -2.115   1.088  0.00  0.00    +0.044 C 
BRANCH  16  17
ATOM     17  C   UNL     1       0.618  -0.611   1.029  0.00  0.00    +0.290 C 
ATOM     18  O   UNL     1       1.124   0.049   1.905  0.00  0.00    -0.253 OA
BRANCH  17  20
ATOM     19  C   UNL     1      -0.017   1.425   0.010  0.00  0.00    +0.280 C 
ATOM     20  O   UNL     1       0.002  -0.004   0.002  0.00  0.00    -0.469 OA
ENDBRANCH  17  20
ENDBRANCH  16  17
ENDBRANCH  10  16
ENDBRANCH   1  13
BRANCH   3  21
ATOM     21  C   UNL     1       2.728  -7.050   6.746  0.00  0.00    -0.012 A 
ATOM     22  C   UNL     1       2.069  -8.229   7.092  0.00  0.00    +0.009 A 
ATOM     23  C   UNL     1       1.875  -8.546   8.422  0.00  0.00    +0.004 A 
ATOM     24  C   UNL     1       2.332  -7.697   9.412  0.00  0.00    +0.045 A 
ATOM     25  C   UNL     1       2.988  -6.521   9.076  0.00  0.00    +0.117 A 
ATOM     26  C   UNL     1       3.193  -6.197   7.745  0.00  0.00    +0.054 A 
BRANCH  25  27
ATOM     27  O   UNL     1       3.436  -5.689  10.054  0.00  0.00    -0.507 OA
ATOM     28  H   UNL     1       4.338  -5.876  10.347  0.00  0.00    +0.292 HD
ENDBRANCH  25  27
ENDBRANCH   3  21
BRANCH   9  29
ATOM     29  N   UNL     1       3.990  -9.679   5.380  0.00  0.00    -0.343 N 
ATOM     30  H   UNL     1       3.665  -9.319   6.220  0.00  0.00    +0.144 HD
ATOM     31  H   UNL     1       4.325 -10.588   5.340  0.00  0.00    +0.144 HD
ENDBRANCH   9  29
TORSDOF 7
