REMARK  Name = CHEMBL197930
REMARK  12 active torsions:
REMARK  status: ('A' for Active; 'I' for Inactive)
REMARK    1  A    between atoms: C_1  and  O_2
REMARK    2  A    between atoms: O_2  and  C_3
REMARK    3  A    between atoms: C_12  and  O_13
REMARK    4  A    between atoms: O_13  and  C_14
REMARK    5  A    between atoms: C_14  and  C_15
REMARK    6  A    between atoms: C_15  and  N_16
REMARK    7  A    between atoms: C_19  and  O_22
REMARK    8  A    between atoms: C_23  and  N_29
REMARK    9  A    between atoms: C_24  and  C_27
REMARK   10  A    between atoms: N_29  and  C_30
REMARK   11  A    between atoms: C_32  and  O_38
REMARK   12  A    between atoms: O_38  and  C_39
REMARK                            x       y       z     vdW  Elec       q    Type
REMARK                         _______ _______ _______ _____ _____    ______ ____
ROOT
ATOM      1  C   UNL     1      -2.433   0.370   7.819  0.00  0.00    +0.162 A 
ATOM      2  C   UNL     1      -1.167   0.762   7.500  0.00  0.00    +0.058 A 
ATOM      3  C   UNL     1      -0.185  -0.211   7.228  0.00  0.00    -0.012 A 
ATOM      4  C   UNL     1       1.121   0.158   6.899  0.00  0.00    +0.037 A 
ATOM      5  C   UNL     1       2.071  -0.824   6.635  0.00  0.00    +0.073 A 
ATOM      6  C   UNL     1       1.697  -2.239   6.704  0.00  0.00    +0.023 A 
ATOM      7  C   UNL     1       0.398  -2.613   7.032  0.00  0.00    +0.020 A 
ATOM      8  C   UNL     1      -0.555  -1.628   7.296  0.00  0.00    -0.013 A 
ATOM      9  C   UNL     1      -1.881  -1.971   7.632  0.00  0.00    +0.058 A 
ATOM     10  C   UNL     1      -2.785  -0.987   7.890  0.00  0.00    +0.162 A 
ATOM     11  C   UNL     1       2.692  -3.216   6.430  0.00  0.00    +0.060 A 
ATOM     12  C   UNL     1       3.978  -2.763   6.108  0.00  0.00    +0.091 A 
ATOM     13  C   UNL     1       4.247  -1.385   6.065  0.00  0.00    +0.132 A 
ATOM     14  N   UNL     1       3.334  -0.485   6.317  0.00  0.00    -0.254 NA
ENDROOT
BRANCH   1  16
ATOM     15  C   UNL     1      -2.963   2.681   7.995  0.00  0.00    +0.277 C 
ATOM     16  O   UNL     1      -3.374   1.315   8.081  0.00  0.00    -0.491 OA
ENDBRANCH   1  16
BRANCH  12  17
ATOM     17  C   UNL     1       5.018  -3.705   5.823  0.00  0.00    +0.103 C 
ATOM     18  N   UNL     1       5.843  -4.452   5.597  0.00  0.00    -0.191 NA
ENDBRANCH  12  17
BRANCH  11  19
ATOM     19  N   UNL     1       2.401  -4.562   6.479  0.00  0.00    -0.312 N 
ATOM     20  H   UNL     1       1.946  -4.988   5.736  0.00  0.00    +0.152 HD
BRANCH  19  21
ATOM     21  C   UNL     1       2.762  -5.314   7.601  0.00  0.00    +0.053 A 
ATOM     22  C   UNL     1       3.369  -4.696   8.687  0.00  0.00    +0.071 A 
ATOM     23  C   UNL     1       3.725  -5.445   9.797  0.00  0.00    +0.140 A 
ATOM     24  C   UNL     1       3.475  -6.810   9.823  0.00  0.00    +0.084 A 
ATOM     25  C   UNL     1       2.871  -7.425   8.741  0.00  0.00    +0.045 A 
ATOM     26  C   UNL     1       2.509  -6.681   7.634  0.00  0.00    +0.064 A 
ATOM     27 CL   UNL     1       1.745  -7.454   6.281  0.00  0.00    -0.082 Cl
ATOM     28 CL   UNL     1       3.921  -7.747  11.214  0.00  0.00    -0.080 Cl
BRANCH  23  29
ATOM     29  O   UNL     1       4.320  -4.842  10.861  0.00  0.00    -0.494 OA
ATOM     30  C   UNL     1       4.429  -3.418  10.822  0.00  0.00    +0.277 C 
ENDBRANCH  23  29
ENDBRANCH  19  21
ENDBRANCH  11  19
BRANCH  10  31
ATOM     31  O   UNL     1      -4.060  -1.325   8.218  0.00  0.00    -0.490 OA
BRANCH  31  32
ATOM     32  C   UNL     1      -4.367  -2.720   8.277  0.00  0.00    +0.211 C 
BRANCH  32  33
ATOM     33  C   UNL     1      -5.837  -2.904   8.658  0.00  0.00    -0.037 C 
BRANCH  33  34
ATOM     34  N   UNL     1      -6.691  -2.369   7.589  0.00  0.00    +0.382 N 
ATOM     35  C   UNL     1      -8.099  -2.478   7.989  0.00  0.00    -0.076 C 
ATOM     36  C   UNL     1      -8.988  -1.848   6.915  0.00  0.00    +0.013 C 
ATOM     37  C   UNL     1      -8.774  -2.583   5.588  0.00  0.00    +0.111 C 
ATOM     38  C   UNL     1      -7.289  -2.526   5.218  0.00  0.00    +0.013 C 
ATOM     39  C   UNL     1      -6.463  -3.130   6.355  0.00  0.00    -0.076 C 
ATOM     40  H   UNL     1      -6.462  -1.398   7.432  0.00  0.00    -0.082 HD
BRANCH  37  41
ATOM     41  O   UNL     1      -9.546  -1.953   4.563  0.00  0.00    -0.392 OA
ATOM     42  H   UNL     1      -9.458  -2.367   3.694  0.00  0.00    +0.210 HD
ENDBRANCH  37  41
ENDBRANCH  33  34
ENDBRANCH  32  33
ENDBRANCH  31  32
ENDBRANCH  10  31
TORSDOF 10
