REMARK  Name = CHEMBL1088372
REMARK  11 active torsions:
REMARK  status: ('A' for Active; 'I' for Inactive)
REMARK    1  A    between atoms: C_1  and  O_2
REMARK    2  A    between atoms: O_2  and  C_3
REMARK    3  A    between atoms: C_8  and  C_9
REMARK    4  A    between atoms: C_10  and  C_11
REMARK    5  A    between atoms: C_11  and  C_12
REMARK    6  A    between atoms: C_12  and  N_13
REMARK    7  A    between atoms: C_21  and  C_34
REMARK    8  A    between atoms: C_22  and  N_23
REMARK    9  A    between atoms: N_23  and  C_24
REMARK   10  A    between atoms: C_26  and  O_32
REMARK   11  A    between atoms: O_32  and  C_33
REMARK                            x       y       z     vdW  Elec       q    Type
REMARK                         _______ _______ _______ _____ _____    ______ ____
ROOT
ATOM      1  C   UNL     1      -1.154  -0.427   0.798  0.00  0.00    +0.128 A 
ATOM      2  C   UNL     1      -2.316   0.246   0.553  0.00  0.00    +0.058 A 
ATOM      3  C   UNL     1      -3.525  -0.458   0.453  0.00  0.00    +0.026 A 
ATOM      4  C   UNL     1      -3.542  -1.866   0.607  0.00  0.00    +0.074 A 
ATOM      5  C   UNL     1      -2.340  -2.542   0.859  0.00  0.00    +0.040 A 
ATOM      6  C   UNL     1      -1.157  -1.827   0.947  0.00  0.00    +0.018 A 
ATOM      7  N   UNL     1      -4.697  -2.542   0.510  0.00  0.00    -0.254 NA
ATOM      8  C   UNL     1      -5.835  -1.942   0.275  0.00  0.00    +0.132 A 
ATOM      9  C   UNL     1      -5.912  -0.549   0.109  0.00  0.00    +0.091 A 
ATOM     10  C   UNL     1      -4.742   0.219   0.199  0.00  0.00    +0.060 A 
ENDROOT
BRANCH   1  12
ATOM     11  C   UNL     1      -0.051   1.678   0.733  0.00  0.00    +0.277 C 
ATOM     12  O   UNL     1       0.014   0.260   0.894  0.00  0.00    -0.495 OA
ENDBRANCH   1  12
BRANCH   6  13
ATOM     13  C   UNL     1       0.111  -2.539   1.206  0.00  0.00    +0.007 C 
ATOM     14  C   UNL     1       0.115  -3.858   1.347  0.00  0.00    -0.028 C 
BRANCH  14  15
ATOM     15  C   UNL     1       1.409  -4.584   1.611  0.00  0.00    +0.008 C 
BRANCH  15  16
ATOM     16  C   UNL     1       1.271  -5.426   2.881  0.00  0.00    -0.075 C 
BRANCH  16  17
ATOM     17  N   UNL     1       2.533  -6.133   3.138  0.00  0.00    +0.380 N 
ATOM     18  C   UNL     1       2.785  -7.090   2.054  0.00  0.00    -0.079 C 
ATOM     19  C   UNL     1       4.137  -7.772   2.275  0.00  0.00    -0.019 C 
ATOM     20  C   UNL     1       4.117  -8.511   3.616  0.00  0.00    -0.004 C 
ATOM     21  C   UNL     1       3.779  -7.517   4.731  0.00  0.00    -0.019 C 
ATOM     22  C   UNL     1       2.441  -6.845   4.419  0.00  0.00    -0.079 C 
ATOM     23  H   UNL     1       3.289  -5.467   3.179  0.00  0.00    -0.082 HD
ENDBRANCH  16  17
ENDBRANCH  15  16
ENDBRANCH  14  15
ENDBRANCH   6  13
BRANCH  10  24
ATOM     24  N   UNL     1      -4.775   1.590   0.042  0.00  0.00    -0.312 N 
ATOM     25  H   UNL     1      -3.973   2.068  -0.219  0.00  0.00    +0.152 HD
BRANCH  24  26
ATOM     26  C   UNL     1      -5.966   2.290   0.260  0.00  0.00    +0.053 A 
ATOM     27  C   UNL     1      -6.612   2.909  -0.801  0.00  0.00    +0.071 A 
ATOM     28  C   UNL     1      -7.792   3.602  -0.581  0.00  0.00    +0.140 A 
ATOM     29  C   UNL     1      -8.326   3.675   0.699  0.00  0.00    +0.084 A 
ATOM     30  C   UNL     1      -7.681   3.058   1.755  0.00  0.00    +0.045 A 
ATOM     31  C   UNL     1      -6.507   2.361   1.539  0.00  0.00    +0.064 A 
ATOM     32 CL   UNL     1      -5.704   1.581   2.865  0.00  0.00    -0.082 Cl
ATOM     33 CL   UNL     1      -9.804   4.544   0.973  0.00  0.00    -0.080 Cl
BRANCH  28  34
ATOM     34  O   UNL     1      -8.427   4.210  -1.619  0.00  0.00    -0.494 OA
ATOM     35  C   UNL     1      -7.886   3.998  -2.924  0.00  0.00    +0.277 C 
ENDBRANCH  28  34
ENDBRANCH  24  26
ENDBRANCH  10  24
BRANCH   9  36
ATOM     36  C   UNL     1      -7.172   0.080  -0.149  0.00  0.00    +0.103 C 
ATOM     37  N   UNL     1      -8.172   0.579  -0.353  0.00  0.00    -0.191 NA
ENDBRANCH   9  36
TORSDOF 9
