REMARK  Name = CHEMBL355019
REMARK  8 active torsions:
REMARK  status: ('A' for Active; 'I' for Inactive)
REMARK    1  A    between atoms: C_1  and  O_2
REMARK    2  A    between atoms: O_2  and  C_3
REMARK    3  A    between atoms: C_3  and  C_5
REMARK    4  A    between atoms: C_5  and  N_6
REMARK    5  A    between atoms: C_9  and  N_11
REMARK    6  A    between atoms: C_13  and  C_21
REMARK    7  A    between atoms: C_19  and  N_20
REMARK    8  A    between atoms: C_25  and  O_27
REMARK                            x       y       z     vdW  Elec       q    Type
REMARK                         _______ _______ _______ _____ _____    ______ ____
ROOT
ATOM      1  N   UNL     1       1.297  -5.641  -4.122  0.00  0.00    -0.327 N 
ATOM      2  C   UNL     1      -0.006  -6.000  -3.915  0.00  0.00    +0.097 A 
ATOM      3  C   UNL     1      -0.189  -7.290  -4.289  0.00  0.00    +0.012 A 
ATOM      4  C   UNL     1       1.112  -7.773  -4.770  0.00  0.00    +0.066 A 
ATOM      5  C   UNL     1       2.001  -6.691  -4.646  0.00  0.00    +0.147 A 
ATOM      6  N   UNL     1       3.267  -6.862  -5.024  0.00  0.00    -0.218 NA
ATOM      7  C   UNL     1       3.675  -8.016  -5.506  0.00  0.00    +0.225 A 
ATOM      8  N   UNL     1       2.871  -9.056  -5.642  0.00  0.00    -0.220 NA
ATOM      9  C   UNL     1       1.592  -8.985  -5.283  0.00  0.00    +0.129 A 
ENDROOT
BRANCH   3  10
ATOM     10  C   UNL     1      -1.453  -8.062  -4.224  0.00  0.00    -0.012 A 
ATOM     11  C   UNL     1      -1.896  -8.773  -5.339  0.00  0.00    +0.009 A 
ATOM     12  C   UNL     1      -3.073  -9.491  -5.277  0.00  0.00    +0.004 A 
ATOM     13  C   UNL     1      -3.816  -9.508  -4.110  0.00  0.00    +0.045 A 
ATOM     14  C   UNL     1      -3.382  -8.803  -2.996  0.00  0.00    +0.117 A 
ATOM     15  C   UNL     1      -2.199  -8.084  -3.048  0.00  0.00    +0.054 A 
BRANCH  14  16
ATOM     16  O   UNL     1      -4.115  -8.822  -1.852  0.00  0.00    -0.507 OA
ATOM     17  H   UNL     1      -3.880  -9.538  -1.246  0.00  0.00    +0.292 HD
ENDBRANCH  14  16
ENDBRANCH   3  10
BRANCH   1  21
ATOM     18  N   UNL     1       1.356  -2.504  -2.349  0.00  0.00    -0.290 NA
ATOM     19  C   UNL     1       0.491  -2.306  -3.541  0.00  0.00    +0.087 C 
ATOM     20  C   UNL     1       1.098  -3.230  -4.618  0.00  0.00    +0.042 C 
ATOM     21  C   UNL     1       1.858  -4.319  -3.832  0.00  0.00    +0.104 C 
ATOM     22  C   UNL     1       1.646  -3.961  -2.345  0.00  0.00    +0.110 C 
BRANCH  18  23
ATOM     23  C   UNL     1       0.657  -2.104  -1.120  0.00  0.00    +0.205 C 
BRANCH  23  24
ATOM     24  C   UNL     1       0.598  -0.600  -1.043  0.00  0.00    +0.321 C 
ATOM     25  O   UNL     1       1.088   0.070  -1.921  0.00  0.00    -0.249 OA
BRANCH  24  27
ATOM     26  C   UNL     1      -0.017   1.425   0.010  0.00  0.00    +0.280 C 
ATOM     27  O   UNL     1       0.002  -0.004   0.002  0.00  0.00    -0.467 OA
ENDBRANCH  24  27
ENDBRANCH  23  24
ENDBRANCH  18  23
ENDBRANCH   1  21
BRANCH   9  28
ATOM     28  N   UNL     1       0.753 -10.075  -5.428  0.00  0.00    -0.343 N 
ATOM     29  H   UNL     1      -0.180 -10.007  -5.173  0.00  0.00    +0.144 HD
ATOM     30  H   UNL     1       1.099 -10.909  -5.785  0.00  0.00    +0.144 HD
ENDBRANCH   9  28
TORSDOF 7
