REMARK  Name = CHEMBL425209
REMARK  10 active torsions:
REMARK  status: ('A' for Active; 'I' for Inactive)
REMARK    1  A    between atoms: C_1  and  C_2
REMARK    2  A    between atoms: C_2  and  C_3
REMARK    3  A    between atoms: C_2  and  O_4
REMARK    4  A    between atoms: O_4  and  C_5
REMARK    5  A    between atoms: C_7  and  O_25
REMARK    6  A    between atoms: C_20  and  O_22
REMARK    7  A    between atoms: O_22  and  C_23
REMARK    8  A    between atoms: O_25  and  C_26
REMARK    9  A    between atoms: C_26  and  C_27
REMARK   10  A    between atoms: C_27  and  N_28
REMARK                            x       y       z     vdW  Elec       q    Type
REMARK                         _______ _______ _______ _____ _____    ______ ____
ROOT
ATOM      1  C   UNL     1      -1.259  -1.661  -0.717  0.00  0.00    +0.137 A 
ATOM      2  C   UNL     1      -0.252  -2.370  -1.336  0.00  0.00    +0.092 A 
ATOM      3  C   UNL     1      -0.534  -3.547  -2.029  0.00  0.00    +0.126 A 
ATOM      4  C   UNL     1      -1.825  -4.028  -2.111  0.00  0.00    +0.074 A 
ATOM      5  C   UNL     1      -2.866  -3.329  -1.493  0.00  0.00    +0.083 A 
ATOM      6  C   UNL     1      -2.580  -2.135  -0.783  0.00  0.00    +0.082 A 
ATOM      7  C   UNL     1      -3.652  -1.454  -0.165  0.00  0.00    +0.139 A 
ATOM      8  N   UNL     1      -4.870  -1.968  -0.274  0.00  0.00    -0.220 NA
ATOM      9  C   UNL     1      -5.090  -3.089  -0.942  0.00  0.00    +0.223 A 
ATOM     10  N   UNL     1      -4.137  -3.758  -1.546  0.00  0.00    -0.235 NA
ATOM     11  N   UNL     1      -3.437  -0.284   0.536  0.00  0.00    -0.282 N 
ATOM     12  C   UNL     1      -4.484   0.312   1.234  0.00  0.00    +0.146 A 
ATOM     13  C   UNL     1      -4.261   1.494   1.933  0.00  0.00    +0.081 A 
ATOM     14  C   UNL     1      -5.310   2.079   2.623  0.00  0.00    +0.028 A 
ATOM     15  C   UNL     1      -6.551   1.460   2.592  0.00  0.00    +0.069 A 
ATOM     16  C   UNL     1      -6.704   0.282   1.875  0.00  0.00    +0.216 A 
ATOM     17  N   UNL     1      -5.684  -0.249   1.221  0.00  0.00    -0.196 NA
ATOM     18 CL   UNL     1      -2.688   2.227   1.940  0.00  0.00    -0.080 Cl
ATOM     19  H   UNL     1      -2.556   0.123   0.542  0.00  0.00    +0.155 HD
ENDROOT
BRANCH  16  20
ATOM     20  O   UNL     1      -7.915  -0.329   1.840  0.00  0.00    -0.480 OA
ATOM     21  C   UNL     1      -8.009  -1.538   1.085  0.00  0.00    +0.279 C 
ENDBRANCH  16  20
BRANCH   1  22
ATOM     22  O   UNL     1      -0.977  -0.516  -0.045  0.00  0.00    -0.488 OA
BRANCH  22  24
ATOM     23  C   UNL     1       0.399   1.461   0.149  0.00  0.00    +0.051 C 
ATOM     24  C   UNL     1       0.372  -0.048  -0.100  0.00  0.00    +0.167 C 
ATOM     25  C   UNL     1       1.202  -0.756   0.973  0.00  0.00    +0.051 C 
ENDBRANCH  22  24
ENDBRANCH   1  22
BRANCH   3  26
ATOM     26  O   UNL     1       0.475  -4.229  -2.631  0.00  0.00    -0.491 OA
BRANCH  26  27
ATOM     27  C   UNL     1       0.124  -5.427  -3.326  0.00  0.00    +0.244 C 
BRANCH  27  28
ATOM     28  C   UNL     1       1.382  -6.051  -3.934  0.00  0.00    +0.125 C 
BRANCH  28  29
ATOM     29  N   UNL     1       2.292  -6.466  -2.858  0.00  0.00    -0.295 NA
ATOM     30  C   UNL     1       3.663  -6.631  -3.362  0.00  0.00    +0.112 C 
ATOM     31  C   UNL     1       4.586  -7.005  -2.200  0.00  0.00    +0.175 C 
ATOM     32  O   UNL     1       4.095  -8.192  -1.570  0.00  0.00    -0.377 OA
ATOM     33  C   UNL     1       2.762  -8.067  -1.067  0.00  0.00    +0.175 C 
ATOM     34  C   UNL     1       1.820  -7.703  -2.218  0.00  0.00    +0.112 C 
ENDBRANCH  28  29
ENDBRANCH  27  28
ENDBRANCH  26  27
ENDBRANCH   3  26
TORSDOF 7
