REMARK  Name = CHEMBL509941
REMARK  10 active torsions:
REMARK  status: ('A' for Active; 'I' for Inactive)
REMARK    1  A    between atoms: C_1  and  C_2
REMARK    2  A    between atoms: C_6  and  C_37
REMARK    3  A    between atoms: C_7  and  C_8
REMARK    4  A    between atoms: C_9  and  N_10
REMARK    5  A    between atoms: C_18  and  N_19
REMARK    6  A    between atoms: N_19  and  C_20
REMARK    7  A    between atoms: C_23  and  P_26
REMARK    8  A    between atoms: P_26  and  C_28
REMARK    9  A    between atoms: P_26  and  C_29
REMARK   10  A    between atoms: N_33  and  C_36
REMARK                            x       y       z     vdW  Elec       q    Type
REMARK                         _______ _______ _______ _____ _____    ______ ____
ROOT
ATOM      1  N   UNL     1      -1.231   0.319   4.580  0.00  0.00    -0.290 N 
ATOM      2  C   UNL     1      -0.610   1.507   4.853  0.00  0.00    +0.206 A 
ATOM      3  N   UNL     1      -1.029   1.975   5.992  0.00  0.00    -0.230 NA
ATOM      4  C   UNL     1      -1.941   1.125   6.524  0.00  0.00    +0.148 A 
ATOM      5  C   UNL     1      -2.087   0.056   5.624  0.00  0.00    +0.171 A 
ATOM      6  N   UNL     1      -2.938  -0.923   5.912  0.00  0.00    -0.194 NA
ATOM      7  C   UNL     1      -3.644  -0.893   7.032  0.00  0.00    +0.222 A 
ATOM      8  N   UNL     1      -3.541   0.098   7.908  0.00  0.00    -0.197 NA
ATOM      9  C   UNL     1      -2.708   1.113   7.702  0.00  0.00    +0.156 A 
ATOM     10  N   UNL     1      -4.521  -1.932   7.297  0.00  0.00    -0.297 N 
ATOM     11  C   UNL     1      -4.750  -2.998   6.310  0.00  0.00    +0.123 C 
ATOM     12  C   UNL     1      -4.565  -4.351   7.004  0.00  0.00    +0.103 C 
ATOM     13  N   UNL     1      -5.427  -4.410   8.192  0.00  0.00    -0.302 NA
ATOM     14  C   UNL     1      -5.044  -3.391   9.178  0.00  0.00    +0.103 C 
ATOM     15  C   UNL     1      -5.244  -2.001   8.576  0.00  0.00    +0.123 C 
ATOM     16  C   UNL     1      -5.410  -5.753   8.789  0.00  0.00    +0.105 C 
ENDROOT
BRANCH   1  18
ATOM     17  C   UNL     1      -0.169  -0.093   2.513  0.00  0.00    +0.026 C 
ATOM     18  C   UNL     1      -1.037  -0.472   3.454  0.00  0.00    +0.095 C 
BRANCH  17  25
ATOM     19  C   UNL     1       2.401  -1.186   1.759  0.00  0.00    +0.044 C 
ATOM     20  C   UNL     1       1.189  -1.405   0.891  0.00  0.00    -0.043 A 
ATOM     21  C   UNL     1       1.296  -2.138  -0.273  0.00  0.00    +0.004 A 
ATOM     22  C   UNL     1       0.184  -2.339  -1.072  0.00  0.00    +0.001 A 
ATOM     23  C   UNL     1      -1.042  -1.809  -0.709  0.00  0.00    +0.004 A 
ATOM     24  C   UNL     1      -1.163  -1.075   0.452  0.00  0.00    -0.043 A 
ATOM     25  C   UNL     1      -0.046  -0.872   1.266  0.00  0.00    -0.018 A 
ATOM     26  C   UNL     1      -2.498  -0.498   0.845  0.00  0.00    +0.044 C 
ENDBRANCH  17  25
ENDBRANCH   1  18
BRANCH   9  27
ATOM     27  N   UNL     1      -2.608   2.143   8.621  0.00  0.00    -0.298 N 
ATOM     28  H   UNL     1      -2.066   2.922   8.420  0.00  0.00    +0.154 HD
BRANCH  27  29
ATOM     29  C   UNL     1      -3.288   2.061   9.839  0.00  0.00    +0.032 A 
ATOM     30  C   UNL     1      -3.462   0.830  10.459  0.00  0.00    +0.024 A 
ATOM     31  C   UNL     1      -4.134   0.753  11.662  0.00  0.00    +0.013 A 
ATOM     32  C   UNL     1      -4.635   1.900  12.251  0.00  0.00    +0.011 A 
ATOM     33  C   UNL     1      -4.465   3.127  11.637  0.00  0.00    +0.013 A 
ATOM     34  C   UNL     1      -3.788   3.212  10.436  0.00  0.00    +0.024 A 
BRANCH  32  35
ATOM     35  P   UNL     1      -5.519   1.794  13.832  0.00  0.00    +0.111 P 
ATOM     36  O   UNL     1      -4.991   0.655  14.616  0.00  0.00    -0.317 OA
ATOM     37  C   UNL     1      -5.279   3.340  14.767  0.00  0.00    +0.085 C 
ATOM     38  C   UNL     1      -7.297   1.543  13.518  0.00  0.00    +0.085 C 
ENDBRANCH  32  35
ENDBRANCH  27  29
ENDBRANCH   9  27
TORSDOF 5
