REMARK  Name = CHEMBL216703
REMARK  10 active torsions:
REMARK  status: ('A' for Active; 'I' for Inactive)
REMARK    1  A    between atoms: C_1  and  O_2
REMARK    2  A    between atoms: O_2  and  C_3
REMARK    3  A    between atoms: C_7  and  N_9
REMARK    4  A    between atoms: C_14  and  O_23
REMARK    5  A    between atoms: C_16  and  O_17
REMARK    6  A    between atoms: O_17  and  C_18
REMARK    7  A    between atoms: O_23  and  C_24
REMARK    8  A    between atoms: C_24  and  C_25
REMARK    9  A    between atoms: C_25  and  C_26
REMARK   10  A    between atoms: C_26  and  N_27
REMARK                            x       y       z     vdW  Elec       q    Type
REMARK                         _______ _______ _______ _____ _____    ______ ____
ROOT
ATOM      1  N   UNL     1       0.960  -4.043   2.505  0.00  0.00    -0.298 N 
ATOM      2  C   UNL     1       0.366  -4.798   1.515  0.00  0.00    +0.137 A 
ATOM      3  C   UNL     1       0.563  -6.196   1.453  0.00  0.00    +0.082 A 
ATOM      4  C   UNL     1      -0.074  -6.917   0.412  0.00  0.00    +0.083 A 
ATOM      5  C   UNL     1       0.102  -8.301   0.326  0.00  0.00    +0.074 A 
ATOM      6  C   UNL     1       0.893  -8.950   1.253  0.00  0.00    +0.126 A 
ATOM      7  C   UNL     1       1.520  -8.242   2.278  0.00  0.00    +0.092 A 
ATOM      8  C   UNL     1       1.363  -6.876   2.386  0.00  0.00    +0.137 A 
ATOM      9  N   UNL     1      -0.834  -6.244  -0.467  0.00  0.00    -0.235 NA
ATOM     10  C   UNL     1      -0.980  -4.944  -0.360  0.00  0.00    +0.223 A 
ATOM     11  N   UNL     1      -0.409  -4.232   0.598  0.00  0.00    -0.220 NA
ATOM     12  H   UNL     1       1.546  -4.465   3.152  0.00  0.00    +0.154 HD
ENDROOT
BRANCH   1  17
ATOM     13  C   UNL     1       0.220  -0.584   1.489  0.00  0.00    +0.122 A 
ATOM     14  C   UNL     1       0.241   0.059   2.719  0.00  0.00    +0.047 A 
ATOM     15  C   UNL     1       0.499  -0.658   3.872  0.00  0.00    +0.025 A 
ATOM     16  C   UNL     1       0.738  -2.018   3.804  0.00  0.00    +0.062 A 
ATOM     17  C   UNL     1       0.718  -2.667   2.574  0.00  0.00    +0.054 A 
ATOM     18  C   UNL     1       0.453  -1.948   1.417  0.00  0.00    +0.070 A 
ATOM     19 CL   UNL     1       1.063  -2.916   5.254  0.00  0.00    -0.082 Cl
BRANCH  13  21
ATOM     20  C   UNL     1      -0.265   1.525   0.505  0.00  0.00    +0.277 C 
ATOM     21  O   UNL     1      -0.034   0.123   0.356  0.00  0.00    -0.495 OA
ENDBRANCH  13  21
ENDBRANCH   1  17
BRANCH   8  22
ATOM     22  O   UNL     1       1.977  -6.195   3.386  0.00  0.00    -0.486 OA
BRANCH  22  23
ATOM     23  C   UNL     1       2.677  -6.967   4.364  0.00  0.00    +0.201 C 
ATOM     24  C   UNL     1       2.920  -6.130   5.643  0.00  0.00    +0.075 C 
ATOM     25  C   UNL     1       4.363  -6.542   6.031  0.00  0.00    +0.163 C 
ATOM     26  O   UNL     1       5.027  -6.684   4.756  0.00  0.00    -0.376 OA
ATOM     27  C   UNL     1       4.093  -7.315   3.865  0.00  0.00    +0.204 C 
ENDBRANCH  22  23
ENDBRANCH   8  22
BRANCH   6  28
ATOM     28  O   UNL     1       1.061 -10.294   1.166  0.00  0.00    -0.492 OA
BRANCH  28  29
ATOM     29  C   UNL     1       0.393 -10.965   0.096  0.00  0.00    +0.230 C 
BRANCH  29  30
ATOM     30  C   UNL     1       0.700 -12.462   0.161  0.00  0.00    +0.056 C 
BRANCH  30  31
ATOM     31  C   UNL     1      -0.016 -13.180  -0.986  0.00  0.00    +0.088 C 
BRANCH  31  32
ATOM     32  N   UNL     1       0.279 -14.618  -0.923  0.00  0.00    -0.298 NA
ATOM     33  C   UNL     1       1.701 -14.877  -1.190  0.00  0.00    +0.112 C 
ATOM     34  C   UNL     1       1.975 -16.377  -1.056  0.00  0.00    +0.175 C 
ATOM     35  O   UNL     1       1.117 -17.094  -1.947  0.00  0.00    -0.377 OA
ATOM     36  C   UNL     1      -0.275 -16.866  -1.715  0.00  0.00    +0.175 C 
ATOM     37  C   UNL     1      -0.572 -15.371  -1.855  0.00  0.00    +0.112 C 
ENDBRANCH  31  32
ENDBRANCH  30  31
ENDBRANCH  29  30
ENDBRANCH  28  29
ENDBRANCH   6  28
TORSDOF 9
