REMARK  Name = CHEMBL217493
REMARK  10 active torsions:
REMARK  status: ('A' for Active; 'I' for Inactive)
REMARK    1  A    between atoms: C_1  and  O_2
REMARK    2  A    between atoms: O_2  and  C_3
REMARK    3  A    between atoms: C_7  and  N_9
REMARK    4  A    between atoms: C_14  and  O_24
REMARK    5  A    between atoms: C_16  and  O_17
REMARK    6  A    between atoms: O_17  and  C_18
REMARK    7  A    between atoms: O_24  and  C_25
REMARK    8  A    between atoms: C_25  and  C_26
REMARK    9  A    between atoms: C_26  and  C_27
REMARK   10  A    between atoms: C_27  and  N_28
REMARK                            x       y       z     vdW  Elec       q    Type
REMARK                         _______ _______ _______ _____ _____    ______ ____
ROOT
ATOM      1  N   UNL     1       1.086  -4.063  -2.362  0.00  0.00    -0.298 N 
ATOM      2  C   UNL     1       0.833  -4.808  -1.229  0.00  0.00    +0.137 A 
ATOM      3  C   UNL     1       1.194  -6.172  -1.162  0.00  0.00    +0.082 A 
ATOM      4  C   UNL     1       0.907  -6.883   0.030  0.00  0.00    +0.083 A 
ATOM      5  C   UNL     1       1.253  -8.235   0.126  0.00  0.00    +0.074 A 
ATOM      6  C   UNL     1       1.869  -8.860  -0.939  0.00  0.00    +0.126 A 
ATOM      7  C   UNL     1       2.152  -8.161  -2.113  0.00  0.00    +0.092 A 
ATOM      8  C   UNL     1       1.822  -6.829  -2.234  0.00  0.00    +0.137 A 
ATOM      9  N   UNL     1       0.307  -6.233   1.040  0.00  0.00    -0.235 NA
ATOM     10  C   UNL     1      -0.006  -4.965   0.921  0.00  0.00    +0.223 A 
ATOM     11  N   UNL     1       0.247  -4.260  -0.170  0.00  0.00    -0.220 NA
ATOM     12  H   UNL     1       1.486  -4.483  -3.140  0.00  0.00    +0.154 HD
ENDROOT
BRANCH   1  17
ATOM     13  C   UNL     1      -0.586  -0.866  -1.639  0.00  0.00    +0.122 A 
ATOM     14  C   UNL     1       0.138  -0.004  -2.451  0.00  0.00    +0.047 A 
ATOM     15  C   UNL     1       1.171  -0.489  -3.229  0.00  0.00    +0.025 A 
ATOM     16  C   UNL     1       1.488  -1.834  -3.202  0.00  0.00    +0.062 A 
ATOM     17  C   UNL     1       0.767  -2.702  -2.390  0.00  0.00    +0.054 A 
ATOM     18  C   UNL     1      -0.268  -2.214  -1.603  0.00  0.00    +0.070 A 
ATOM     19 CL   UNL     1       2.786  -2.440  -4.182  0.00  0.00    -0.082 Cl
BRANCH  13  21
ATOM     20  C   UNL     1      -1.874   1.014  -0.960  0.00  0.00    +0.277 C 
ATOM     21  O   UNL     1      -1.602  -0.387  -0.874  0.00  0.00    -0.495 OA
ENDBRANCH  13  21
ENDBRANCH   1  17
BRANCH   8  22
ATOM     22  O   UNL     1       2.100  -6.156  -3.379  0.00  0.00    -0.488 OA
BRANCH  22  23
ATOM     23  C   UNL     1       2.617  -6.920  -4.471  0.00  0.00    +0.174 C 
ATOM     24  C   UNL     1       4.132  -7.070  -4.316  0.00  0.00    +0.044 C 
ATOM     25  C   UNL     1       4.685  -7.888  -5.485  0.00  0.00    +0.004 C 
ATOM     26  C   UNL     1       4.375  -7.171  -6.801  0.00  0.00    +0.000 C 
ATOM     27  C   UNL     1       2.860  -7.020  -6.955  0.00  0.00    +0.004 C 
ATOM     28  C   UNL     1       2.307  -6.203  -5.786  0.00  0.00    +0.044 C 
ENDBRANCH  22  23
ENDBRANCH   8  22
BRANCH   6  29
ATOM     29  O   UNL     1       2.204 -10.173  -0.843  0.00  0.00    -0.492 OA
BRANCH  29  30
ATOM     30  C   UNL     1       1.889 -10.835   0.383  0.00  0.00    +0.227 C 
BRANCH  30  31
ATOM     31  C   UNL     1       2.339 -12.295   0.304  0.00  0.00    +0.022 C 
BRANCH  31  32
ATOM     32  C   UNL     1       2.002 -13.004   1.618  0.00  0.00    -0.075 C 
BRANCH  32  33
ATOM     33  N   UNL     1       2.433 -14.406   1.542  0.00  0.00    +0.383 N 
ATOM     34  C   UNL     1       1.650 -15.104   0.513  0.00  0.00    -0.050 C 
ATOM     35  C   UNL     1       2.102 -16.565   0.436  0.00  0.00    +0.141 C 
ATOM     36  O   UNL     1       1.944 -17.176   1.720  0.00  0.00    -0.383 OA
ATOM     37  C   UNL     1       2.669 -16.516   2.762  0.00  0.00    +0.141 C 
ATOM     38  C   UNL     1       2.219 -15.055   2.843  0.00  0.00    -0.050 C 
ATOM     39  H   UNL     1       3.412 -14.444   1.304  0.00  0.00    -0.082 HD
ENDBRANCH  32  33
ENDBRANCH  31  32
ENDBRANCH  30  31
ENDBRANCH  29  30
ENDBRANCH   6  29
TORSDOF 9
