REMARK  Name = CHEMBL178510
REMARK  7 active torsions:
REMARK  status: ('A' for Active; 'I' for Inactive)
REMARK    1  A    between atoms: C_1  and  N_2
REMARK    2  A    between atoms: C_6  and  C_9
REMARK    3  A    between atoms: N_21  and  C_22
REMARK    4  A    between atoms: C_25  and  C_28
REMARK    5  A    between atoms: C_28  and  C_29
REMARK    6  A    between atoms: C_29  and  C_30
REMARK    7  A    between atoms: C_30  and  C_31
REMARK                            x       y       z     vdW  Elec       q    Type
REMARK                         _______ _______ _______ _____ _____    ______ ____
ROOT
ATOM      1  C   UNL     1      -0.052   1.409   0.707  0.00  0.00    +0.154 C 
ATOM      2  N   UNL     1      -0.022  -0.041   0.501  0.00  0.00    -0.295 N 
ATOM      3  C   UNL     1      -1.194  -0.720   0.283  0.00  0.00    +0.148 A 
ATOM      4  C   UNL     1      -1.183  -2.117   0.083  0.00  0.00    +0.037 A 
ATOM      5  C   UNL     1       0.038  -2.829   0.104  0.00  0.00    +0.027 A 
ATOM      6  C   UNL     1       1.202  -2.143   0.323  0.00  0.00    +0.050 A 
ATOM      7  C   UNL     1       1.156  -0.693   0.522  0.00  0.00    +0.260 A 
ATOM      8  O   UNL     1       2.188  -0.074   0.712  0.00  0.00    -0.267 OA
ATOM      9  C   UNL     1      -2.404  -2.773  -0.138  0.00  0.00    +0.126 A 
ATOM     10  N   UNL     1      -3.513  -2.058  -0.148  0.00  0.00    -0.222 NA
ATOM     11  C   UNL     1      -3.485  -0.743   0.045  0.00  0.00    +0.221 A 
ATOM     12  N   UNL     1      -2.358  -0.081   0.256  0.00  0.00    -0.196 NA
ATOM     13  N   UNL     1      -4.676  -0.042   0.024  0.00  0.00    -0.284 N 
ATOM     14  H   UNL     1      -4.670   0.926   0.081  0.00  0.00    +0.155 HD
ENDROOT
BRANCH   6  15
ATOM     15  C   UNL     1       2.498  -2.861   0.352  0.00  0.00    +0.024 A 
ATOM     16  C   UNL     1       2.986  -3.377   1.553  0.00  0.00    +0.050 A 
ATOM     17  C   UNL     1       4.195  -4.045   1.573  0.00  0.00    +0.021 A 
ATOM     18  C   UNL     1       4.921  -4.203   0.407  0.00  0.00    +0.003 A 
ATOM     19  C   UNL     1       4.443  -3.694  -0.787  0.00  0.00    +0.021 A 
ATOM     20  C   UNL     1       3.233  -3.029  -0.822  0.00  0.00    +0.050 A 
ATOM     21 CL   UNL     1       2.631  -2.397  -2.323  0.00  0.00    -0.083 Cl
ATOM     22 CL   UNL     1       2.077  -3.178   3.019  0.00  0.00    -0.083 Cl
ENDBRANCH   6  15
BRANCH  13  23
ATOM     23  C   UNL     1      -5.889  -0.729  -0.080  0.00  0.00    +0.034 A 
ATOM     24  C   UNL     1      -6.035  -1.978   0.509  0.00  0.00    +0.023 A 
ATOM     25  C   UNL     1      -7.235  -2.653   0.405  0.00  0.00    +0.005 A 
ATOM     26  C   UNL     1      -8.291  -2.088  -0.286  0.00  0.00    -0.047 A 
ATOM     27  C   UNL     1      -8.149  -0.844  -0.875  0.00  0.00    +0.005 A 
ATOM     28  C   UNL     1      -6.953  -0.161  -0.769  0.00  0.00    +0.023 A 
BRANCH  26  29
ATOM     29  C   UNL     1      -9.599  -2.828  -0.399  0.00  0.00    +0.035 C 
BRANCH  29  30
ATOM     30  C   UNL     1     -10.501  -2.451   0.778  0.00  0.00    +0.009 C 
BRANCH  30  31
ATOM     31  C   UNL     1     -11.829  -3.202   0.664  0.00  0.00    +0.055 C 
BRANCH  31  32
ATOM     32  C   UNL     1     -12.731  -2.826   1.841  0.00  0.00    +0.269 C 
ATOM     33  N   UNL     1     -12.151  -3.300   3.109  0.00  0.00    -0.138 NA
ATOM     34  N   UNL     1     -12.971  -4.096   3.586  0.00  0.00    -0.026 NA
ATOM     35  N   UNL     1     -14.092  -4.239   2.772  0.00  0.00    -0.026 NA
ATOM     36  N   UNL     1     -14.017  -3.537   1.754  0.00  0.00    -0.138 NA
ENDBRANCH  31  32
ENDBRANCH  30  31
ENDBRANCH  29  30
ENDBRANCH  26  29
ENDBRANCH  13  23
TORSDOF 6
