REMARK  Name = CHEMBL307982
REMARK  7 active torsions:
REMARK  status: ('A' for Active; 'I' for Inactive)
REMARK    1  A    between atoms: C_1  and  C_2
REMARK    2  A    between atoms: C_2  and  C_3
REMARK    3  A    between atoms: C_2  and  N_4
REMARK    4  A    between atoms: C_6  and  C_14
REMARK    5  A    between atoms: C_12  and  N_13
REMARK    6  A    between atoms: C_17  and  O_20
REMARK    7  A    between atoms: O_20  and  C_21
REMARK                            x       y       z     vdW  Elec       q    Type
REMARK                         _______ _______ _______ _____ _____    ______ ____
ROOT
ATOM      1  N   UNL     1      -1.312  -0.624   0.118  0.00  0.00    -0.329 N 
ATOM      2  C   UNL     1      -2.238  -0.371   1.095  0.00  0.00    +0.097 A 
ATOM      3  C   UNL     1      -3.423  -0.935   0.756  0.00  0.00    +0.012 A 
ATOM      4  C   UNL     1      -3.216  -1.595  -0.540  0.00  0.00    +0.066 A 
ATOM      5  C   UNL     1      -1.875  -1.359  -0.889  0.00  0.00    +0.147 A 
ATOM      6  N   UNL     1      -1.421  -1.854  -2.041  0.00  0.00    -0.218 NA
ATOM      7  C   UNL     1      -2.212  -2.543  -2.834  0.00  0.00    +0.225 A 
ATOM      8  N   UNL     1      -3.478  -2.784  -2.545  0.00  0.00    -0.220 NA
ATOM      9  C   UNL     1      -4.019  -2.338  -1.414  0.00  0.00    +0.129 A 
ENDROOT
BRANCH   3  10
ATOM     10  C   UNL     1      -4.681  -0.896   1.540  0.00  0.00    -0.015 A 
ATOM     11  C   UNL     1      -5.875  -0.524   0.925  0.00  0.00    +0.012 A 
ATOM     12  C   UNL     1      -7.044  -0.488   1.657  0.00  0.00    +0.047 A 
ATOM     13  C   UNL     1      -7.031  -0.822   3.004  0.00  0.00    +0.128 A 
ATOM     14  C   UNL     1      -5.843  -1.193   3.619  0.00  0.00    +0.047 A 
ATOM     15  C   UNL     1      -4.672  -1.236   2.892  0.00  0.00    +0.012 A 
BRANCH  13  16
ATOM     16  O   UNL     1      -8.184  -0.786   3.723  0.00  0.00    -0.456 OA
BRANCH  16  17
ATOM     17  C   UNL     1      -8.299   0.155   4.697  0.00  0.00    +0.128 A 
ATOM     18  C   UNL     1      -7.318   1.124   4.846  0.00  0.00    +0.046 A 
ATOM     19  C   UNL     1      -7.438   2.080   5.837  0.00  0.00    +0.004 A 
ATOM     20  C   UNL     1      -8.534   2.071   6.679  0.00  0.00    +0.000 A 
ATOM     21  C   UNL     1      -9.514   1.106   6.532  0.00  0.00    +0.004 A 
ATOM     22  C   UNL     1      -9.402   0.151   5.540  0.00  0.00    +0.046 A 
ENDBRANCH  16  17
ENDBRANCH  13  16
ENDBRANCH   3  10
BRANCH   1  24
ATOM     23  C   UNL     1       0.114   1.361   0.211  0.00  0.00    +0.030 C 
ATOM     24  C   UNL     1       0.080  -0.167   0.146  0.00  0.00    +0.083 C 
ATOM     25  C   UNL     1       0.782  -0.746   1.375  0.00  0.00    +0.030 C 
ENDBRANCH   1  24
BRANCH   9  26
ATOM     26  N   UNL     1      -5.346  -2.592  -1.115  0.00  0.00    -0.343 N 
ATOM     27  H   UNL     1      -5.731  -2.253  -0.292  0.00  0.00    +0.144 HD
ATOM     28  H   UNL     1      -5.892  -3.108  -1.729  0.00  0.00    +0.144 HD
ENDBRANCH   9  26
TORSDOF 5
