REMARK  Name = CHEMBL526560
REMARK  10 active torsions:
REMARK  status: ('A' for Active; 'I' for Inactive)
REMARK    1  A    between atoms: C_1  and  C_2
REMARK    2  A    between atoms: C_6  and  N_8
REMARK    3  A    between atoms: C_9  and  N_17
REMARK    4  A    between atoms: C_11  and  C_13
REMARK    5  A    between atoms: C_13  and  C_14
REMARK    6  A    between atoms: C_13  and  C_15
REMARK    7  A    between atoms: C_13  and  C_16
REMARK    8  A    between atoms: N_20  and  C_21
REMARK    9  A    between atoms: C_25  and  N_27
REMARK   10  A    between atoms: C_31  and  N_38
REMARK                            x       y       z     vdW  Elec       q    Type
REMARK                         _______ _______ _______ _____ _____    ______ ____
ROOT
ATOM      1  N   UNL     1      -1.369  -4.694   1.671  0.00  0.00    -0.254 N 
ATOM      2  C   UNL     1      -1.898  -5.874   2.049  0.00  0.00    +0.309 C 
ATOM      3  O   UNL     1      -1.722  -6.286   3.179  0.00  0.00    -0.252 OA
ATOM      4  N   UNL     1      -2.623  -6.599   1.173  0.00  0.00    -0.269 N 
ATOM      5  H   UNL     1      -1.510  -4.365   0.770  0.00  0.00    +0.158 HD
ATOM      6  H   UNL     1      -2.816  -6.242   0.292  0.00  0.00    +0.156 HD
ENDROOT
BRANCH   4   7
ATOM      7  C   UNL     1      -3.096  -7.865   1.535  0.00  0.00    +0.037 A 
ATOM      8  C   UNL     1      -3.499  -8.109   2.842  0.00  0.00    +0.023 A 
ATOM      9  C   UNL     1      -3.966  -9.359   3.200  0.00  0.00    +0.004 A 
ATOM     10  C   UNL     1      -4.035 -10.370   2.261  0.00  0.00    +0.023 A 
ATOM     11  C   UNL     1      -3.633 -10.132   0.952  0.00  0.00    +0.034 A 
ATOM     12  C   UNL     1      -3.168  -8.876   0.588  0.00  0.00    +0.046 A 
BRANCH  11  13
ATOM     13  N   UNL     1      -3.701 -11.155   0.002  0.00  0.00    -0.299 N 
ATOM     14  C   UNL     1      -2.742 -11.244  -0.986  0.00  0.00    +0.134 A 
ATOM     15  C   UNL     1      -2.743 -12.322  -1.905  0.00  0.00    +0.043 A 
ATOM     16  C   UNL     1      -3.704 -13.338  -1.860  0.00  0.00    +0.046 A 
ATOM     17  C   UNL     1      -3.654 -14.350  -2.773  0.00  0.00    +0.127 A 
ATOM     18  C   UNL     1      -2.661 -14.386  -3.748  0.00  0.00    +0.035 A 
ATOM     19  C   UNL     1      -1.710 -13.411  -3.818  0.00  0.00    +0.031 A 
ATOM     20  C   UNL     1      -1.732 -12.356  -2.896  0.00  0.00    +0.076 A 
ATOM     21  N   UNL     1      -0.821 -11.372  -2.922  0.00  0.00    -0.235 NA
ATOM     22  C   UNL     1      -0.869 -10.398  -2.044  0.00  0.00    +0.223 A 
ATOM     23  N   UNL     1      -1.798 -10.321  -1.104  0.00  0.00    -0.220 NA
ATOM     24  H   UNL     1      -4.422 -11.803   0.038  0.00  0.00    +0.154 HD
BRANCH  17  25
ATOM     25  N   UNL     1      -4.670 -15.425  -2.726  0.00  0.00    +0.056 N 
ATOM     26  O   UNL     1      -5.536 -15.403  -1.883  0.00  0.00    -0.126 OA
ATOM     27  O   UNL     1      -4.634 -16.327  -3.531  0.00  0.00    -0.126 OA
ENDBRANCH  17  25
ENDBRANCH  11  13
ENDBRANCH   4   7
BRANCH   1  29
ATOM     28  N   UNL     1      -0.029  -2.742   2.335  0.00  0.00    -0.218 N 
ATOM     29  C   UNL     1      -0.619  -3.944   2.578  0.00  0.00    +0.130 A 
ATOM     30  C   UNL     1      -0.344  -4.280   3.868  0.00  0.00    +0.069 A 
ATOM     31  C   UNL     1       0.432  -3.258   4.421  0.00  0.00    +0.071 A 
ATOM     32  N   UNL     1       0.625  -2.342   3.507  0.00  0.00    -0.169 NA
BRANCH  28  38
ATOM     33  C   UNL     1      -0.183   1.556  -0.050  0.00  0.00    +0.044 C 
ATOM     34  C   UNL     1      -0.141   0.050  -0.058  0.00  0.00    -0.048 A 
ATOM     35  C   UNL     1      -0.138  -0.634  -1.260  0.00  0.00    +0.003 A 
ATOM     36  C   UNL     1      -0.099  -2.017  -1.271  0.00  0.00    +0.002 A 
ATOM     37  C   UNL     1      -0.063  -2.718  -0.082  0.00  0.00    +0.028 A 
ATOM     38  C   UNL     1      -0.066  -2.033   1.126  0.00  0.00    +0.068 A 
ATOM     39  C   UNL     1      -0.099  -0.645   1.134  0.00  0.00    +0.031 A 
ENDBRANCH  28  38
BRANCH  31  40
ATOM     40  C   UNL     1       0.961  -3.220   5.832  0.00  0.00    +0.006 C 
ATOM     41  C   UNL     1       2.137  -4.189   5.962  0.00  0.00    +0.017 C 
ATOM     42  C   UNL     1       1.430  -1.801   6.162  0.00  0.00    +0.017 C 
ATOM     43  C   UNL     1      -0.148  -3.629   6.804  0.00  0.00    +0.017 C 
ENDBRANCH  31  40
ENDBRANCH   1  29
TORSDOF 6
