REMARK  Name = CHEMBL200231
REMARK  11 active torsions:
REMARK  status: ('A' for Active; 'I' for Inactive)
REMARK    1  A    between atoms: C_1  and  C_2
REMARK    2  A    between atoms: C_2  and  C_3
REMARK    3  A    between atoms: C_2  and  O_4
REMARK    4  A    between atoms: O_4  and  C_5
REMARK    5  A    between atoms: C_7  and  O_25
REMARK    6  A    between atoms: C_20  and  O_22
REMARK    7  A    between atoms: O_22  and  C_23
REMARK    8  A    between atoms: O_25  and  C_26
REMARK    9  A    between atoms: C_26  and  C_27
REMARK   10  A    between atoms: C_27  and  C_28
REMARK   11  A    between atoms: C_28  and  N_29
REMARK                            x       y       z     vdW  Elec       q    Type
REMARK                         _______ _______ _______ _____ _____    ______ ____
ROOT
ATOM      1  C   UNL     1      -0.036  -0.635   2.294  0.00  0.00    +0.137 A 
ATOM      2  C   UNL     1      -1.399  -0.431   2.278  0.00  0.00    +0.092 A 
ATOM      3  C   UNL     1      -2.150  -0.553   3.448  0.00  0.00    +0.126 A 
ATOM      4  C   UNL     1      -1.546  -0.881   4.645  0.00  0.00    +0.074 A 
ATOM      5  C   UNL     1      -0.165  -1.094   4.689  0.00  0.00    +0.083 A 
ATOM      6  C   UNL     1       0.598  -0.975   3.501  0.00  0.00    +0.082 A 
ATOM      7  C   UNL     1       1.991  -1.201   3.576  0.00  0.00    +0.139 A 
ATOM      8  N   UNL     1       2.513  -1.519   4.755  0.00  0.00    -0.220 NA
ATOM      9  C   UNL     1       1.761  -1.624   5.838  0.00  0.00    +0.223 A 
ATOM     10  N   UNL     1       0.466  -1.414   5.831  0.00  0.00    -0.235 NA
ATOM     11  N   UNL     1       2.788  -1.096   2.454  0.00  0.00    -0.282 N 
ATOM     12  C   UNL     1       4.135  -1.440   2.521  0.00  0.00    +0.146 A 
ATOM     13  C   UNL     1       4.933  -1.326   1.388  0.00  0.00    +0.081 A 
ATOM     14  C   UNL     1       6.272  -1.671   1.466  0.00  0.00    +0.028 A 
ATOM     15  C   UNL     1       6.771  -2.122   2.679  0.00  0.00    +0.069 A 
ATOM     16  C   UNL     1       5.919  -2.212   3.771  0.00  0.00    +0.216 A 
ATOM     17  N   UNL     1       4.646  -1.869   3.666  0.00  0.00    -0.196 NA
ATOM     18 CL   UNL     1       4.258  -0.757  -0.107  0.00  0.00    -0.080 Cl
ATOM     19  H   UNL     1       2.409  -0.781   1.618  0.00  0.00    +0.155 HD
ENDROOT
BRANCH  16  20
ATOM     20  O   UNL     1       6.400  -2.652   4.961  0.00  0.00    -0.480 OA
ATOM     21  C   UNL     1       5.474  -2.723   6.048  0.00  0.00    +0.279 C 
ENDBRANCH  16  20
BRANCH   1  22
ATOM     22  O   UNL     1       0.687  -0.514   1.152  0.00  0.00    -0.488 OA
BRANCH  22  24
ATOM     23  C   UNL     1      -0.096   1.449  -0.020  0.00  0.00    +0.051 C 
ATOM     24  C   UNL     1      -0.012  -0.079  -0.016  0.00  0.00    +0.167 C 
ATOM     25  C   UNL     1       0.736  -0.552  -1.264  0.00  0.00    +0.051 C 
ENDBRANCH  22  24
ENDBRANCH   1  22
BRANCH   3  26
ATOM     26  O   UNL     1      -3.491  -0.346   3.408  0.00  0.00    -0.492 OA
BRANCH  26  27
ATOM     27  C   UNL     1      -4.206  -0.486   4.637  0.00  0.00    +0.227 C 
BRANCH  27  28
ATOM     28  C   UNL     1      -5.693  -0.218   4.396  0.00  0.00    +0.022 C 
BRANCH  28  29
ATOM     29  C   UNL     1      -6.458  -0.367   5.712  0.00  0.00    -0.075 C 
BRANCH  29  30
ATOM     30  N   UNL     1      -7.886  -0.110   5.481  0.00  0.00    +0.383 N 
ATOM     31  C   UNL     1      -8.072   1.292   5.081  0.00  0.00    -0.050 C 
ATOM     32  C   UNL     1      -9.560   1.557   4.840  0.00  0.00    +0.141 C 
ATOM     33  O   UNL     1     -10.293   1.248   6.029  0.00  0.00    -0.383 OA
ATOM     34  C   UNL     1     -10.124  -0.101   6.472  0.00  0.00    +0.141 C 
ATOM     35  C   UNL     1      -8.637  -0.370   6.716  0.00  0.00    -0.050 C 
ATOM     36  H   UNL     1      -8.222  -0.717   4.748  0.00  0.00    -0.082 HD
ENDBRANCH  29  30
ENDBRANCH  28  29
ENDBRANCH  27  28
ENDBRANCH  26  27
ENDBRANCH   3  26
TORSDOF 8
