REMARK  Name = CHEMBL436968
REMARK  9 active torsions:
REMARK  status: ('A' for Active; 'I' for Inactive)
REMARK    1  A    between atoms: C_1  and  C_2
REMARK    2  A    between atoms: C_2  and  C_3
REMARK    3  A    between atoms: C_2  and  O_4
REMARK    4  A    between atoms: O_4  and  C_5
REMARK    5  A    between atoms: C_7  and  O_26
REMARK    6  A    between atoms: N_15  and  C_16
REMARK    7  A    between atoms: O_26  and  C_27
REMARK    8  A    between atoms: C_27  and  C_28
REMARK    9  A    between atoms: C_28  and  N_29
REMARK                            x       y       z     vdW  Elec       q    Type
REMARK                         _______ _______ _______ _____ _____    ______ ____
ROOT
ATOM      1  C   UNL     1      -1.678  -0.624  -0.934  0.00  0.00    +0.137 A 
ATOM      2  C   UNL     1      -0.905  -0.375  -2.048  0.00  0.00    +0.092 A 
ATOM      3  C   UNL     1      -1.112  -1.088  -3.229  0.00  0.00    +0.126 A 
ATOM      4  C   UNL     1      -2.093  -2.055  -3.310  0.00  0.00    +0.074 A 
ATOM      5  C   UNL     1      -2.891  -2.327  -2.194  0.00  0.00    +0.083 A 
ATOM      6  C   UNL     1      -2.679  -1.608  -0.992  0.00  0.00    +0.082 A 
ATOM      7  C   UNL     1      -3.498  -1.908   0.120  0.00  0.00    +0.138 A 
ATOM      8  N   UNL     1      -4.421  -2.852  -0.017  0.00  0.00    -0.220 NA
ATOM      9  C   UNL     1      -4.581  -3.502  -1.158  0.00  0.00    +0.223 A 
ATOM     10  N   UNL     1      -3.858  -3.258  -2.226  0.00  0.00    -0.235 NA
ATOM     11  N   UNL     1      -3.342  -1.239   1.316  0.00  0.00    -0.295 N 
ATOM     12  H   UNL     1      -2.722  -0.495   1.378  0.00  0.00    +0.154 HD
ENDROOT
BRANCH  11  13
ATOM     13  C   UNL     1      -4.079  -1.632   2.440  0.00  0.00    +0.097 A 
ATOM     14  C   UNL     1      -5.468  -1.626   2.398  0.00  0.00    +0.066 A 
ATOM     15  C   UNL     1      -6.195  -2.015   3.508  0.00  0.00    +0.025 A 
ATOM     16  C   UNL     1      -5.545  -2.410   4.662  0.00  0.00    +0.051 A 
ATOM     17  C   UNL     1      -4.159  -2.419   4.713  0.00  0.00    +0.168 A 
ATOM     18  C   UNL     1      -3.422  -2.034   3.598  0.00  0.00    +0.189 A 
ATOM     19  O   UNL     1      -2.093  -2.135   3.896  0.00  0.00    -0.451 OA
ATOM     20  C   UNL     1      -2.026  -2.200   5.333  0.00  0.00    +0.466 C 
ATOM     21  O   UNL     1      -3.293  -2.760   5.712  0.00  0.00    -0.453 OA
ATOM     22 CL   UNL     1      -6.290  -1.131   0.952  0.00  0.00    -0.081 Cl
ENDBRANCH  11  13
BRANCH   1  23
ATOM     23  O   UNL     1      -1.470   0.074   0.212  0.00  0.00    -0.488 OA
BRANCH  23  25
ATOM     24  C   UNL     1      -1.102   2.383  -0.400  0.00  0.00    +0.051 C 
ATOM     25  C   UNL     1      -0.483   1.106   0.173  0.00  0.00    +0.167 C 
ATOM     26  C   UNL     1       0.027   1.378   1.590  0.00  0.00    +0.051 C 
ENDBRANCH  23  25
ENDBRANCH   1  23
BRANCH   3  27
ATOM     27  O   UNL     1      -0.338  -0.826  -4.314  0.00  0.00    -0.491 OA
BRANCH  27  28
ATOM     28  C   UNL     1      -0.598  -1.587  -5.495  0.00  0.00    +0.244 C 
BRANCH  28  29
ATOM     29  C   UNL     1       0.365  -1.155  -6.603  0.00  0.00    +0.125 C 
BRANCH  29  30
ATOM     30  N   UNL     1       1.740  -1.500  -6.218  0.00  0.00    -0.295 NA
ATOM     31  C   UNL     1       2.716  -0.719  -6.992  0.00  0.00    +0.112 C 
ATOM     32  C   UNL     1       4.130  -1.064  -6.519  0.00  0.00    +0.175 C 
ATOM     33  O   UNL     1       4.339  -2.473  -6.648  0.00  0.00    -0.377 OA
ATOM     34  C   UNL     1       3.407  -3.264  -5.906  0.00  0.00    +0.175 C 
ATOM     35  C   UNL     1       1.986  -2.941  -6.373  0.00  0.00    +0.112 C 
ENDBRANCH  29  30
ENDBRANCH  28  29
ENDBRANCH  27  28
ENDBRANCH   3  27
TORSDOF 7
