REMARK  Name = CHEMBL67647
REMARK  8 active torsions:
REMARK  status: ('A' for Active; 'I' for Inactive)
REMARK    1  A    between atoms: C_1  and  O_2
REMARK    2  A    between atoms: O_2  and  C_3
REMARK    3  A    between atoms: C_5  and  N_11
REMARK    4  A    between atoms: N_11  and  C_12
REMARK    5  A    between atoms: C_16  and  C_24
REMARK    6  A    between atoms: C_21  and  C_22
REMARK    7  A    between atoms: C_24  and  C_25
REMARK    8  A    between atoms: C_25  and  C_26
REMARK                            x       y       z     vdW  Elec       q    Type
REMARK                         _______ _______ _______ _____ _____    ______ ____
ROOT
ATOM      1  C   UNL     1      -4.637   1.720  -0.235  0.00  0.00    +0.060 A 
ATOM      2  C   UNL     1      -5.780   2.525  -0.013  0.00  0.00    +0.023 A 
ATOM      3  C   UNL     1      -6.988   1.965   0.425  0.00  0.00    +0.012 A 
ATOM      4  C   UNL     1      -8.069   2.770   0.629  0.00  0.00    +0.004 A 
ATOM      5  C   UNL     1      -7.988   4.141   0.407  0.00  0.00    -0.045 A 
ATOM      6  C   UNL     1      -6.829   4.716  -0.019  0.00  0.00    +0.032 A 
ATOM      7  C   UNL     1      -5.694   3.919  -0.240  0.00  0.00    +0.073 A 
ATOM      8  N   UNL     1      -4.543   4.465  -0.658  0.00  0.00    -0.254 NA
ATOM      9  C   UNL     1      -3.471   3.746  -0.871  0.00  0.00    +0.132 A 
ATOM     10  C   UNL     1      -3.464   2.357  -0.667  0.00  0.00    +0.091 A 
ENDROOT
BRANCH   1  11
ATOM     11  N   UNL     1      -4.673   0.357  -0.028  0.00  0.00    -0.312 N 
ATOM     12  H   UNL     1      -5.521  -0.115  -0.053  0.00  0.00    +0.152 HD
BRANCH  11  15
ATOM     13  C   UNL     1      -1.843  -1.953  -0.468  0.00  0.00    +0.140 A 
ATOM     14  C   UNL     1      -3.017  -1.259  -0.714  0.00  0.00    +0.071 A 
ATOM     15  C   UNL     1      -3.489  -0.345   0.217  0.00  0.00    +0.053 A 
ATOM     16  C   UNL     1      -2.783  -0.128   1.395  0.00  0.00    +0.064 A 
ATOM     17  C   UNL     1      -1.612  -0.822   1.637  0.00  0.00    +0.045 A 
ATOM     18  C   UNL     1      -1.144  -1.737   0.712  0.00  0.00    +0.084 A 
ATOM     19 CL   UNL     1       0.323  -2.611   1.023  0.00  0.00    -0.080 Cl
ATOM     20 CL   UNL     1      -3.371   1.016   2.562  0.00  0.00    -0.082 Cl
BRANCH  13  22
ATOM     21  C   UNL     1      -2.083  -2.937  -2.619  0.00  0.00    +0.277 C 
ATOM     22  O   UNL     1      -1.379  -2.849  -1.379  0.00  0.00    -0.494 OA
ENDBRANCH  13  22
ENDBRANCH  11  15
ENDBRANCH   1  11
BRANCH  10  23
ATOM     23  C   UNL     1      -2.273   1.597  -0.903  0.00  0.00    +0.103 C 
ATOM     24  N   UNL     1      -1.329   0.994  -1.091  0.00  0.00    -0.191 NA
ENDBRANCH  10  23
BRANCH   5  25
ATOM     25  C   UNL     1      -9.201   5.004   0.642  0.00  0.00    +0.040 C 
BRANCH  25  26
ATOM     26  C   UNL     1      -9.206   5.494   2.091  0.00  0.00    +0.040 C 
BRANCH  26  27
ATOM     27  C   UNL     1     -10.419   6.356   2.326  0.00  0.00    -0.044 A 
ATOM     28  C   UNL     1     -10.370   7.725   2.108  0.00  0.00    +0.023 A 
ATOM     29  C   UNL     1     -11.502   8.484   2.334  0.00  0.00    +0.111 A 
ATOM     30  N   UNL     1     -12.619   7.921   2.752  0.00  0.00    -0.263 NA
ATOM     31  C   UNL     1     -12.703   6.623   2.970  0.00  0.00    +0.111 A 
ATOM     32  C   UNL     1     -11.613   5.800   2.759  0.00  0.00    +0.023 A 
ENDBRANCH  26  27
ENDBRANCH  25  26
ENDBRANCH   5  25
TORSDOF 7
