REMARK  Name = CHEMBL1081312
REMARK  2 active torsions:
REMARK  status: ('A' for Active; 'I' for Inactive)
REMARK    1  A    between atoms: C_8  and  C_11
REMARK    2  A    between atoms: N_18  and  C_20
REMARK                            x       y       z     vdW  Elec       q    Type
REMARK                         _______ _______ _______ _____ _____    ______ ____
ROOT
ATOM      1  C   UNL     1      -1.805  -3.234  -0.410  0.00  0.00    +0.107 A 
ATOM      2  C   UNL     1      -1.608  -4.579  -0.949  0.00  0.00    +0.086 A 
ATOM      3  C   UNL     1      -0.583  -5.224  -1.661  0.00  0.00    +0.131 A 
ATOM      4  N   UNL     1      -0.754  -6.498  -1.998  0.00  0.00    -0.220 NA
ATOM      5  C   UNL     1      -1.858  -7.147  -1.675  0.00  0.00    +0.225 A 
ATOM      6  N   UNL     1      -2.844  -6.586  -1.010  0.00  0.00    -0.216 NA
ATOM      7  C   UNL     1      -2.766  -5.311  -0.627  0.00  0.00    +0.164 A 
ATOM      8  N   UNL     1      -3.592  -4.467   0.053  0.00  0.00    -0.243 N 
ATOM      9  N   UNL     1      -2.979  -3.215   0.175  0.00  0.00    -0.168 NA
ATOM     10  N   UNL     1       0.574  -4.550  -2.002  0.00  0.00    -0.342 N 
ATOM     11  H   UNL     1       0.794  -3.713  -1.565  0.00  0.00    +0.144 HD
ATOM     12  H   UNL     1       1.166  -4.915  -2.679  0.00  0.00    +0.144 HD
ENDROOT
BRANCH   1  20
ATOM     13  C   UNL     1       1.528  -0.144  -2.765  0.00  0.00    +0.029 A 
ATOM     14  C   UNL     1       2.171   0.886  -2.194  0.00  0.00    +0.085 A 
ATOM     15  N   UNL     1       1.804   0.994  -0.879  0.00  0.00    -0.346 N 
ATOM     16  H   UNL     1       2.137   1.664  -0.262  0.00  0.00    +0.167 HD
ATOM     17  C   UNL     1       0.895   0.013  -0.562  0.00  0.00    +0.138 A 
ATOM     18  C   UNL     1       0.682  -0.744  -1.731  0.00  0.00    +0.019 A 
ATOM     19  C   UNL     1      -0.204  -1.820  -1.703  0.00  0.00    +0.023 A 
ATOM     20  C   UNL     1      -0.851  -2.103  -0.501  0.00  0.00    +0.022 A 
ATOM     21  C   UNL     1      -0.588  -1.307   0.617  0.00  0.00    +0.123 A 
ATOM     22  N   UNL     1       0.254  -0.299   0.558  0.00  0.00    -0.237 NA
ENDBRANCH   1  20
BRANCH   8  23
ATOM     23  C   UNL     1      -4.913  -4.817   0.580  0.00  0.00    +0.109 C 
ATOM     24  C   UNL     1      -5.982  -3.868   0.001  0.00  0.00    +0.027 C 
ATOM     25  C   UNL     1      -6.965  -3.641   1.176  0.00  0.00    +0.002 C 
ATOM     26  C   UNL     1      -6.022  -3.571   2.402  0.00  0.00    +0.002 C 
ATOM     27  C   UNL     1      -4.938  -4.628   2.107  0.00  0.00    +0.027 C 
ENDBRANCH   8  23
TORSDOF 2
