REMARK  Name = CHEMBL103454
REMARK  11 active torsions:
REMARK  status: ('A' for Active; 'I' for Inactive)
REMARK    1  A    between atoms: C_1  and  C_2
REMARK    2  A    between atoms: C_2  and  N_3
REMARK    3  A    between atoms: N_6  and  C_9
REMARK    4  A    between atoms: C_9  and  C_10
REMARK    5  A    between atoms: C_10  and  C_11
REMARK    6  A    between atoms: C_14  and  C_17
REMARK    7  A    between atoms: C_25  and  C_38
REMARK    8  A    between atoms: C_26  and  N_27
REMARK    9  A    between atoms: N_27  and  C_28
REMARK   10  A    between atoms: C_30  and  O_36
REMARK   11  A    between atoms: O_36  and  C_37
REMARK                            x       y       z     vdW  Elec       q    Type
REMARK                         _______ _______ _______ _____ _____    ______ ____
ROOT
ATOM      1  C   UNL     1      -9.820  -7.161   1.766  0.00  0.00    -0.016 A 
ATOM      2  C   UNL     1     -10.537  -7.205   2.971  0.00  0.00    +0.009 A 
ATOM      3  C   UNL     1     -11.873  -7.461   2.975  0.00  0.00    +0.012 A 
ATOM      4  C   UNL     1     -12.546  -7.683   1.764  0.00  0.00    +0.023 A 
ATOM      5  C   UNL     1     -11.836  -7.642   0.540  0.00  0.00    +0.073 A 
ATOM      6  C   UNL     1     -10.460  -7.371   0.558  0.00  0.00    +0.037 A 
ATOM      7  N   UNL     1     -12.475  -7.853  -0.620  0.00  0.00    -0.254 NA
ATOM      8  C   UNL     1     -13.759  -8.102  -0.669  0.00  0.00    +0.132 A 
ATOM      9  C   UNL     1     -14.542  -8.162   0.495  0.00  0.00    +0.091 A 
ATOM     10  C   UNL     1     -13.935  -7.951   1.742  0.00  0.00    +0.060 A 
ENDROOT
BRANCH   1  14
ATOM     11  C   UNL     1      -5.645  -6.356   1.827  0.00  0.00    -0.046 A 
ATOM     12  C   UNL     1      -6.355  -6.406   3.014  0.00  0.00    +0.004 A 
ATOM     13  C   UNL     1      -7.710  -6.666   3.000  0.00  0.00    +0.009 A 
ATOM     14  C   UNL     1      -8.364  -6.880   1.788  0.00  0.00    -0.018 A 
ATOM     15  C   UNL     1      -7.644  -6.828   0.595  0.00  0.00    +0.009 A 
ATOM     16  C   UNL     1      -6.290  -6.562   0.621  0.00  0.00    +0.004 A 
BRANCH  11  17
ATOM     17  C   UNL     1      -4.166  -6.070   1.849  0.00  0.00    +0.050 C 
BRANCH  17  18
ATOM     18  C   UNL     1      -3.937  -4.560   1.760  0.00  0.00    +0.089 C 
BRANCH  18  22
ATOM     19  N   UNL     1      -0.090  -3.102   0.788  0.00  0.00    +0.381 N 
ATOM     20  C   UNL     1      -0.729  -2.602   2.013  0.00  0.00    -0.063 C 
ATOM     21  C   UNL     1      -2.238  -2.843   1.936  0.00  0.00    +0.066 C 
ATOM     22  N   UNL     1      -2.494  -4.282   1.781  0.00  0.00    -0.306 NA
ATOM     23  C   UNL     1      -1.840  -4.801   0.572  0.00  0.00    +0.066 C 
ATOM     24  C   UNL     1      -0.334  -4.544   0.660  0.00  0.00    -0.063 C 
ATOM     25  H   UNL     1      -0.476  -2.623  -0.011  0.00  0.00    -0.082 HD
BRANCH  19  27
ATOM     26  C   UNL     1       1.616  -1.346   0.863  0.00  0.00    -0.017 C 
ATOM     27  C   UNL     1       1.357  -2.854   0.855  0.00  0.00    -0.082 C 
ENDBRANCH  19  27
ENDBRANCH  18  22
ENDBRANCH  17  18
ENDBRANCH  11  17
ENDBRANCH   1  14
BRANCH  10  28
ATOM     28  N   UNL     1     -14.670  -8.001   2.909  0.00  0.00    -0.312 N 
ATOM     29  H   UNL     1     -14.347  -7.550   3.705  0.00  0.00    +0.152 HD
BRANCH  28  30
ATOM     30  C   UNL     1     -15.879  -8.702   2.945  0.00  0.00    +0.053 A 
ATOM     31  C   UNL     1     -17.075  -8.017   3.110  0.00  0.00    +0.071 A 
ATOM     32  C   UNL     1     -18.272  -8.715   3.144  0.00  0.00    +0.140 A 
ATOM     33  C   UNL     1     -18.273 -10.098   3.013  0.00  0.00    +0.084 A 
ATOM     34  C   UNL     1     -17.081 -10.779   2.849  0.00  0.00    +0.045 A 
ATOM     35  C   UNL     1     -15.885 -10.086   2.809  0.00  0.00    +0.064 A 
ATOM     36 CL   UNL     1     -14.391 -10.944   2.596  0.00  0.00    -0.082 Cl
ATOM     37 CL   UNL     1     -19.772 -10.972   3.056  0.00  0.00    -0.080 Cl
BRANCH  32  38
ATOM     38  O   UNL     1     -19.444  -8.047   3.305  0.00  0.00    -0.494 OA
ATOM     39  C   UNL     1     -19.381  -6.619   3.317  0.00  0.00    +0.277 C 
ENDBRANCH  32  38
ENDBRANCH  28  30
ENDBRANCH  10  28
BRANCH   9  40
ATOM     40  C   UNL     1     -15.945  -8.435   0.409  0.00  0.00    +0.103 C 
ATOM     41  N   UNL     1     -17.058  -8.652   0.342  0.00  0.00    -0.191 NA
ENDBRANCH   9  40
TORSDOF 9
