REMARK  Name = CHEMBL1163016
REMARK  11 active torsions:
REMARK  status: ('A' for Active; 'I' for Inactive)
REMARK    1  A    between atoms: C_1  and  C_2
REMARK    2  A    between atoms: C_2  and  C_37
REMARK    3  A    between atoms: C_4  and  N_11
REMARK    4  A    between atoms: C_6  and  C_9
REMARK    5  A    between atoms: C_6  and  C_10
REMARK    6  A    between atoms: N_7  and  O_8
REMARK    7  A    between atoms: C_12  and  C_14
REMARK    8  A    between atoms: C_18  and  C_20
REMARK    9  A    between atoms: C_26  and  N_29
REMARK   10  A    between atoms: N_29  and  C_30
REMARK   11  A    between atoms: C_34  and  O_36
REMARK                            x       y       z     vdW  Elec       q    Type
REMARK                         _______ _______ _______ _____ _____    ______ ____
ROOT
ATOM      1  C   UNL     1       2.965  -4.396  -3.430  0.00  0.00    +0.037 A 
ATOM      2  C   UNL     1       3.774  -3.456  -4.072  0.00  0.00    +0.013 A 
ATOM      3  C   UNL     1       4.344  -3.753  -5.293  0.00  0.00    +0.001 A 
ATOM      4  C   UNL     1       4.118  -4.980  -5.888  0.00  0.00    +0.010 A 
ATOM      5  C   UNL     1       3.312  -5.926  -5.256  0.00  0.00    +0.003 A 
ATOM      6  C   UNL     1       2.739  -5.637  -4.023  0.00  0.00    +0.023 A 
ENDROOT
BRANCH   5   7
ATOM      7  C   UNL     1       3.071  -7.243  -5.898  0.00  0.00    +0.095 A 
ATOM      8  C   UNL     1       3.671  -7.699  -7.075  0.00  0.00    +0.078 A 
ATOM      9  C   UNL     1       3.179  -8.969  -7.332  0.00  0.00    +0.158 A 
ATOM     10  N   UNL     1       3.417  -9.848  -8.317  0.00  0.00    -0.236 NA
ATOM     11  C   UNL     1       2.813 -11.017  -8.342  0.00  0.00    +0.116 A 
ATOM     12  C   UNL     1       1.909 -11.366  -7.339  0.00  0.00    +0.063 A 
ATOM     13  C   UNL     1       1.655 -10.481  -6.326  0.00  0.00    +0.128 A 
ATOM     14  N   UNL     1       2.298  -9.271  -6.325  0.00  0.00    -0.200 N 
ATOM     15  N   UNL     1       2.258  -8.181  -5.448  0.00  0.00    -0.163 NA
BRANCH  13  16
ATOM     16  N   UNL     1       0.765 -10.802  -5.322  0.00  0.00    -0.299 N 
ATOM     17  H   UNL     1       0.911 -11.593  -4.779  0.00  0.00    +0.154 HD
BRANCH  16  18
ATOM     18  C   UNL     1      -0.346  -9.988  -5.087  0.00  0.00    +0.036 A 
ATOM     19  C   UNL     1      -0.640  -8.943  -5.955  0.00  0.00    +0.023 A 
ATOM     20  C   UNL     1      -1.738  -8.139  -5.723  0.00  0.00    +0.005 A 
ATOM     21  C   UNL     1      -2.548  -8.370  -4.626  0.00  0.00    +0.045 A 
ATOM     22  C   UNL     1      -2.260  -9.412  -3.756  0.00  0.00    +0.119 A 
ATOM     23  C   UNL     1      -1.161 -10.224  -3.988  0.00  0.00    +0.068 A 
BRANCH  22  24
ATOM     24  O   UNL     1      -3.056  -9.637  -2.678  0.00  0.00    -0.507 OA
ATOM     25  H   UNL     1      -3.788 -10.246  -2.850  0.00  0.00    +0.292 HD
ENDBRANCH  22  24
ENDBRANCH  16  18
ENDBRANCH  13  16
ENDBRANCH   5   7
BRANCH   1  27
ATOM     26  N   UNL     1       2.573  -2.877  -1.550  0.00  0.00    -0.308 N 
ATOM     27  C   UNL     1       2.354  -4.077  -2.122  0.00  0.00    +0.244 C 
ATOM     28  O   UNL     1       1.654  -4.899  -1.562  0.00  0.00    -0.270 OA
ATOM     29  H   UNL     1       3.132  -2.222  -1.997  0.00  0.00    +0.149 HD
BRANCH  26  33
ATOM     30  C   UNL     1       1.362   0.839   1.424  0.00  0.00    +0.030 C 
ATOM     31  C   UNL     1       1.214  -0.687   1.236  0.00  0.00    +0.043 C 
ATOM     32  C   UNL     1       1.826  -1.045  -0.116  0.00  0.00    +0.046 C 
ATOM     33  C   UNL     1       1.967  -2.561  -0.251  0.00  0.00    +0.077 C 
ATOM     34  C   UNL     1       2.881  -3.063   0.867  0.00  0.00    +0.046 C 
ATOM     35  C   UNL     1       2.284  -2.729   2.232  0.00  0.00    +0.043 C 
ATOM     36  N   UNL     1       1.870  -1.346   2.345  0.00  0.00    -0.180 NA
ATOM     37  C   UNL     1       3.373  -2.995   3.294  0.00  0.00    +0.030 C 
ATOM     38  C   UNL     1       1.119  -3.681   2.529  0.00  0.00    +0.030 C 
ATOM     39  C   UNL     1      -0.288  -0.998   1.217  0.00  0.00    +0.030 C 
BRANCH  36  40
ATOM     40  O   UNL     1       1.210  -1.069   3.621  0.00  0.00    -0.311 OA
ATOM     41  H   UNL     1       1.628  -1.497   4.381  0.00  0.00    +0.237 HD
ENDBRANCH  36  40
ENDBRANCH  26  33
ENDBRANCH   1  27
TORSDOF 7
