REMARK  Name = CHEMBL166390
REMARK  6 active torsions:
REMARK  status: ('A' for Active; 'I' for Inactive)
REMARK    1  A    between atoms: C_1  and  C_2
REMARK    2  A    between atoms: C_5  and  N_8
REMARK    3  A    between atoms: N_10  and  C_19
REMARK    4  A    between atoms: C_19  and  C_20
REMARK    5  A    between atoms: C_19  and  C_21
REMARK    6  A    between atoms: C_19  and  C_22
REMARK                            x       y       z     vdW  Elec       q    Type
REMARK                         _______ _______ _______ _____ _____    ______ ____
ROOT
ATOM      1  N   UNL     1       0.035  -4.154  -0.028  0.00  0.00    -0.270 N 
ATOM      2  C   UNL     1       0.162  -4.904   1.232  0.00  0.00    +0.222 C 
ATOM      3  N   UNL     1      -0.928  -5.893   1.337  0.00  0.00    -0.292 N 
ATOM      4  C   UNL     1      -1.261  -6.601   0.175  0.00  0.00    +0.155 A 
ATOM      5  C   UNL     1      -0.836  -6.131  -1.108  0.00  0.00    +0.072 A 
ATOM      6  C   UNL     1      -1.296  -7.005  -2.041  0.00  0.00    +0.118 A 
ATOM      7  N   UNL     1      -1.973  -7.971  -1.384  0.00  0.00    -0.282 N 
ATOM      8  N   UNL     1      -1.933  -7.691  -0.008  0.00  0.00    -0.158 NA
ATOM      9  H   UNL     1      -2.413  -8.732  -1.794  0.00  0.00    +0.188 HD
ATOM     10  C   UNL     1      -0.043  -4.887  -1.220  0.00  0.00    +0.110 C 
ATOM     11  N   UNL     1       0.533  -4.510  -2.328  0.00  0.00    -0.386 N 
ATOM     12  H   UNL     1       1.120  -3.738  -2.331  0.00  0.00    +0.157 HD
ATOM     13  H   UNL     1       0.374  -5.002  -3.149  0.00  0.00    +0.157 HD
ENDROOT
BRANCH   1  18
ATOM     14  C   UNL     1      -0.157   1.514  -0.057  0.00  0.00    +0.044 C 
ATOM     15  C   UNL     1      -0.106   0.008  -0.050  0.00  0.00    -0.050 A 
ATOM     16  C   UNL     1      -0.305  -0.695  -1.224  0.00  0.00    +0.005 A 
ATOM     17  C   UNL     1      -0.259  -2.075  -1.220  0.00  0.00    +0.024 A 
ATOM     18  C   UNL     1      -0.012  -2.757  -0.035  0.00  0.00    +0.037 A 
ATOM     19  C   UNL     1       0.188  -2.048   1.142  0.00  0.00    +0.024 A 
ATOM     20  C   UNL     1       0.146  -0.667   1.130  0.00  0.00    +0.005 A 
ENDBRANCH   1  18
BRANCH   3  21
ATOM     21  C   UNL     1      -1.630  -6.125   2.602  0.00  0.00    +0.029 C 
ATOM     22  C   UNL     1      -2.293  -4.825   3.063  0.00  0.00    +0.031 C 
ATOM     23  C   UNL     1      -2.701  -7.199   2.401  0.00  0.00    +0.031 C 
ATOM     24  C   UNL     1      -0.631  -6.592   3.662  0.00  0.00    +0.031 C 
ENDBRANCH   3  21
TORSDOF 2
