REMARK  Name = CHEMBL432314
REMARK  14 active torsions:
REMARK  status: ('A' for Active; 'I' for Inactive)
REMARK    1  A    between atoms: C_1  and  C_2
REMARK    2  A    between atoms: C_2  and  N_3
REMARK    3  A    between atoms: N_3  and  C_4
REMARK    4  A    between atoms: N_3  and  C_6
REMARK    5  A    between atoms: C_4  and  C_5
REMARK    6  A    between atoms: C_6  and  C_7
REMARK    7  A    between atoms: C_7  and  O_8
REMARK    8  A    between atoms: O_8  and  C_9
REMARK    9  A    between atoms: C_12  and  N_15
REMARK   10  A    between atoms: C_21  and  C_34
REMARK   11  A    between atoms: N_29  and  C_30
REMARK   12  A    between atoms: C_30  and  C_31
REMARK   13  A    between atoms: C_30  and  C_32
REMARK   14  A    between atoms: C_30  and  C_33
REMARK                            x       y       z     vdW  Elec       q    Type
REMARK                         _______ _______ _______ _____ _____    ______ ____
ROOT
ATOM      1  N   UNL     1      -8.449  -6.272  -1.142  0.00  0.00    -0.284 N 
ATOM      2  C   UNL     1      -9.109  -6.548  -2.324  0.00  0.00    +0.221 A 
ATOM      3  N   UNL     1      -8.579  -6.118  -3.467  0.00  0.00    -0.222 NA
ATOM      4  C   UNL     1      -9.163  -6.351  -4.625  0.00  0.00    +0.126 A 
ATOM      5  C   UNL     1     -10.370  -7.071  -4.635  0.00  0.00    +0.038 A 
ATOM      6  C   UNL     1     -11.052  -7.361  -5.828  0.00  0.00    +0.025 A 
ATOM      7  C   UNL     1     -12.236  -8.076  -5.743  0.00  0.00    +0.026 A 
ATOM      8  C   UNL     1     -12.710  -8.485  -4.478  0.00  0.00    +0.136 A 
ATOM      9  N   UNL     1     -12.052  -8.201  -3.372  0.00  0.00    -0.212 NA
ATOM     10  C   UNL     1     -10.907  -7.515  -3.398  0.00  0.00    +0.167 A 
ATOM     11  N   UNL     1     -10.237  -7.232  -2.274  0.00  0.00    -0.194 NA
ATOM     12  N   UNL     1     -13.895  -9.201  -4.396  0.00  0.00    -0.254 N 
ATOM     13  C   UNL     1     -14.361  -9.598  -3.196  0.00  0.00    +0.305 C 
ATOM     14  O   UNL     1     -13.743  -9.329  -2.184  0.00  0.00    -0.252 OA
ATOM     15  N   UNL     1     -15.513 -10.294  -3.117  0.00  0.00    -0.294 N 
ATOM     16  H   UNL     1      -8.772  -6.645  -0.307  0.00  0.00    +0.155 HD
ATOM     17  H   UNL     1     -14.388  -9.416  -5.204  0.00  0.00    +0.158 HD
ATOM     18  H   UNL     1     -16.006 -10.509  -3.924  0.00  0.00    +0.151 HD
ENDROOT
BRANCH   7  19
ATOM     19  C   UNL     1     -12.998  -8.409  -6.970  0.00  0.00    +0.022 A 
ATOM     20  C   UNL     1     -13.971  -7.532  -7.450  0.00  0.00    +0.050 A 
ATOM     21  C   UNL     1     -14.678  -7.849  -8.594  0.00  0.00    +0.021 A 
ATOM     22  C   UNL     1     -14.423  -9.032  -9.263  0.00  0.00    +0.003 A 
ATOM     23  C   UNL     1     -13.460  -9.906  -8.791  0.00  0.00    +0.021 A 
ATOM     24  C   UNL     1     -12.742  -9.599  -7.652  0.00  0.00    +0.050 A 
ATOM     25 CL   UNL     1     -11.528 -10.694  -7.066  0.00  0.00    -0.083 Cl
ATOM     26 CL   UNL     1     -14.292  -6.047  -6.611  0.00  0.00    -0.083 Cl
ENDBRANCH   7  19
BRANCH   1  30
ATOM     27  C   UNL     1      -5.065  -3.837  -1.164  0.00  0.00    +0.121 A 
ATOM     28  C   UNL     1      -6.097  -3.597  -2.058  0.00  0.00    +0.047 A 
ATOM     29  C   UNL     1      -7.218  -4.403  -2.052  0.00  0.00    +0.027 A 
ATOM     30  C   UNL     1      -7.312  -5.454  -1.149  0.00  0.00    +0.034 A 
ATOM     31  C   UNL     1      -6.278  -5.694  -0.254  0.00  0.00    +0.027 A 
ATOM     32  C   UNL     1      -5.155  -4.890  -0.265  0.00  0.00    +0.047 A 
BRANCH  27  33
ATOM     33  O   UNL     1      -3.961  -3.042  -1.171  0.00  0.00    -0.494 OA
BRANCH  33  34
ATOM     34  C   UNL     1      -3.935  -1.976  -2.122  0.00  0.00    +0.210 C 
BRANCH  34  35
ATOM     35  C   UNL     1      -2.580  -1.269  -2.059  0.00  0.00    -0.037 C 
BRANCH  35  36
ATOM     36  N   UNL     1      -1.520  -2.205  -2.455  0.00  0.00    +0.382 N 
ATOM     37  H   UNL     1      -1.577  -3.038  -1.887  0.00  0.00    -0.082 HD
BRANCH  36  39
ATOM     38  C   UNL     1      -0.661  -3.633  -4.250  0.00  0.00    -0.017 C 
ATOM     39  C   UNL     1      -1.688  -2.565  -3.869  0.00  0.00    -0.082 C 
ENDBRANCH  36  39
BRANCH  36  40
ATOM     40  C   UNL     1      -0.209  -1.570  -2.264  0.00  0.00    -0.082 C 
ATOM     41  C   UNL     1       0.036  -1.347  -0.770  0.00  0.00    -0.017 C 
ENDBRANCH  36  40
ENDBRANCH  35  36
ENDBRANCH  34  35
ENDBRANCH  33  34
ENDBRANCH  27  33
ENDBRANCH   1  30
BRANCH  15  42
ATOM     42  C   UNL     1     -16.020 -10.726  -1.812  0.00  0.00    +0.028 C 
ATOM     43  C   UNL     1     -16.267  -9.501  -0.930  0.00  0.00    +0.031 C 
ATOM     44  C   UNL     1     -17.331 -11.491  -2.002  0.00  0.00    +0.031 C 
ATOM     45  C   UNL     1     -14.990 -11.638  -1.141  0.00  0.00    +0.031 C 
ENDBRANCH  15  42
TORSDOF 9
