REMARK  Name = CHEMBL339893
REMARK  11 active torsions:
REMARK  status: ('A' for Active; 'I' for Inactive)
REMARK    1  A    between atoms: C_1  and  O_2
REMARK    2  A    between atoms: O_2  and  C_3
REMARK    3  A    between atoms: C_8  and  O_9
REMARK    4  A    between atoms: O_9  and  C_10
REMARK    5  A    between atoms: C_10  and  C_11
REMARK    6  A    between atoms: C_11  and  N_12
REMARK    7  A    between atoms: C_20  and  C_33
REMARK    8  A    between atoms: C_21  and  N_22
REMARK    9  A    between atoms: N_22  and  C_23
REMARK   10  A    between atoms: C_25  and  O_31
REMARK   11  A    between atoms: O_31  and  C_32
REMARK                            x       y       z     vdW  Elec       q    Type
REMARK                         _______ _______ _______ _____ _____    ______ ____
ROOT
ATOM      1  C   UNL     1       0.600  -0.734  -2.067  0.00  0.00    +0.162 A 
ATOM      2  C   UNL     1       1.357  -0.187  -3.063  0.00  0.00    +0.061 A 
ATOM      3  C   UNL     1       2.045  -1.022  -3.955  0.00  0.00    +0.026 A 
ATOM      4  C   UNL     1       1.952  -2.429  -3.821  0.00  0.00    +0.077 A 
ATOM      5  C   UNL     1       1.167  -2.967  -2.790  0.00  0.00    +0.077 A 
ATOM      6  C   UNL     1       0.507  -2.125  -1.923  0.00  0.00    +0.164 A 
ATOM      7  N   UNL     1       2.608  -3.233  -4.670  0.00  0.00    -0.253 NA
ATOM      8  C   UNL     1       3.348  -2.761  -5.641  0.00  0.00    +0.132 A 
ATOM      9  C   UNL     1       3.496  -1.380  -5.849  0.00  0.00    +0.091 A 
ATOM     10  C   UNL     1       2.836  -0.483  -4.995  0.00  0.00    +0.060 A 
ENDROOT
BRANCH   1  12
ATOM     11  C   UNL     1       0.069   1.487  -1.403  0.00  0.00    +0.277 C 
ATOM     12  O   UNL     1      -0.066   0.078  -1.203  0.00  0.00    -0.491 OA
ENDBRANCH   1  12
BRANCH  10  13
ATOM     13  N   UNL     1       2.957   0.882  -5.165  0.00  0.00    -0.312 N 
ATOM     14  H   UNL     1       2.827   1.478  -4.411  0.00  0.00    +0.152 HD
BRANCH  13  15
ATOM     15  C   UNL     1       3.265   1.405  -6.425  0.00  0.00    +0.053 A 
ATOM     16  C   UNL     1       4.495   2.010  -6.644  0.00  0.00    +0.071 A 
ATOM     17  C   UNL     1       4.798   2.527  -7.893  0.00  0.00    +0.140 A 
ATOM     18  C   UNL     1       3.871   2.440  -8.924  0.00  0.00    +0.084 A 
ATOM     19  C   UNL     1       2.646   1.837  -8.704  0.00  0.00    +0.045 A 
ATOM     20  C   UNL     1       2.342   1.315  -7.461  0.00  0.00    +0.064 A 
ATOM     21 CL   UNL     1       0.806   0.553  -7.191  0.00  0.00    -0.082 Cl
ATOM     22 CL   UNL     1       4.250   3.087 -10.489  0.00  0.00    -0.080 Cl
BRANCH  17  23
ATOM     23  O   UNL     1       6.002   3.120  -8.110  0.00  0.00    -0.494 OA
ATOM     24  C   UNL     1       6.948   3.079  -7.040  0.00  0.00    +0.277 C 
ENDBRANCH  17  23
ENDBRANCH  13  15
ENDBRANCH  10  13
BRANCH   9  25
ATOM     25  C   UNL     1       4.312  -0.893  -6.920  0.00  0.00    +0.103 C 
ATOM     26  N   UNL     1       4.960  -0.507  -7.769  0.00  0.00    -0.191 NA
ENDBRANCH   9  25
BRANCH   6  27
ATOM     27  O   UNL     1      -0.247  -2.649  -0.922  0.00  0.00    -0.490 OA
BRANCH  27  28
ATOM     28  C   UNL     1      -0.302  -4.074  -0.828  0.00  0.00    +0.211 C 
BRANCH  28  29
ATOM     29  C   UNL     1      -1.192  -4.473   0.351  0.00  0.00    -0.037 C 
BRANCH  29  30
ATOM     30  N   UNL     1      -2.570  -4.036   0.094  0.00  0.00    +0.385 N 
ATOM     31  C   UNL     1      -3.396  -4.293   1.282  0.00  0.00    -0.050 C 
ATOM     32  C   UNL     1      -4.832  -3.837   1.011  0.00  0.00    +0.141 C 
ATOM     33  O   UNL     1      -5.336  -4.524  -0.138  0.00  0.00    -0.383 OA
ATOM     34  C   UNL     1      -4.551  -4.323  -1.316  0.00  0.00    +0.141 C 
ATOM     35  C   UNL     1      -3.115  -4.780  -1.050  0.00  0.00    -0.050 C 
ATOM     36  H   UNL     1      -2.577  -3.048  -0.113  0.00  0.00    -0.081 HD
ENDBRANCH  29  30
ENDBRANCH  28  29
ENDBRANCH  27  28
ENDBRANCH   6  27
TORSDOF 9
