REMARK  Name = CHEMBL410119
REMARK  13 active torsions:
REMARK  status: ('A' for Active; 'I' for Inactive)
REMARK    1  A    between atoms: C_1  and  C_2
REMARK    2  A    between atoms: N_4  and  C_5
REMARK    3  A    between atoms: C_5  and  C_7
REMARK    4  A    between atoms: C_5  and  C_19
REMARK    5  A    between atoms: C_7  and  C_8
REMARK    6  A    between atoms: C_11  and  O_14
REMARK    7  A    between atoms: O_14  and  P_15
REMARK    8  A    between atoms: N_21  and  C_22
REMARK    9  A    between atoms: N_28  and  C_31
REMARK   10  A    between atoms: C_31  and  C_32
REMARK   11  A    between atoms: C_36  and  C_38
REMARK   12  A    between atoms: C_38  and  O_40
REMARK   13  A    between atoms: O_40  and  C_41
REMARK                            x       y       z     vdW  Elec       q    Type
REMARK                         _______ _______ _______ _____ _____    ______ ____
ROOT
ATOM      1  C   UNL     1      -1.197  -2.659  -0.458  0.00  0.00    +0.234 C 
ATOM      2  O   UNL     1      -1.800  -1.943   0.314  0.00  0.00    -0.274 OA
ATOM      3  N   UNL     1      -1.615  -3.923  -0.671  0.00  0.00    -0.302 N 
ATOM      4  H   UNL     1      -1.133  -4.495  -1.288  0.00  0.00    +0.150 HD
ENDROOT
BRANCH   3   5
ATOM      5  C   UNL     1      -2.798  -4.431   0.028  0.00  0.00    +0.169 C 
ATOM      6  C   UNL     1      -4.056  -4.042  -0.748  0.00  0.00    +0.101 C 
ATOM      7  S   UNL     1      -5.466  -3.905   0.379  0.00  0.00    -0.157 S 
ATOM      8  C   UNL     1      -5.673  -5.557   1.090  0.00  0.00    +0.088 C 
ATOM      9  C   UNL     1      -4.422  -5.952   1.876  0.00  0.00    +0.119 C 
ATOM     10  N   UNL     1      -3.475  -6.618   0.976  0.00  0.00    -0.295 N 
ATOM     11  C   UNL     1      -2.718  -5.934   0.125  0.00  0.00    +0.237 C 
ATOM     12  O   UNL     1      -1.946  -6.534  -0.592  0.00  0.00    -0.274 OA
BRANCH  10  13
ATOM     13  C   UNL     1      -3.360  -8.078   1.017  0.00  0.00    +0.143 C 
BRANCH  13  14
ATOM     14  C   UNL     1      -4.336  -8.687   0.043  0.00  0.00    -0.029 A 
ATOM     15  C   UNL     1      -5.619  -9.002   0.457  0.00  0.00    +0.005 A 
ATOM     16  C   UNL     1      -6.521  -9.561  -0.431  0.00  0.00    +0.001 A 
ATOM     17  C   UNL     1      -6.147  -9.809  -1.736  0.00  0.00    +0.015 A 
ATOM     18  C   UNL     1      -4.854  -9.493  -2.160  0.00  0.00    +0.059 A 
ATOM     19  C   UNL     1      -3.951  -8.923  -1.260  0.00  0.00    +0.020 A 
BRANCH  18  20
ATOM     20  C   UNL     1      -4.447  -9.755  -3.555  0.00  0.00    +0.339 C 
ATOM     21  O   UNL     1      -3.322  -9.480  -3.921  0.00  0.00    -0.245 OA
BRANCH  20  22
ATOM     22  O   UNL     1      -5.323 -10.300  -4.422  0.00  0.00    -0.464 OA
ATOM     23  C   UNL     1      -4.861 -10.526  -5.755  0.00  0.00    +0.280 C 
ENDBRANCH  20  22
ENDBRANCH  18  20
ENDBRANCH  13  14
ENDBRANCH  10  13
ENDBRANCH   3   5
BRANCH   1  24
ATOM     24  C   UNL     1       0.020  -2.136  -1.177  0.00  0.00    +0.163 C 
BRANCH  24  28
ATOM     25  C   UNL     1      -0.018   1.503   0.010  0.00  0.00    +0.109 C 
ATOM     26  C   UNL     1       0.002  -0.004   0.002  0.00  0.00    +0.211 C 
ATOM     27  O   UNL     1       0.020  -0.616   1.049  0.00  0.00    -0.276 OA
ATOM     28  N   UNL     1       0.000  -0.672  -1.169  0.00  0.00    -0.304 N 
ATOM     29  H   UNL     1      -0.015  -0.182  -2.006  0.00  0.00    +0.149 HD
ENDBRANCH  24  28
BRANCH  24  30
ATOM     30  C   UNL     1       1.283  -2.633  -0.470  0.00  0.00    +0.067 C 
BRANCH  30  31
ATOM     31  C   UNL     1       2.497  -2.214  -1.258  0.00  0.00    -0.045 A 
ATOM     32  C   UNL     1       2.998  -3.040  -2.247  0.00  0.00    +0.007 A 
ATOM     33  C   UNL     1       4.111  -2.658  -2.970  0.00  0.00    +0.046 A 
ATOM     34  C   UNL     1       4.727  -1.444  -2.704  0.00  0.00    +0.132 A 
ATOM     35  C   UNL     1       4.222  -0.616  -1.711  0.00  0.00    +0.046 A 
ATOM     36  C   UNL     1       3.106  -1.000  -0.994  0.00  0.00    +0.007 A 
BRANCH  34  37
ATOM     37  O   UNL     1       5.822  -1.066  -3.413  0.00  0.00    -0.401 OA
BRANCH  37  38
ATOM     38  P   UNL     1       5.483  -0.227  -4.745  0.00  0.00    +0.589 P 
ATOM     39  O   UNL     1       4.489  -1.045  -5.638  0.00  0.00    -0.211 OA
ATOM     40  O   UNL     1       4.825   1.139  -4.348  0.00  0.00    -0.104 OA
ATOM     41  O   UNL     1       6.803   0.042  -5.543  0.00  0.00    -0.104 OA
ENDBRANCH  37  38
ENDBRANCH  34  37
ENDBRANCH  30  31
ENDBRANCH  24  30
ENDBRANCH   1  24
TORSDOF 11
