REMARK  Name = CHEMBL496494
REMARK  7 active torsions:
REMARK  status: ('A' for Active; 'I' for Inactive)
REMARK    1  A    between atoms: C_1  and  C_2
REMARK    2  A    between atoms: N_5  and  C_20
REMARK    3  A    between atoms: C_8  and  C_9
REMARK    4  A    between atoms: C_23  and  C_26
REMARK    5  A    between atoms: C_26  and  C_27
REMARK    6  A    between atoms: C_26  and  C_28
REMARK    7  A    between atoms: C_26  and  C_29
REMARK                            x       y       z     vdW  Elec       q    Type
REMARK                         _______ _______ _______ _____ _____    ______ ____
ROOT
ATOM      1  C   UNL     1      -0.052   1.502   0.022  0.00  0.00    +0.044 C 
ATOM      2  C   UNL     1      -0.014  -0.004   0.008  0.00  0.00    -0.036 A 
ATOM      3  C   UNL     1      -0.690  -0.722  -0.985  0.00  0.00    +0.022 A 
ATOM      4  C   UNL     1      -0.650  -2.076  -0.990  0.00  0.00    +0.095 A 
ATOM      5  N   UNL     1       0.040  -2.761  -0.041  0.00  0.00    -0.284 N 
ATOM      6  C   UNL     1       0.706  -2.115   0.934  0.00  0.00    +0.264 A 
ATOM      7  O   UNL     1       1.321  -2.746   1.778  0.00  0.00    -0.267 OA
ATOM      8  C   UNL     1       0.696  -0.699   0.976  0.00  0.00    +0.050 A 
ENDROOT
BRANCH   8   9
ATOM      9  C   UNL     1       1.428   0.028   2.038  0.00  0.00    -0.012 A 
ATOM     10  C   UNL     1       2.514   0.852   1.698  0.00  0.00    +0.011 A 
ATOM     11  C   UNL     1       3.203   1.530   2.653  0.00  0.00    +0.029 A 
ATOM     12  C   UNL     1       2.831   1.412   4.002  0.00  0.00    +0.076 A 
ATOM     13  C   UNL     1       1.736   0.582   4.357  0.00  0.00    +0.019 A 
ATOM     14  C   UNL     1       1.034  -0.106   3.359  0.00  0.00    +0.020 A 
ATOM     15  C   UNL     1       1.385   0.482   5.717  0.00  0.00    +0.124 A 
ATOM     16  N   UNL     1       2.088   1.162   6.598  0.00  0.00    -0.222 NA
ATOM     17  C   UNL     1       3.110   1.931   6.230  0.00  0.00    +0.213 A 
ATOM     18  N   UNL     1       3.484   2.063   4.972  0.00  0.00    -0.215 NA
ATOM     19  N   UNL     1       3.808   2.620   7.205  0.00  0.00    -0.327 N 
ATOM     20  H   UNL     1       3.550   2.537   8.137  0.00  0.00    +0.145 HD
ATOM     21  H   UNL     1       4.556   3.186   6.958  0.00  0.00    +0.145 HD
ENDBRANCH   8   9
BRANCH   5  22
ATOM     22  C   UNL     1       0.058  -4.161  -0.077  0.00  0.00    +0.049 A 
ATOM     23  C   UNL     1       1.051  -4.826  -0.785  0.00  0.00    +0.026 A 
ATOM     24  C   UNL     1       1.067  -6.206  -0.819  0.00  0.00    +0.006 A 
ATOM     25  C   UNL     1       0.095  -6.927  -0.149  0.00  0.00    -0.042 A 
ATOM     26  C   UNL     1      -0.895  -6.268   0.557  0.00  0.00    +0.006 A 
ATOM     27  C   UNL     1      -0.913  -4.888   0.599  0.00  0.00    +0.026 A 
BRANCH  25  28
ATOM     28  C   UNL     1       0.115  -8.433  -0.188  0.00  0.00    -0.013 C 
ATOM     29  C   UNL     1       1.429  -8.942   0.407  0.00  0.00    +0.015 C 
ATOM     30  C   UNL     1      -1.059  -8.980   0.626  0.00  0.00    +0.015 C 
ATOM     31  C   UNL     1      -0.006  -8.907  -1.638  0.00  0.00    +0.015 C 
ENDBRANCH  25  28
ENDBRANCH   5  22
TORSDOF 3
