REMARK  Name = CHEMBL387093
REMARK  6 active torsions:
REMARK  status: ('A' for Active; 'I' for Inactive)
REMARK    1  A    between atoms: C_4  and  N_10
REMARK    2  A    between atoms: C_15  and  O_24
REMARK    3  A    between atoms: C_17  and  N_18
REMARK    4  A    between atoms: O_24  and  C_25
REMARK    5  A    between atoms: C_25  and  C_26
REMARK    6  A    between atoms: C_26  and  N_27
REMARK                            x       y       z     vdW  Elec       q    Type
REMARK                         _______ _______ _______ _____ _____    ______ ____
ROOT
ATOM      1  N   UNL     1       3.635  -0.639  -0.037  0.00  0.00    -0.295 N 
ATOM      2  C   UNL     1       4.809   0.057   0.162  0.00  0.00    +0.136 A 
ATOM      3  C   UNL     1       6.061  -0.583   0.040  0.00  0.00    +0.062 A 
ATOM      4  C   UNL     1       7.232   0.186   0.257  0.00  0.00    +0.081 A 
ATOM      5  C   UNL     1       8.486  -0.421   0.143  0.00  0.00    +0.074 A 
ATOM      6  C   UNL     1       8.572  -1.761  -0.177  0.00  0.00    +0.124 A 
ATOM      7  C   UNL     1       7.423  -2.521  -0.391  0.00  0.00    +0.069 A 
ATOM      8  C   UNL     1       6.171  -1.947  -0.286  0.00  0.00    +0.046 A 
ATOM      9  N   UNL     1       7.100   1.486   0.567  0.00  0.00    -0.235 NA
ATOM     10  C   UNL     1       5.909   2.028   0.667  0.00  0.00    +0.223 A 
ATOM     11  N   UNL     1       4.791   1.350   0.468  0.00  0.00    -0.220 NA
ATOM     12  H   UNL     1       3.663  -1.556  -0.352  0.00  0.00    +0.154 HD
ENDROOT
BRANCH   1  16
ATOM     13  C   UNL     1      -0.036   1.204   0.706  0.00  0.00    +0.051 A 
ATOM     14  C   UNL     1       0.754   1.631  -0.346  0.00  0.00    +0.025 A 
ATOM     15  C   UNL     1       1.970   1.022  -0.594  0.00  0.00    +0.066 A 
ATOM     16  C   UNL     1       2.403  -0.022   0.214  0.00  0.00    +0.097 A 
ATOM     17  C   UNL     1       1.611  -0.453   1.273  0.00  0.00    +0.189 A 
ATOM     18  C   UNL     1       0.388   0.163   1.518  0.00  0.00    +0.168 A 
ATOM     19  O   UNL     1      -0.193  -0.434   2.600  0.00  0.00    -0.453 OA
ATOM     20  C   UNL     1       0.497  -1.688   2.764  0.00  0.00    +0.466 C 
ATOM     21  O   UNL     1       1.798  -1.438   2.201  0.00  0.00    -0.451 OA
ATOM     22 CL   UNL     1       2.956   1.561  -1.917  0.00  0.00    -0.081 Cl
ENDBRANCH   1  16
BRANCH   8  23
ATOM     23  N   UNL     1       5.029  -2.712  -0.500  0.00  0.00    -0.325 N 
ATOM     24  C   UNL     1       4.443  -2.837  -1.844  0.00  0.00    +0.133 C 
ATOM     25  C   UNL     1       4.226  -4.325  -2.140  0.00  0.00    +0.178 C 
ATOM     26  O   UNL     1       3.489  -4.916  -1.068  0.00  0.00    -0.377 OA
ATOM     27  C   UNL     1       4.159  -4.879   0.194  0.00  0.00    +0.178 C 
ATOM     28  C   UNL     1       4.375  -3.423   0.609  0.00  0.00    +0.133 C 
ENDBRANCH   8  23
BRANCH   6  29
ATOM     29  O   UNL     1       9.793  -2.347  -0.287  0.00  0.00    -0.494 OA
BRANCH  29  30
ATOM     30  C   UNL     1      10.933  -1.517  -0.057  0.00  0.00    +0.210 C 
BRANCH  30  31
ATOM     31  C   UNL     1      12.209  -2.346  -0.223  0.00  0.00    -0.037 C 
BRANCH  31  32
ATOM     32  N   UNL     1      12.326  -2.790  -1.619  0.00  0.00    +0.382 N 
ATOM     33  C   UNL     1      12.595  -1.628  -2.505  0.00  0.00    -0.079 C 
ATOM     34  C   UNL     1      13.233  -2.278  -3.757  0.00  0.00    -0.020 C 
ATOM     35  C   UNL     1      14.099  -3.409  -3.157  0.00  0.00    -0.020 C 
ATOM     36  C   UNL     1      13.488  -3.691  -1.772  0.00  0.00    -0.079 C 
ATOM     37  H   UNL     1      11.481  -3.260  -1.907  0.00  0.00    -0.082 HD
ENDBRANCH  31  32
ENDBRANCH  30  31
ENDBRANCH  29  30
ENDBRANCH   6  29
TORSDOF 6
