REMARK  Name = CHEMBL418111
REMARK  7 active torsions:
REMARK  status: ('A' for Active; 'I' for Inactive)
REMARK    1  A    between atoms: C_1  and  N_2
REMARK    2  A    between atoms: N_5  and  C_8
REMARK    3  A    between atoms: C_8  and  C_9
REMARK    4  A    between atoms: C_9  and  C_10
REMARK    5  A    between atoms: C_10  and  N_11
REMARK    6  A    between atoms: C_17  and  C_32
REMARK    7  A    between atoms: N_25  and  C_26
REMARK                            x       y       z     vdW  Elec       q    Type
REMARK                         _______ _______ _______ _____ _____    ______ ____
ROOT
ATOM      1  N   UNL     1       0.456  -6.472   3.865  0.00  0.00    -0.313 N 
ATOM      2  C   UNL     1       0.536  -7.824   4.139  0.00  0.00    +0.217 A 
ATOM      3  N   UNL     1       0.138  -8.689   3.208  0.00  0.00    -0.222 NA
ATOM      4  C   UNL     1       0.192  -9.990   3.412  0.00  0.00    +0.126 A 
ATOM      5  C   UNL     1       0.682 -10.456   4.644  0.00  0.00    +0.038 A 
ATOM      6  C   UNL     1       0.770 -11.826   4.937  0.00  0.00    +0.025 A 
ATOM      7  C   UNL     1       1.267 -12.195   6.177  0.00  0.00    +0.026 A 
ATOM      8  C   UNL     1       1.661 -11.195   7.092  0.00  0.00    +0.136 A 
ATOM      9  N   UNL     1       1.568  -9.915   6.793  0.00  0.00    -0.212 NA
ATOM     10  C   UNL     1       1.098  -9.506   5.614  0.00  0.00    +0.167 A 
ATOM     11  N   UNL     1       1.010  -8.205   5.310  0.00  0.00    -0.195 NA
ATOM     12  N   UNL     1       2.158 -11.568   8.332  0.00  0.00    -0.253 N 
ATOM     13  C   UNL     1       2.539 -10.625   9.217  0.00  0.00    +0.309 C 
ATOM     14  O   UNL     1       2.448  -9.448   8.928  0.00  0.00    -0.252 OA
ATOM     15  N   UNL     1       3.021 -10.988  10.422  0.00  0.00    -0.269 N 
ATOM     16  H   UNL     1       0.745  -5.825   4.527  0.00  0.00    +0.149 HD
ATOM     17  H   UNL     1       2.231 -12.507   8.563  0.00  0.00    +0.158 HD
ATOM     18  H   UNL     1       3.031 -11.923  10.679  0.00  0.00    +0.156 HD
ENDROOT
BRANCH   7  19
ATOM     19  C   UNL     1       1.382 -13.628   6.541  0.00  0.00    +0.022 A 
ATOM     20  C   UNL     1       0.317 -14.280   7.162  0.00  0.00    +0.050 A 
ATOM     21  C   UNL     1       0.431 -15.616   7.497  0.00  0.00    +0.021 A 
ATOM     22  C   UNL     1       1.597 -16.305   7.219  0.00  0.00    +0.003 A 
ATOM     23  C   UNL     1       2.657 -15.663   6.604  0.00  0.00    +0.021 A 
ATOM     24  C   UNL     1       2.554 -14.330   6.258  0.00  0.00    +0.050 A 
ATOM     25 CL   UNL     1       3.882 -13.528   5.479  0.00  0.00    -0.083 Cl
ATOM     26 CL   UNL     1      -1.147 -13.417   7.513  0.00  0.00    -0.083 Cl
ENDBRANCH   7  19
BRANCH  15  27
ATOM     27  C   UNL     1       3.507 -10.015  11.303  0.00  0.00    +0.035 A 
ATOM     28  C   UNL     1       4.592 -10.297  12.122  0.00  0.00    +0.023 A 
ATOM     29  C   UNL     1       5.069  -9.335  12.990  0.00  0.00    +0.002 A 
ATOM     30  C   UNL     1       4.467  -8.091  13.044  0.00  0.00    +0.000 A 
ATOM     31  C   UNL     1       3.386  -7.807  12.230  0.00  0.00    +0.002 A 
ATOM     32  C   UNL     1       2.908  -8.763  11.356  0.00  0.00    +0.023 A 
ENDBRANCH  15  27
BRANCH   1  33
ATOM     33  C   UNL     1      -0.064  -6.016   2.573  0.00  0.00    +0.105 C 
BRANCH  33  34
ATOM     34  C   UNL     1      -0.046  -4.487   2.527  0.00  0.00    +0.034 C 
BRANCH  34  35
ATOM     35  C   UNL     1      -0.590  -4.011   1.179  0.00  0.00    +0.086 C 
BRANCH  35  40
ATOM     36  C   UNL     1       0.061   1.455  -0.024  0.00  0.00    -0.096 C 
ATOM     37  N   UNL     1       0.070  -0.014  -0.028  0.00  0.00    +0.379 N 
ATOM     38  C   UNL     1      -1.311  -0.512  -0.017  0.00  0.00    -0.064 C 
ATOM     39  C   UNL     1      -1.302  -2.042  -0.040  0.00  0.00    +0.066 C 
ATOM     40  N   UNL     1      -0.573  -2.543   1.134  0.00  0.00    -0.306 NA
ATOM     41  C   UNL     1       0.805  -2.032   1.150  0.00  0.00    +0.066 C 
ATOM     42  C   UNL     1       0.778  -0.502   1.163  0.00  0.00    -0.064 C 
ATOM     43  H   UNL     1       0.540  -0.345  -0.857  0.00  0.00    -0.082 HD
ENDBRANCH  35  40
ENDBRANCH  34  35
ENDBRANCH  33  34
ENDBRANCH   1  33
TORSDOF 6
