REMARK  Name = CHEMBL1087127
REMARK  8 active torsions:
REMARK  status: ('A' for Active; 'I' for Inactive)
REMARK    1  A    between atoms: C_1  and  C_2
REMARK    2  A    between atoms: C_5  and  C_25
REMARK    3  A    between atoms: C_7  and  N_8
REMARK    4  A    between atoms: C_20  and  N_24
REMARK    5  A    between atoms: N_27  and  C_28
REMARK    6  A    between atoms: C_32  and  C_34
REMARK    7  A    between atoms: C_34  and  C_35
REMARK    8  A    between atoms: C_34  and  C_36
REMARK                            x       y       z     vdW  Elec       q    Type
REMARK                         _______ _______ _______ _____ _____    ______ ____
ROOT
ATOM      1  N   UNL     1      -0.349  -0.112   2.455  0.00  0.00    -0.286 N 
ATOM      2  C   UNL     1      -0.234  -0.801   3.644  0.00  0.00    +0.184 A 
ATOM      3  N   UNL     1      -0.160  -2.104   3.756  0.00  0.00    -0.327 N 
ATOM      4  C   UNL     1      -0.054  -2.446   5.067  0.00  0.00    +0.066 A 
ATOM      5  C   UNL     1       0.052  -3.670   5.732  0.00  0.00    +0.028 A 
ATOM      6  C   UNL     1       0.145  -3.696   7.106  0.00  0.00    +0.002 A 
ATOM      7  C   UNL     1       0.134  -2.516   7.834  0.00  0.00    +0.002 A 
ATOM      8  C   UNL     1       0.029  -1.299   7.192  0.00  0.00    +0.028 A 
ATOM      9  C   UNL     1      -0.065  -1.254   5.810  0.00  0.00    +0.074 A 
ATOM     10  N   UNL     1      -0.173  -0.225   4.886  0.00  0.00    -0.266 N 
ATOM     11  C   UNL     1      -0.216   1.139   5.168  0.00  0.00    +0.145 A 
ATOM     12  C   UNL     1      -0.289   2.070   4.138  0.00  0.00    +0.090 A 
ATOM     13  C   UNL     1      -0.330   3.421   4.472  0.00  0.00    +0.121 A 
ATOM     14  N   UNL     1      -0.297   3.770   5.756  0.00  0.00    -0.221 NA
ATOM     15  C   UNL     1      -0.228   2.857   6.703  0.00  0.00    +0.225 A 
ATOM     16  N   UNL     1      -0.194   1.569   6.427  0.00  0.00    -0.218 NA
ATOM     17  H   UNL     1       0.373   0.462   2.155  0.00  0.00    +0.155 HD
ATOM     18  H   UNL     1      -0.178  -2.729   3.015  0.00  0.00    +0.169 HD
ENDROOT
BRANCH   1  25
ATOM     19  C   UNL     1      -0.598   1.515   0.139  0.00  0.00    +0.045 C 
ATOM     20  C   UNL     1      -1.670   0.535   0.540  0.00  0.00    -0.029 A 
ATOM     21  C   UNL     1      -2.810   0.406  -0.232  0.00  0.00    +0.006 A 
ATOM     22  C   UNL     1      -3.796  -0.489   0.129  0.00  0.00    +0.013 A 
ATOM     23  C   UNL     1      -3.644  -1.269   1.277  0.00  0.00    +0.039 A 
ATOM     24  C   UNL     1      -2.494  -1.140   2.055  0.00  0.00    +0.036 A 
ATOM     25  C   UNL     1      -1.506  -0.241   1.681  0.00  0.00    +0.037 A 
BRANCH  23  26
ATOM     26  C   UNL     1      -4.699  -2.229   1.666  0.00  0.00    +0.248 C 
ATOM     27  O   UNL     1      -4.565  -2.907   2.666  0.00  0.00    -0.270 OA
ATOM     28  N   UNL     1      -5.810  -2.351   0.913  0.00  0.00    -0.281 N 
ATOM     29  H   UNL     1      -5.948  -1.763   0.154  0.00  0.00    +0.155 HD
BRANCH  28  30
ATOM     30  C   UNL     1      -6.762  -3.327   1.225  0.00  0.00    +0.034 A 
ATOM     31  C   UNL     1      -7.449  -3.979   0.209  0.00  0.00    +0.023 A 
ATOM     32  C   UNL     1      -8.389  -4.942   0.520  0.00  0.00    +0.002 A 
ATOM     33  C   UNL     1      -8.646  -5.257   1.842  0.00  0.00    +0.004 A 
ATOM     34  C   UNL     1      -7.964  -4.609   2.856  0.00  0.00    -0.043 A 
ATOM     35  C   UNL     1      -7.019  -3.649   2.551  0.00  0.00    +0.027 A 
BRANCH  34  36
ATOM     36  C   UNL     1      -8.248  -4.955   4.295  0.00  0.00    +0.013 C 
ATOM     37  C   UNL     1      -9.721  -4.679   4.605  0.00  0.00    +0.012 C 
ATOM     38  C   UNL     1      -7.946  -6.436   4.532  0.00  0.00    +0.012 C 
ENDBRANCH  34  36
ENDBRANCH  28  30
ENDBRANCH  23  26
ENDBRANCH   1  25
BRANCH  13  39
ATOM     39  N   UNL     1      -0.403   4.388   3.482  0.00  0.00    -0.343 N 
ATOM     40  H   UNL     1      -0.425   4.126   2.548  0.00  0.00    +0.144 HD
ATOM     41  H   UNL     1      -0.430   5.328   3.722  0.00  0.00    +0.144 HD
ENDBRANCH  13  39
TORSDOF 5
