REMARK  Name = CHEMBL375433
REMARK  11 active torsions:
REMARK  status: ('A' for Active; 'I' for Inactive)
REMARK    1  A    between atoms: C_1  and  C_2
REMARK    2  A    between atoms: C_2  and  C_3
REMARK    3  A    between atoms: C_3  and  O_4
REMARK    4  A    between atoms: O_4  and  C_5
REMARK    5  A    between atoms: N_7  and  C_37
REMARK    6  A    between atoms: N_10  and  C_11
REMARK    7  A    between atoms: C_15  and  N_17
REMARK    8  A    between atoms: C_21  and  C_36
REMARK    9  A    between atoms: C_23  and  C_28
REMARK   10  A    between atoms: C_29  and  C_35
REMARK   11  A    between atoms: C_33  and  C_34
REMARK                            x       y       z     vdW  Elec       q    Type
REMARK                         _______ _______ _______ _____ _____    ______ ____
ROOT
ATOM      1  N   UNL     1      -3.656  -0.566  -5.615  0.00  0.00    -0.282 N 
ATOM      2  C   UNL     1      -4.518   0.509  -5.754  0.00  0.00    +0.240 A 
ATOM      3  N   UNL     1      -5.402   0.504  -6.735  0.00  0.00    -0.211 NA
ATOM      4  C   UNL     1      -6.233   1.545  -6.865  0.00  0.00    +0.097 A 
ATOM      5  C   UNL     1      -7.195   1.596  -7.888  0.00  0.00    -0.022 A 
ATOM      6  C   UNL     1      -8.021   2.670  -7.987  0.00  0.00    +0.014 A 
ATOM      7  C   UNL     1      -7.930   3.737  -7.078  0.00  0.00    -0.015 A 
ATOM      8  C   UNL     1      -6.994   3.717  -6.061  0.00  0.00    +0.040 A 
ATOM      9  C   UNL     1      -6.131   2.618  -5.940  0.00  0.00    +0.112 A 
ATOM     10  N   UNL     1      -5.210   2.552  -4.972  0.00  0.00    -0.144 NA
ATOM     11  N   UNL     1      -4.439   1.523  -4.889  0.00  0.00    -0.112 NA
ATOM     12  C   UNL     1      -7.309   0.462  -8.874  0.00  0.00    +0.046 C 
ATOM     13  H   UNL     1      -3.650  -1.272  -6.281  0.00  0.00    +0.155 HD
ENDROOT
BRANCH   7  14
ATOM     14  C   UNL     1      -8.845   4.897  -7.212  0.00  0.00    -0.012 A 
ATOM     15  C   UNL     1      -8.776   5.717  -8.336  0.00  0.00    -0.042 A 
ATOM     16  C   UNL     1      -9.630   6.794  -8.455  0.00  0.00    +0.004 A 
ATOM     17  C   UNL     1     -10.553   7.061  -7.460  0.00  0.00    +0.001 A 
ATOM     18  C   UNL     1     -10.626   6.251  -6.342  0.00  0.00    +0.004 A 
ATOM     19  C   UNL     1      -9.781   5.167  -6.215  0.00  0.00    -0.042 A 
ATOM     20  C   UNL     1      -9.867   4.281  -4.999  0.00  0.00    +0.044 C 
ATOM     21  C   UNL     1      -7.770   5.428  -9.421  0.00  0.00    +0.044 C 
ENDBRANCH   7  14
BRANCH   1  26
ATOM     22  C   UNL     1      -0.689  -1.280  -3.558  0.00  0.00    +0.033 A 
ATOM     23  C   UNL     1      -1.093  -0.766  -2.332  0.00  0.00    +0.023 A 
ATOM     24  C   UNL     1      -2.342  -0.190  -2.201  0.00  0.00    +0.004 A 
ATOM     25  C   UNL     1      -3.192  -0.122  -3.288  0.00  0.00    +0.023 A 
ATOM     26  C   UNL     1      -2.794  -0.634  -4.516  0.00  0.00    +0.035 A 
ATOM     27  C   UNL     1      -1.538  -1.208  -4.653  0.00  0.00    +0.046 A 
BRANCH  22  33
ATOM     28  C   UNL     1       0.717  -3.300  -3.966  0.00  0.00    +0.220 C 
ATOM     29  C   UNL     1       1.653  -3.474  -5.167  0.00  0.00    +0.135 C 
ATOM     30  N   UNL     1       2.912  -2.762  -4.910  0.00  0.00    -0.300 NA
ATOM     31  C   UNL     1       2.689  -1.317  -4.773  0.00  0.00    +0.103 C 
ATOM     32  C   UNL     1       1.796  -1.054  -3.556  0.00  0.00    +0.123 C 
ATOM     33  N   UNL     1       0.574  -1.862  -3.690  0.00  0.00    -0.302 N 
ATOM     34  C   UNL     1       3.901  -3.045  -5.959  0.00  0.00    +0.105 C 
BRANCH  28  35
ATOM     35  O   UNL     1      -0.562  -3.860  -4.269  0.00  0.00    -0.357 OA
BRANCH  35  36
ATOM     36  C   UNL     1      -1.393  -4.063  -3.124  0.00  0.00    +0.162 C 
BRANCH  36  38
ATOM     37  C   UNL     1      -3.663  -4.763  -2.350  0.00  0.00    +0.006 C 
ATOM     38  C   UNL     1      -2.773  -4.546  -3.575  0.00  0.00    +0.025 C 
ENDBRANCH  36  38
ENDBRANCH  35  36
ENDBRANCH  28  35
ENDBRANCH  22  33
ENDBRANCH   1  26
TORSDOF 6
