REMARK  Name = CHEMBL385240
REMARK  8 active torsions:
REMARK  status: ('A' for Active; 'I' for Inactive)
REMARK    1  A    between atoms: C_1  and  N_2
REMARK    2  A    between atoms: C_5  and  O_8
REMARK    3  A    between atoms: O_8  and  C_9
REMARK    4  A    between atoms: C_11  and  O_29
REMARK    5  A    between atoms: N_19  and  C_20
REMARK    6  A    between atoms: C_22  and  O_27
REMARK    7  A    between atoms: O_27  and  C_28
REMARK    8  A    between atoms: O_29  and  C_30
REMARK                            x       y       z     vdW  Elec       q    Type
REMARK                         _______ _______ _______ _____ _____    ______ ____
ROOT
ATOM      1  C   UNL     1      -0.423  -4.783   2.177  0.00  0.00    +0.137 A 
ATOM      2  C   UNL     1      -0.477  -4.162   3.406  0.00  0.00    +0.092 A 
ATOM      3  C   UNL     1      -0.115  -4.848   4.566  0.00  0.00    +0.126 A 
ATOM      4  C   UNL     1       0.305  -6.162   4.508  0.00  0.00    +0.074 A 
ATOM      5  C   UNL     1       0.369  -6.816   3.274  0.00  0.00    +0.083 A 
ATOM      6  C   UNL     1      -0.004  -6.122   2.096  0.00  0.00    +0.082 A 
ATOM      7  C   UNL     1       0.067  -6.810   0.864  0.00  0.00    +0.137 A 
ATOM      8  N   UNL     1       0.474  -8.074   0.873  0.00  0.00    -0.220 NA
ATOM      9  C   UNL     1       0.807  -8.685   1.999  0.00  0.00    +0.223 A 
ATOM     10  N   UNL     1       0.772  -8.092   3.169  0.00  0.00    -0.235 NA
ATOM     11  N   UNL     1      -0.278  -6.186  -0.317  0.00  0.00    -0.298 N 
ATOM     12  H   UNL     1      -0.484  -5.238  -0.323  0.00  0.00    +0.154 HD
ENDROOT
BRANCH  11  13
ATOM     13  C   UNL     1      -0.332  -6.920  -1.506  0.00  0.00    +0.054 A 
ATOM     14  C   UNL     1      -0.145  -8.295  -1.483  0.00  0.00    +0.070 A 
ATOM     15  C   UNL     1      -0.199  -9.019  -2.663  0.00  0.00    +0.122 A 
ATOM     16  C   UNL     1      -0.441  -8.369  -3.866  0.00  0.00    +0.047 A 
ATOM     17  C   UNL     1      -0.626  -7.000  -3.888  0.00  0.00    +0.025 A 
ATOM     18  C   UNL     1      -0.579  -6.274  -2.712  0.00  0.00    +0.062 A 
ATOM     19 CL   UNL     1      -0.820  -4.555  -2.743  0.00  0.00    -0.082 Cl
BRANCH  15  20
ATOM     20  O   UNL     1      -0.016 -10.366  -2.644  0.00  0.00    -0.495 OA
ATOM     21  C   UNL     1      -0.085 -11.048  -3.897  0.00  0.00    +0.277 C 
ENDBRANCH  15  20
ENDBRANCH  11  13
BRANCH   3  22
ATOM     22  O   UNL     1      -0.176  -4.216   5.766  0.00  0.00    -0.495 OA
ATOM     23  C   UNL     1       0.208  -4.971   6.917  0.00  0.00    +0.277 C 
ENDBRANCH   3  22
BRANCH   1  24
ATOM     24  O   UNL     1      -0.777  -4.109   1.054  0.00  0.00    -0.488 OA
BRANCH  24  29
ATOM     25  C   UNL     1      -1.156   1.399   0.075  0.00  0.00    -0.096 C 
ATOM     26  N   UNL     1      -0.930  -0.053   0.049  0.00  0.00    +0.378 N 
ATOM     27  C   UNL     1      -2.215  -0.748   0.189  0.00  0.00    -0.076 C 
ATOM     28  C   UNL     1      -1.996  -2.259   0.082  0.00  0.00    +0.026 C 
ATOM     29  C   UNL     1      -1.045  -2.712   1.193  0.00  0.00    +0.170 C 
ATOM     30  C   UNL     1       0.265  -1.926   1.082  0.00  0.00    +0.026 C 
ATOM     31  C   UNL     1      -0.038  -0.428   1.152  0.00  0.00    -0.076 C 
ATOM     32  H   UNL     1      -0.505  -0.310  -0.829  0.00  0.00    -0.082 HD
ENDBRANCH  24  29
ENDBRANCH   1  24
TORSDOF 5
