REMARK  Name = CHEMBL373132
REMARK  8 active torsions:
REMARK  status: ('A' for Active; 'I' for Inactive)
REMARK    1  A    between atoms: C_1  and  O_2
REMARK    2  A    between atoms: O_2  and  C_3
REMARK    3  A    between atoms: C_5  and  N_11
REMARK    4  A    between atoms: N_11  and  C_12
REMARK    5  A    between atoms: C_13  and  C_34
REMARK    6  A    between atoms: C_19  and  C_21
REMARK    7  A    between atoms: C_24  and  C_27
REMARK    8  A    between atoms: C_27  and  N_28
REMARK                            x       y       z     vdW  Elec       q    Type
REMARK                         _______ _______ _______ _____ _____    ______ ____
ROOT
ATOM      1  C   UNL     1      -4.948   1.738   0.232  0.00  0.00    +0.066 A 
ATOM      2  C   UNL     1      -3.799   2.457   0.627  0.00  0.00    +0.092 A 
ATOM      3  C   UNL     1      -3.918   3.843   0.800  0.00  0.00    +0.132 A 
ATOM      4  N   UNL     1      -5.045   4.472   0.609  0.00  0.00    -0.253 NA
ATOM      5  C   UNL     1      -6.186   3.846   0.230  0.00  0.00    +0.080 A 
ATOM      6  C   UNL     1      -6.118   2.449   0.036  0.00  0.00    +0.060 A 
ATOM      7  S   UNL     1      -7.768   2.015  -0.452  0.00  0.00    -0.085 S 
ATOM      8  C   UNL     1      -8.489   3.647  -0.397  0.00  0.00    +0.022 A 
ATOM      9  C   UNL     1      -7.446   4.424  -0.002  0.00  0.00    +0.044 A 
ENDROOT
BRANCH   8  10
ATOM     10  C   UNL     1      -9.879   4.051  -0.696  0.00  0.00    -0.011 A 
ATOM     11  C   UNL     1     -10.255   5.392  -0.602  0.00  0.00    +0.009 A 
ATOM     12  C   UNL     1     -11.554   5.763  -0.881  0.00  0.00    +0.002 A 
ATOM     13  C   UNL     1     -12.484   4.808  -1.254  0.00  0.00    -0.064 A 
ATOM     14  C   UNL     1     -12.118   3.477  -1.349  0.00  0.00    +0.002 A 
ATOM     15  C   UNL     1     -10.821   3.094  -1.078  0.00  0.00    +0.009 A 
BRANCH  13  16
ATOM     16  C   UNL     1     -13.901   5.220  -1.557  0.00  0.00    -0.043 C 
BRANCH  16  17
ATOM     17  N   UNL     1     -14.023   5.543  -2.985  0.00  0.00    +0.383 N 
ATOM     18  C   UNL     1     -13.169   6.693  -3.291  0.00  0.00    -0.068 C 
ATOM     19  C   UNL     1     -12.986   6.816  -4.809  0.00  0.00    +0.050 C 
ATOM     20  S   UNL     1     -14.619   7.107  -5.558  0.00  0.00    -0.164 S 
ATOM     21  C   UNL     1     -15.639   5.797  -4.813  0.00  0.00    +0.050 C 
ATOM     22  C   UNL     1     -15.425   5.826  -3.295  0.00  0.00    -0.068 C 
ATOM     23  H   UNL     1     -13.717   4.751  -3.530  0.00  0.00    -0.081 HD
ENDBRANCH  16  17
ENDBRANCH  13  16
ENDBRANCH   8  10
BRANCH   1  24
ATOM     24  N   UNL     1      -4.903   0.365   0.042  0.00  0.00    -0.311 N 
ATOM     25  H   UNL     1      -4.175  -0.153   0.418  0.00  0.00    +0.152 HD
BRANCH  24  28
ATOM     26  C   UNL     1      -7.841  -1.696  -0.774  0.00  0.00    +0.140 A 
ATOM     27  C   UNL     1      -6.845  -1.066  -0.044  0.00  0.00    +0.071 A 
ATOM     28  C   UNL     1      -5.909  -0.272  -0.692  0.00  0.00    +0.054 A 
ATOM     29  C   UNL     1      -5.972  -0.112  -2.071  0.00  0.00    +0.064 A 
ATOM     30  C   UNL     1      -6.966  -0.741  -2.796  0.00  0.00    +0.045 A 
ATOM     31  C   UNL     1      -7.897  -1.536  -2.152  0.00  0.00    +0.084 A 
ATOM     32 CL   UNL     1      -9.140  -2.331  -3.067  0.00  0.00    -0.080 Cl
ATOM     33 CL   UNL     1      -4.802   0.880  -2.884  0.00  0.00    -0.082 Cl
BRANCH  26  35
ATOM     34  C   UNL     1      -8.709  -2.506   1.286  0.00  0.00    +0.277 C 
ATOM     35  O   UNL     1      -8.759  -2.474  -0.141  0.00  0.00    -0.494 OA
ENDBRANCH  26  35
ENDBRANCH  24  28
ENDBRANCH   1  24
BRANCH   2  36
ATOM     36  C   UNL     1      -2.550   1.791   0.844  0.00  0.00    +0.103 C 
ATOM     37  N   UNL     1      -1.560   1.263   1.016  0.00  0.00    -0.191 NA
ENDBRANCH   2  36
TORSDOF 7
