REMARK  Name = CHEMBL1086860
REMARK  6 active torsions:
REMARK  status: ('A' for Active; 'I' for Inactive)
REMARK    1  A    between atoms: C_1  and  C_2
REMARK    2  A    between atoms: C_5  and  N_25
REMARK    3  A    between atoms: C_7  and  N_8
REMARK    4  A    between atoms: C_20  and  N_24
REMARK    5  A    between atoms: C_26  and  C_28
REMARK    6  A    between atoms: C_30  and  C_34
REMARK                            x       y       z     vdW  Elec       q    Type
REMARK                         _______ _______ _______ _____ _____    ______ ____
ROOT
ATOM      1  C   UNL     1      -3.150   0.599   1.156  0.00  0.00    +0.045 C 
ATOM      2  C   UNL     1      -2.889  -0.872   1.353  0.00  0.00    -0.029 A 
ATOM      3  C   UNL     1      -3.622  -1.804   0.643  0.00  0.00    +0.007 A 
ATOM      4  C   UNL     1      -3.386  -3.153   0.821  0.00  0.00    +0.024 A 
ATOM      5  C   UNL     1      -2.410  -3.578   1.714  0.00  0.00    +0.035 A 
ATOM      6  C   UNL     1      -1.672  -2.645   2.428  0.00  0.00    +0.047 A 
ATOM      7  C   UNL     1      -1.907  -1.290   2.243  0.00  0.00    +0.038 A 
ENDROOT
BRANCH   7   8
ATOM      8  N   UNL     1      -1.162  -0.346   2.956  0.00  0.00    -0.284 N 
ATOM      9  C   UNL     1      -0.068  -0.747   3.695  0.00  0.00    +0.207 A 
ATOM     10  N   UNL     1       0.433  -1.957   3.703  0.00  0.00    -0.214 NA
ATOM     11  C   UNL     1       1.505  -2.004   4.538  0.00  0.00    +0.091 A 
ATOM     12  C   UNL     1       2.386  -3.022   4.910  0.00  0.00    +0.030 A 
ATOM     13  C   UNL     1       3.401  -2.756   5.801  0.00  0.00    +0.002 A 
ATOM     14  C   UNL     1       3.555  -1.484   6.333  0.00  0.00    +0.002 A 
ATOM     15  C   UNL     1       2.693  -0.468   5.976  0.00  0.00    +0.028 A 
ATOM     16  C   UNL     1       1.666  -0.718   5.079  0.00  0.00    +0.077 A 
ATOM     17  N   UNL     1       0.661   0.062   4.525  0.00  0.00    -0.264 N 
ATOM     18  C   UNL     1       0.434   1.415   4.770  0.00  0.00    +0.145 A 
ATOM     19  C   UNL     1       0.209   2.294   3.717  0.00  0.00    +0.090 A 
ATOM     20  C   UNL     1      -0.012   3.637   4.014  0.00  0.00    +0.121 A 
ATOM     21  N   UNL     1      -0.001   4.027   5.287  0.00  0.00    -0.221 NA
ATOM     22  C   UNL     1       0.216   3.162   6.257  0.00  0.00    +0.225 A 
ATOM     23  N   UNL     1       0.424   1.883   6.016  0.00  0.00    -0.218 NA
ATOM     24  H   UNL     1      -1.413   0.590   2.931  0.00  0.00    +0.155 HD
BRANCH  20  25
ATOM     25  N   UNL     1      -0.240   4.553   3.000  0.00  0.00    -0.343 N 
ATOM     26  H   UNL     1      -0.247   4.261   2.075  0.00  0.00    +0.144 HD
ATOM     27  H   UNL     1      -0.394   5.487   3.215  0.00  0.00    +0.144 HD
ENDBRANCH  20  25
ENDBRANCH   7   8
BRANCH   5  28
ATOM     28  N   UNL     1      -2.172  -4.944   1.893  0.00  0.00    -0.280 N 
ATOM     29  C   UNL     1      -2.324  -5.796   0.860  0.00  0.00    +0.266 C 
ATOM     30  O   UNL     1      -2.574  -5.367  -0.250  0.00  0.00    -0.268 OA
ATOM     31  H   UNL     1      -1.898  -5.279   2.761  0.00  0.00    +0.155 HD
BRANCH  29  32
ATOM     32  C   UNL     1      -2.188  -7.245   1.075  0.00  0.00    +0.121 A 
ATOM     33  C   UNL     1      -2.309  -8.242   0.122  0.00  0.00    +0.057 A 
ATOM     34  C   UNL     1      -2.097  -9.439   0.809  0.00  0.00    +0.067 A 
ATOM     35  N   UNL     1      -1.871  -9.146   2.064  0.00  0.00    -0.178 NA
ATOM     36  N   UNL     1      -1.911  -7.877   2.254  0.00  0.00    -0.272 N 
ATOM     37  H   UNL     1      -1.768  -7.434   3.106  0.00  0.00    +0.189 HD
BRANCH  34  38
ATOM     38  C   UNL     1      -2.123 -10.822   0.211  0.00  0.00    +0.040 C 
ATOM     39  C   UNL     1      -2.772 -10.984  -1.165  0.00  0.00    +0.010 C 
ATOM     40  C   UNL     1      -3.484 -11.510   0.083  0.00  0.00    +0.010 C 
ENDBRANCH  34  38
ENDBRANCH  29  32
ENDBRANCH   5  28
TORSDOF 5
