REMARK  Name = CHEMBL1087978
REMARK  13 active torsions:
REMARK  status: ('A' for Active; 'I' for Inactive)
REMARK    1  A    between atoms: C_1  and  C_2
REMARK    2  A    between atoms: C_2  and  N_3
REMARK    3  A    between atoms: N_6  and  C_9
REMARK    4  A    between atoms: C_9  and  C_10
REMARK    5  A    between atoms: C_10  and  C_11
REMARK    6  A    between atoms: C_12  and  C_13
REMARK    7  A    between atoms: C_18  and  O_19
REMARK    8  A    between atoms: O_19  and  C_20
REMARK    9  A    between atoms: C_21  and  N_27
REMARK   10  A    between atoms: C_22  and  C_25
REMARK   11  A    between atoms: N_27  and  C_28
REMARK   12  A    between atoms: C_30  and  O_36
REMARK   13  A    between atoms: O_36  and  C_37
REMARK                            x       y       z     vdW  Elec       q    Type
REMARK                         _______ _______ _______ _____ _____    ______ ____
ROOT
ATOM      1  C   UNL     1       6.496  -2.890 -10.258  0.00  0.00    +0.018 A 
ATOM      2  C   UNL     1       5.272  -3.506 -10.467  0.00  0.00    +0.040 A 
ATOM      3  C   UNL     1       5.205  -4.903 -10.561  0.00  0.00    +0.074 A 
ATOM      4  C   UNL     1       6.395  -5.662 -10.441  0.00  0.00    +0.026 A 
ATOM      5  C   UNL     1       7.622  -5.018 -10.230  0.00  0.00    +0.058 A 
ATOM      6  C   UNL     1       7.672  -3.657 -10.146  0.00  0.00    +0.128 A 
ATOM      7  C   UNL     1       6.321  -7.072 -10.537  0.00  0.00    +0.060 A 
ATOM      8  C   UNL     1       5.059  -7.649 -10.748  0.00  0.00    +0.091 A 
ATOM      9  C   UNL     1       3.932  -6.817 -10.856  0.00  0.00    +0.132 A 
ATOM     10  N   UNL     1       4.029  -5.516 -10.764  0.00  0.00    -0.254 NA
ENDROOT
BRANCH   1  12
ATOM     11  C   UNL     1       5.464  -0.691 -10.265  0.00  0.00    -0.028 C 
ATOM     12  C   UNL     1       6.568  -1.418 -10.159  0.00  0.00    +0.007 C 
BRANCH  11  13
ATOM     13  C   UNL     1       5.538   0.810 -10.164  0.00  0.00    +0.008 C 
BRANCH  13  14
ATOM     14  C   UNL     1       4.902   1.437 -11.406  0.00  0.00    -0.075 C 
BRANCH  14  18
ATOM     15  N   UNL     1       5.721   5.463 -12.326  0.00  0.00    -0.306 NA
ATOM     16  C   UNL     1       4.317   5.028 -12.328  0.00  0.00    +0.066 C 
ATOM     17  C   UNL     1       4.259   3.503 -12.440  0.00  0.00    -0.063 C 
ATOM     18  N   UNL     1       4.974   2.901 -11.308  0.00  0.00    +0.382 N 
ATOM     19  C   UNL     1       6.380   3.325 -11.333  0.00  0.00    -0.063 C 
ATOM     20  C   UNL     1       6.456   4.848 -11.212  0.00  0.00    +0.066 C 
ATOM     21  H   UNL     1       4.548   3.201 -10.444  0.00  0.00    -0.082 HD
BRANCH  15  23
ATOM     22  C   UNL     1       5.262   7.520 -13.573  0.00  0.00    +0.020 C 
ATOM     23  C   UNL     1       5.819   6.928 -12.276  0.00  0.00    +0.081 C 
ENDBRANCH  15  23
ENDBRANCH  14  18
ENDBRANCH  13  14
ENDBRANCH  11  13
ENDBRANCH   1  12
BRANCH   6  24
ATOM     24  O   UNL     1       8.865  -3.037  -9.946  0.00  0.00    -0.495 OA
ATOM     25  C   UNL     1      10.020  -3.871  -9.841  0.00  0.00    +0.277 C 
ENDBRANCH   6  24
BRANCH   8  26
ATOM     26  C   UNL     1       4.922  -9.070 -10.854  0.00  0.00    +0.103 C 
ATOM     27  N   UNL     1       4.814 -10.198 -10.938  0.00  0.00    -0.191 NA
ENDBRANCH   8  26
BRANCH   7  28
ATOM     28  N   UNL     1       7.452  -7.855 -10.426  0.00  0.00    -0.312 N 
ATOM     29  H   UNL     1       7.676  -8.267  -9.577  0.00  0.00    +0.152 HD
BRANCH  28  30
ATOM     30  C   UNL     1       8.277  -8.052 -11.538  0.00  0.00    +0.053 A 
ATOM     31  C   UNL     1       8.025  -7.370 -12.721  0.00  0.00    +0.071 A 
ATOM     32  C   UNL     1       8.844  -7.568 -13.820  0.00  0.00    +0.140 A 
ATOM     33  C   UNL     1       9.915  -8.448 -13.739  0.00  0.00    +0.084 A 
ATOM     34  C   UNL     1      10.165  -9.128 -12.561  0.00  0.00    +0.045 A 
ATOM     35  C   UNL     1       9.353  -8.928 -11.459  0.00  0.00    +0.064 A 
ATOM     36 CL   UNL     1       9.674  -9.778  -9.980  0.00  0.00    -0.082 Cl
ATOM     37 CL   UNL     1      10.940  -8.697 -15.117  0.00  0.00    -0.080 Cl
BRANCH  32  38
ATOM     38  O   UNL     1       8.599  -6.901 -14.979  0.00  0.00    -0.494 OA
ATOM     39  C   UNL     1       7.557  -5.924 -14.958  0.00  0.00    +0.277 C 
ENDBRANCH  32  38
ENDBRANCH  28  30
ENDBRANCH   7  28
TORSDOF 10
