REMARK  Name = CHEMBL230613
REMARK  9 active torsions:
REMARK  status: ('A' for Active; 'I' for Inactive)
REMARK    1  A    between atoms: C_1  and  C_2
REMARK    2  A    between atoms: C_6  and  C_35
REMARK    3  A    between atoms: C_7  and  C_8
REMARK    4  A    between atoms: C_10  and  C_34
REMARK    5  A    between atoms: N_18  and  C_19
REMARK    6  A    between atoms: C_23  and  O_25
REMARK    7  A    between atoms: O_25  and  C_26
REMARK    8  A    between atoms: C_26  and  C_27
REMARK    9  A    between atoms: C_27  and  N_28
REMARK                            x       y       z     vdW  Elec       q    Type
REMARK                         _______ _______ _______ _____ _____    ______ ____
ROOT
ATOM      1  C   UNL     1       1.506   0.038   3.223  0.00  0.00    -0.015 A 
ATOM      2  C   UNL     1       2.520  -0.016   4.194  0.00  0.00    +0.014 A 
ATOM      3  C   UNL     1       2.421   0.699   5.345  0.00  0.00    -0.022 A 
ATOM      4  C   UNL     1       1.294   1.504   5.575  0.00  0.00    +0.097 A 
ATOM      5  C   UNL     1       0.263   1.567   4.601  0.00  0.00    +0.112 A 
ATOM      6  C   UNL     1       0.387   0.825   3.417  0.00  0.00    +0.040 A 
ATOM      7  N   UNL     1      -0.804   2.340   4.836  0.00  0.00    -0.144 NA
ATOM      8  N   UNL     1      -0.880   3.011   5.934  0.00  0.00    -0.112 NA
ATOM      9  C   UNL     1       0.080   2.964   6.860  0.00  0.00    +0.240 A 
ATOM     10  N   UNL     1       1.161   2.223   6.697  0.00  0.00    -0.211 NA
ATOM     11  N   UNL     1      -0.061   3.709   8.018  0.00  0.00    -0.282 N 
ATOM     12  C   UNL     1       3.520   0.627   6.375  0.00  0.00    +0.046 C 
ATOM     13  H   UNL     1       0.666   3.753   8.658  0.00  0.00    +0.155 HD
ENDROOT
BRANCH   1  20
ATOM     14  C   UNL     1       1.762   1.400   0.683  0.00  0.00    +0.044 C 
ATOM     15  C   UNL     1       1.765  -0.106   0.747  0.00  0.00    -0.042 A 
ATOM     16  C   UNL     1       1.895  -0.847  -0.410  0.00  0.00    +0.004 A 
ATOM     17  C   UNL     1       1.898  -2.229  -0.353  0.00  0.00    +0.001 A 
ATOM     18  C   UNL     1       1.770  -2.876   0.863  0.00  0.00    +0.004 A 
ATOM     19  C   UNL     1       1.639  -2.146   2.026  0.00  0.00    -0.042 A 
ATOM     20  C   UNL     1       1.641  -0.753   1.975  0.00  0.00    -0.012 A 
ATOM     21  C   UNL     1       1.499  -2.853   3.350  0.00  0.00    +0.044 C 
ENDBRANCH   1  20
BRANCH  11  22
ATOM     22  C   UNL     1      -1.252   4.398   8.265  0.00  0.00    +0.037 A 
ATOM     23  C   UNL     1      -2.468   3.848   7.878  0.00  0.00    +0.023 A 
ATOM     24  C   UNL     1      -3.644   4.529   8.122  0.00  0.00    +0.005 A 
ATOM     25  C   UNL     1      -3.616   5.759   8.752  0.00  0.00    +0.046 A 
ATOM     26  C   UNL     1      -2.404   6.313   9.142  0.00  0.00    +0.122 A 
ATOM     27  C   UNL     1      -1.222   5.631   8.903  0.00  0.00    +0.069 A 
BRANCH  26  28
ATOM     28  O   UNL     1      -2.378   7.523   9.761  0.00  0.00    -0.491 OA
BRANCH  28  29
ATOM     29  C   UNL     1      -3.635   8.167   9.979  0.00  0.00    +0.244 C 
BRANCH  29  30
ATOM     30  C   UNL     1      -3.405   9.507  10.682  0.00  0.00    +0.125 C 
BRANCH  30  31
ATOM     31  N   UNL     1      -2.627  10.393   9.806  0.00  0.00    -0.295 NA
ATOM     32  C   UNL     1      -2.018  11.489  10.573  0.00  0.00    +0.112 C 
ATOM     33  C   UNL     1      -1.170  12.351   9.634  0.00  0.00    +0.175 C 
ATOM     34  O   UNL     1      -1.989  12.829   8.564  0.00  0.00    -0.377 OA
ATOM     35  C   UNL     1      -2.598  11.788   7.796  0.00  0.00    +0.175 C 
ATOM     36  C   UNL     1      -3.461  10.920   8.716  0.00  0.00    +0.112 C 
ENDBRANCH  30  31
ENDBRANCH  29  30
ENDBRANCH  28  29
ENDBRANCH  26  28
ENDBRANCH  11  22
TORSDOF 6
