REMARK  Name = CHEMBL220348
REMARK  9 active torsions:
REMARK  status: ('A' for Active; 'I' for Inactive)
REMARK    1  A    between atoms: C_1  and  N_2
REMARK    2  A    between atoms: N_5  and  C_8
REMARK    3  A    between atoms: C_8  and  C_9
REMARK    4  A    between atoms: C_11  and  C_14
REMARK    5  A    between atoms: C_20  and  N_26
REMARK    6  A    between atoms: C_21  and  C_24
REMARK    7  A    between atoms: N_26  and  C_27
REMARK    8  A    between atoms: C_29  and  O_35
REMARK    9  A    between atoms: O_35  and  C_36
REMARK                            x       y       z     vdW  Elec       q    Type
REMARK                         _______ _______ _______ _____ _____    ______ ____
ROOT
ATOM      1  C   UNL     1       0.657 -10.208   7.603  0.00  0.00    -0.014 A 
ATOM      2  C   UNL     1      -0.663 -10.169   8.077  0.00  0.00    +0.011 A 
ATOM      3  C   UNL     1      -1.121  -9.099   8.780  0.00  0.00    +0.029 A 
ATOM      4  C   UNL     1      -0.272  -8.011   9.042  0.00  0.00    +0.073 A 
ATOM      5  C   UNL     1       1.062  -8.043   8.568  0.00  0.00    +0.023 A 
ATOM      6  C   UNL     1       1.520  -9.155   7.850  0.00  0.00    +0.020 A 
ATOM      7  C   UNL     1       1.914  -6.944   8.835  0.00  0.00    +0.060 A 
ATOM      8  C   UNL     1       1.385  -5.869   9.564  0.00  0.00    +0.091 A 
ATOM      9  C   UNL     1       0.050  -5.923   9.995  0.00  0.00    +0.132 A 
ATOM     10  N   UNL     1      -0.715  -6.952   9.734  0.00  0.00    -0.254 NA
ENDROOT
BRANCH   1  13
ATOM     11  C   UNL     1       1.197 -13.378   5.798  0.00  0.00    +0.089 A 
ATOM     12  C   UNL     1       0.360 -12.585   6.488  0.00  0.00    +0.051 A 
ATOM     13  C   UNL     1       1.132 -11.388   6.839  0.00  0.00    +0.020 A 
ATOM     14  C   UNL     1       2.372 -11.582   6.319  0.00  0.00    +0.203 A 
ATOM     15  O   UNL     1       2.393 -12.776   5.708  0.00  0.00    -0.469 OA
BRANCH  11  16
ATOM     16  C   UNL     1       0.851 -14.727   5.225  0.00  0.00    -0.003 C 
BRANCH  16  21
ATOM     17  C   UNL     1      -0.061 -15.008  -0.329  0.00  0.00    +0.104 C 
ATOM     18  N   UNL     1       0.406 -15.137   1.058  0.00  0.00    -0.309 NA
ATOM     19  C   UNL     1      -0.649 -15.688   1.920  0.00  0.00    +0.065 C 
ATOM     20  C   UNL     1      -0.104 -15.862   3.340  0.00  0.00    -0.063 C 
ATOM     21  N   UNL     1       0.345 -14.562   3.855  0.00  0.00    +0.386 N 
ATOM     22  C   UNL     1       1.416 -14.037   2.998  0.00  0.00    -0.063 C 
ATOM     23  C   UNL     1       0.883 -13.847   1.576  0.00  0.00    +0.065 C 
ATOM     24  H   UNL     1      -0.430 -13.916   3.859  0.00  0.00    -0.081 HD
ENDBRANCH  16  21
ENDBRANCH  11  16
ENDBRANCH   1  13
BRANCH   8  25
ATOM     25  C   UNL     1       2.198  -4.729   9.866  0.00  0.00    +0.103 C 
ATOM     26  N   UNL     1       2.842  -3.825  10.106  0.00  0.00    -0.191 NA
ENDBRANCH   8  25
BRANCH   7  27
ATOM     27  N   UNL     1       3.221  -6.931   8.393  0.00  0.00    -0.312 N 
ATOM     28  H   UNL     1       3.450  -6.469   7.571  0.00  0.00    +0.152 HD
BRANCH  27  29
ATOM     29  C   UNL     1       4.215  -7.583   9.129  0.00  0.00    +0.053 A 
ATOM     30  C   UNL     1       3.871  -8.343  10.239  0.00  0.00    +0.071 A 
ATOM     31  C   UNL     1       4.858  -8.988  10.967  0.00  0.00    +0.140 A 
ATOM     32  C   UNL     1       6.189  -8.874  10.585  0.00  0.00    +0.084 A 
ATOM     33  C   UNL     1       6.529  -8.117   9.479  0.00  0.00    +0.045 A 
ATOM     34  C   UNL     1       5.547  -7.476   8.747  0.00  0.00    +0.064 A 
ATOM     35 CL   UNL     1       5.978  -6.532   7.355  0.00  0.00    -0.082 Cl
ATOM     36 CL   UNL     1       7.425  -9.681  11.497  0.00  0.00    -0.080 Cl
BRANCH  31  37
ATOM     37  O   UNL     1       4.524  -9.732  12.054  0.00  0.00    -0.494 OA
ATOM     38  C   UNL     1       3.131  -9.906  12.319  0.00  0.00    +0.277 C 
ENDBRANCH  31  37
ENDBRANCH  27  29
ENDBRANCH   7  27
TORSDOF 7
