REMARK  Name = CHEMBL1083091
REMARK  6 active torsions:
REMARK  status: ('A' for Active; 'I' for Inactive)
REMARK    1  A    between atoms: C_1  and  N_2
REMARK    2  A    between atoms: N_5  and  C_8
REMARK    3  A    between atoms: C_12  and  C_14
REMARK    4  A    between atoms: C_21  and  C_24
REMARK    5  A    between atoms: C_22  and  N_23
REMARK    6  A    between atoms: C_27  and  O_30
REMARK                            x       y       z     vdW  Elec       q    Type
REMARK                         _______ _______ _______ _____ _____    ______ ____
ROOT
ATOM      1  C   UNL     1       0.311  -5.974   4.303  0.00  0.00    +0.046 A 
ATOM      2  C   UNL     1       1.625  -6.415   4.105  0.00  0.00    +0.145 A 
ATOM      3  N   UNL     1       2.078  -6.913   5.229  0.00  0.00    -0.171 NA
ATOM      4  N   UNL     1       1.084  -6.820   6.209  0.00  0.00    -0.200 N 
ATOM      5  C   UNL     1      -0.015  -6.231   5.641  0.00  0.00    +0.165 A 
ATOM      6  N   UNL     1      -1.125  -6.010   6.355  0.00  0.00    -0.235 NA
ATOM      7  C   UNL     1      -1.200  -6.344   7.623  0.00  0.00    +0.125 A 
ATOM      8  C   UNL     1      -0.104  -6.947   8.261  0.00  0.00    +0.040 A 
ATOM      9  C   UNL     1       1.052  -7.190   7.526  0.00  0.00    +0.129 A 
ENDROOT
BRANCH   1  14
ATOM     10  C   UNL     1      -0.927  -3.700   1.574  0.00  0.00    +0.030 A 
ATOM     11  C   UNL     1      -2.221  -4.177   1.394  0.00  0.00    +0.023 A 
ATOM     12  C   UNL     1      -2.685  -5.232   2.156  0.00  0.00    +0.002 A 
ATOM     13  C   UNL     1      -1.867  -5.819   3.101  0.00  0.00    +0.009 A 
ATOM     14  C   UNL     1      -0.568  -5.346   3.290  0.00  0.00    -0.011 A 
ATOM     15  C   UNL     1      -0.097  -4.286   2.517  0.00  0.00    +0.031 A 
BRANCH  10  20
ATOM     16  C   UNL     1      -0.038   1.464  -0.003  0.00  0.00    +0.105 C 
ATOM     17  N   UNL     1      -0.008  -0.004  -0.004  0.00  0.00    -0.302 NA
ATOM     18  C   UNL     1      -1.365  -0.558  -0.108  0.00  0.00    +0.103 C 
ATOM     19  C   UNL     1      -1.280  -2.078  -0.289  0.00  0.00    +0.120 C 
ATOM     20  N   UNL     1      -0.463  -2.633   0.801  0.00  0.00    -0.327 N 
ATOM     21  C   UNL     1       0.857  -2.036   1.054  0.00  0.00    +0.120 C 
ATOM     22  C   UNL     1       0.688  -0.518   1.183  0.00  0.00    +0.103 C 
ENDBRANCH  10  20
ENDBRANCH   1  14
BRANCH   8  23
ATOM     23  C   UNL     1      -0.180  -7.327   9.693  0.00  0.00    -0.013 A 
ATOM     24  C   UNL     1      -0.111  -8.669  10.064  0.00  0.00    +0.012 A 
ATOM     25  C   UNL     1      -0.182  -9.020  11.396  0.00  0.00    +0.046 A 
ATOM     26  C   UNL     1      -0.322  -8.037  12.367  0.00  0.00    +0.117 A 
ATOM     27  C   UNL     1      -0.391  -6.700  12.001  0.00  0.00    +0.046 A 
ATOM     28  C   UNL     1      -0.315  -6.343  10.671  0.00  0.00    +0.012 A 
BRANCH  26  29
ATOM     29  O   UNL     1      -0.392  -8.386  13.679  0.00  0.00    -0.507 OA
ATOM     30  H   UNL     1       0.466  -8.424  14.122  0.00  0.00    +0.292 HD
ENDBRANCH  26  29
ENDBRANCH   8  23
BRANCH   9  31
ATOM     31  N   UNL     1       2.148  -7.777   8.116  0.00  0.00    -0.343 N 
ATOM     32  H   UNL     1       2.953  -7.932   7.597  0.00  0.00    +0.144 HD
ATOM     33  H   UNL     1       2.116  -8.035   9.050  0.00  0.00    +0.144 HD
ENDBRANCH   9  31
TORSDOF 5
