REMARK  Name = CHEMBL473354
REMARK  3 active torsions:
REMARK  status: ('A' for Active; 'I' for Inactive)
REMARK    1  A    between atoms: C_1  and  C_2
REMARK    2  A    between atoms: N_13  and  C_14
REMARK    3  A    between atoms: C_17  and  C_20
REMARK                            x       y       z     vdW  Elec       q    Type
REMARK                         _______ _______ _______ _____ _____    ______ ____
ROOT
ATOM      1  C   UNL     1       0.109  -2.890  -4.824  0.00  0.00    +0.032 A 
ATOM      2  C   UNL     1       0.117  -4.280  -4.813  0.00  0.00    +0.024 A 
ATOM      3  C   UNL     1       0.210  -4.979  -5.997  0.00  0.00    +0.012 A 
ATOM      4  C   UNL     1       0.296  -4.290  -7.208  0.00  0.00    +0.007 A 
ATOM      5  C   UNL     1       0.288  -2.894  -7.216  0.00  0.00    +0.012 A 
ATOM      6  C   UNL     1       0.189  -2.200  -6.030  0.00  0.00    +0.024 A 
ENDROOT
BRANCH   1  19
ATOM      7  C   UNL     1      -1.360   0.888   0.310  0.00  0.00    +0.045 C 
ATOM      8  C   UNL     1      -0.491  -0.333   0.147  0.00  0.00    -0.031 A 
ATOM      9  C   UNL     1      -0.354  -0.901  -1.086  0.00  0.00    +0.018 A 
ATOM     10  C   UNL     1       0.453  -2.034  -1.236  0.00  0.00    +0.041 A 
ATOM     11  C   UNL     1       1.117  -2.578  -0.110  0.00  0.00    +0.077 A 
ATOM     12  C   UNL     1       0.954  -1.970   1.142  0.00  0.00    +0.048 A 
ATOM     13  C   UNL     1       0.165  -0.863   1.255  0.00  0.00    +0.046 A 
ATOM     14 CL   UNL     1      -0.030  -0.107   2.806  0.00  0.00    -0.083 Cl
ATOM     15  N   UNL     1       1.886  -3.664  -0.277  0.00  0.00    -0.235 NA
ATOM     16  C   UNL     1       2.018  -4.209  -1.464  0.00  0.00    +0.223 A 
ATOM     17  N   UNL     1       1.418  -3.736  -2.544  0.00  0.00    -0.220 NA
ATOM     18  C   UNL     1       0.635  -2.667  -2.490  0.00  0.00    +0.134 A 
ATOM     19  N   UNL     1       0.015  -2.184  -3.624  0.00  0.00    -0.299 N 
ATOM     20  H   UNL     1      -0.487  -1.355  -3.587  0.00  0.00    +0.154 HD
ENDBRANCH   1  19
BRANCH   4  21
ATOM     21  C   UNL     1       0.397  -5.037  -8.479  0.00  0.00    +0.109 A 
ATOM     22  N   UNL     1       0.414  -6.338  -8.672  0.00  0.00    -0.239 NA
ATOM     23  C   UNL     1       0.511  -6.887  -9.899  0.00  0.00    +0.079 A 
ATOM     24  C   UNL     1       0.541  -8.259 -10.244  0.00  0.00    +0.029 A 
ATOM     25  C   UNL     1       0.644  -8.650 -11.542  0.00  0.00    +0.002 A 
ATOM     26  C   UNL     1       0.723  -7.728 -12.577  0.00  0.00    +0.001 A 
ATOM     27  C   UNL     1       0.697  -6.377 -12.284  0.00  0.00    +0.017 A 
ATOM     28  C   UNL     1       0.593  -5.972 -10.976  0.00  0.00    +0.040 A 
ATOM     29  S   UNL     1       0.518  -4.403 -10.146  0.00  0.00    -0.067 S 
ENDBRANCH   4  21
TORSDOF 2
