REMARK  Name = CHEMBL415625
REMARK  9 active torsions:
REMARK  status: ('A' for Active; 'I' for Inactive)
REMARK    1  A    between atoms: C_1  and  N_2
REMARK    2  A    between atoms: N_5  and  C_8
REMARK    3  A    between atoms: C_8  and  C_9
REMARK    4  A    between atoms: C_12  and  C_14
REMARK    5  A    between atoms: C_22  and  C_35
REMARK    6  A    between atoms: C_23  and  N_24
REMARK    7  A    between atoms: N_24  and  C_25
REMARK    8  A    between atoms: C_27  and  O_33
REMARK    9  A    between atoms: O_33  and  C_34
REMARK                            x       y       z     vdW  Elec       q    Type
REMARK                         _______ _______ _______ _____ _____    ______ ____
ROOT
ATOM      1  C   UNL     1       2.794  -4.842   4.923  0.00  0.00    +0.019 A 
ATOM      2  C   UNL     1       2.838  -5.478   6.176  0.00  0.00    +0.012 A 
ATOM      3  C   UNL     1       3.992  -6.037   6.628  0.00  0.00    +0.012 A 
ATOM      4  C   UNL     1       5.154  -5.982   5.843  0.00  0.00    +0.023 A 
ATOM      5  C   UNL     1       5.126  -5.344   4.578  0.00  0.00    +0.073 A 
ATOM      6  C   UNL     1       3.926  -4.779   4.125  0.00  0.00    +0.040 A 
ATOM      7  N   UNL     1       6.234  -5.290   3.824  0.00  0.00    -0.254 NA
ATOM      8  C   UNL     1       7.367  -5.814   4.217  0.00  0.00    +0.132 A 
ATOM      9  C   UNL     1       7.486  -6.464   5.455  0.00  0.00    +0.091 A 
ATOM     10  C   UNL     1       6.364  -6.556   6.294  0.00  0.00    +0.060 A 
ENDROOT
BRANCH   1  14
ATOM     11  C   UNL     1       0.072  -3.196   3.187  0.00  0.00    +0.089 A 
ATOM     12  C   UNL     1      -0.580  -3.559   4.309  0.00  0.00    +0.043 A 
ATOM     13  C   UNL     1       0.350  -4.232   5.127  0.00  0.00    +0.050 A 
ATOM     14  C   UNL     1       1.530  -4.242   4.451  0.00  0.00    +0.135 A 
ATOM     15  O   UNL     1       1.345  -3.615   3.273  0.00  0.00    -0.462 OA
BRANCH  11  16
ATOM     16  C   UNL     1      -0.530  -2.449   2.025  0.00  0.00    -0.003 C 
BRANCH  16  21
ATOM     17  C   UNL     1       0.703   3.030   1.570  0.00  0.00    +0.104 C 
ATOM     18  N   UNL     1       0.518   1.582   1.408  0.00  0.00    -0.309 NA
ATOM     19  C   UNL     1      -0.909   1.232   1.394  0.00  0.00    +0.065 C 
ATOM     20  C   UNL     1      -1.060  -0.274   1.164  0.00  0.00    -0.063 C 
ATOM     21  N   UNL     1      -0.370  -1.004   2.235  0.00  0.00    +0.386 N 
ATOM     22  C   UNL     1       1.059  -0.663   2.221  0.00  0.00    -0.063 C 
ATOM     23  C   UNL     1       1.227   0.839   2.459  0.00  0.00    +0.065 C 
ATOM     24  H   UNL     1      -0.767  -0.749   3.127  0.00  0.00    -0.081 HD
ENDBRANCH  16  21
ENDBRANCH  11  16
ENDBRANCH   1  14
BRANCH  10  25
ATOM     25  N   UNL     1       6.441  -7.187   7.519  0.00  0.00    -0.312 N 
ATOM     26  H   UNL     1       5.637  -7.533   7.937  0.00  0.00    +0.152 HD
BRANCH  25  27
ATOM     27  C   UNL     1       7.677  -7.328   8.157  0.00  0.00    +0.053 A 
ATOM     28  C   UNL     1       8.236  -8.589   8.319  0.00  0.00    +0.071 A 
ATOM     29  C   UNL     1       9.461  -8.725   8.952  0.00  0.00    +0.140 A 
ATOM     30  C   UNL     1      10.127  -7.601   9.423  0.00  0.00    +0.084 A 
ATOM     31  C   UNL     1       9.569  -6.346   9.262  0.00  0.00    +0.045 A 
ATOM     32  C   UNL     1       8.350  -6.206   8.625  0.00  0.00    +0.064 A 
ATOM     33 CL   UNL     1       7.656  -4.628   8.418  0.00  0.00    -0.082 Cl
ATOM     34 CL   UNL     1      11.662  -7.773  10.216  0.00  0.00    -0.080 Cl
BRANCH  29  35
ATOM     35  O   UNL     1      10.010  -9.958   9.111  0.00  0.00    -0.494 OA
ATOM     36  C   UNL     1       9.328 -11.056   8.502  0.00  0.00    +0.277 C 
ENDBRANCH  29  35
ENDBRANCH  25  27
ENDBRANCH  10  25
BRANCH   9  37
ATOM     37  C   UNL     1       8.739  -7.029   5.858  0.00  0.00    +0.103 C 
ATOM     38  N   UNL     1       9.733  -7.476   6.177  0.00  0.00    -0.191 NA
ENDBRANCH   9  37
TORSDOF 7
