REMARK  Name = CHEMBL192679
REMARK  9 active torsions:
REMARK  status: ('A' for Active; 'I' for Inactive)
REMARK    1  A    between atoms: C_1  and  N_2
REMARK    2  A    between atoms: N_5  and  C_8
REMARK    3  A    between atoms: C_8  and  C_9
REMARK    4  A    between atoms: C_12  and  C_15
REMARK    5  A    between atoms: C_20  and  N_26
REMARK    6  A    between atoms: C_21  and  C_24
REMARK    7  A    between atoms: N_26  and  C_27
REMARK    8  A    between atoms: C_30  and  O_33
REMARK    9  A    between atoms: O_33  and  C_34
REMARK                            x       y       z     vdW  Elec       q    Type
REMARK                         _______ _______ _______ _____ _____    ______ ____
ROOT
ATOM      1  C   UNL     1       1.812  -9.448   8.956  0.00  0.00    +0.022 A 
ATOM      2  C   UNL     1       1.266  -8.301   9.439  0.00  0.00    +0.044 A 
ATOM      3  C   UNL     1       2.079  -7.178   9.668  0.00  0.00    +0.080 A 
ATOM      4  C   UNL     1       3.447  -7.349   9.363  0.00  0.00    +0.060 A 
ATOM      5  S   UNL     1       3.539  -9.028   8.793  0.00  0.00    -0.085 S 
ATOM      6  C   UNL     1       4.370  -6.334   9.535  0.00  0.00    +0.066 A 
ATOM      7  C   UNL     1       3.902  -5.098  10.033  0.00  0.00    +0.092 A 
ATOM      8  C   UNL     1       2.536  -4.979  10.320  0.00  0.00    +0.132 A 
ATOM      9  N   UNL     1       1.701  -5.965  10.142  0.00  0.00    -0.253 NA
ENDROOT
BRANCH   1  13
ATOM     10  C   UNL     1      -0.112 -13.131   8.073  0.00  0.00    -0.064 A 
ATOM     11  C   UNL     1       1.252 -13.002   7.876  0.00  0.00    +0.002 A 
ATOM     12  C   UNL     1       1.883 -11.808   8.161  0.00  0.00    +0.009 A 
ATOM     13  C   UNL     1       1.143 -10.730   8.649  0.00  0.00    -0.011 A 
ATOM     14  C   UNL     1      -0.232 -10.867   8.845  0.00  0.00    +0.009 A 
ATOM     15  C   UNL     1      -0.852 -12.065   8.552  0.00  0.00    +0.002 A 
BRANCH  10  16
ATOM     16  C   UNL     1      -0.794 -14.438   7.760  0.00  0.00    -0.043 C 
BRANCH  16  21
ATOM     17  C   UNL     1      -1.742 -15.610   2.331  0.00  0.00    +0.104 C 
ATOM     18  N   UNL     1      -1.325 -15.567   3.739  0.00  0.00    -0.309 NA
ATOM     19  C   UNL     1      -2.488 -15.644   4.635  0.00  0.00    +0.065 C 
ATOM     20  C   UNL     1      -2.008 -15.656   6.088  0.00  0.00    -0.063 C 
ATOM     21  N   UNL     1      -1.239 -14.434   6.360  0.00  0.00    +0.384 N 
ATOM     22  C   UNL     1      -0.068 -14.384   5.475  0.00  0.00    -0.063 C 
ATOM     23  C   UNL     1      -0.532 -14.361   4.017  0.00  0.00    +0.065 C 
ATOM     24  H   UNL     1      -1.821 -13.627   6.194  0.00  0.00    -0.081 HD
ENDBRANCH  16  21
ENDBRANCH  10  16
ENDBRANCH   1  13
BRANCH   7  25
ATOM     25  C   UNL     1       4.798  -4.000  10.239  0.00  0.00    +0.103 C 
ATOM     26  N   UNL     1       5.508  -3.128  10.402  0.00  0.00    -0.191 NA
ENDBRANCH   7  25
BRANCH   6  27
ATOM     27  N   UNL     1       5.709  -6.523   9.230  0.00  0.00    -0.313 N 
ATOM     28  H   UNL     1       6.311  -6.890   9.896  0.00  0.00    +0.152 HD
BRANCH  27  29
ATOM     29  C   UNL     1       6.192  -6.184   7.962  0.00  0.00    +0.032 A 
ATOM     30  C   UNL     1       5.360  -5.551   7.047  0.00  0.00    +0.027 A 
ATOM     31  C   UNL     1       5.837  -5.217   5.796  0.00  0.00    +0.048 A 
ATOM     32  C   UNL     1       7.148  -5.514   5.451  0.00  0.00    +0.129 A 
ATOM     33  C   UNL     1       7.980  -6.146   6.363  0.00  0.00    +0.048 A 
ATOM     34  C   UNL     1       7.506  -6.475   7.618  0.00  0.00    +0.027 A 
BRANCH  32  35
ATOM     35  O   UNL     1       7.617  -5.185   4.218  0.00  0.00    -0.456 OA
BRANCH  35  36
ATOM     36  C   UNL     1       8.921  -5.449   3.940  0.00  0.00    +0.128 A 
ATOM     37  C   UNL     1       9.315  -6.738   3.614  0.00  0.00    +0.046 A 
ATOM     38  C   UNL     1      10.641  -7.003   3.332  0.00  0.00    +0.004 A 
ATOM     39  C   UNL     1      11.575  -5.985   3.374  0.00  0.00    +0.000 A 
ATOM     40  C   UNL     1      11.185  -4.699   3.700  0.00  0.00    +0.004 A 
ATOM     41  C   UNL     1       9.859  -4.427   3.977  0.00  0.00    +0.046 A 
ENDBRANCH  35  36
ENDBRANCH  32  35
ENDBRANCH  27  29
ENDBRANCH   6  27
TORSDOF 8
