REMARK  Name = CHEMBL474543
REMARK  3 active torsions:
REMARK  status: ('A' for Active; 'I' for Inactive)
REMARK    1  A    between atoms: C_8  and  C_10
REMARK    2  A    between atoms: C_13  and  N_16
REMARK    3  A    between atoms: N_16  and  C_17
REMARK                            x       y       z     vdW  Elec       q    Type
REMARK                         _______ _______ _______ _____ _____    ______ ____
ROOT
ATOM      1  C   UNL     1       2.859  -4.057   0.044  0.00  0.00    +0.007 A 
ATOM      2  C   UNL     1       1.917  -5.052  -0.225  0.00  0.00    +0.012 A 
ATOM      3  C   UNL     1       2.304  -6.373  -0.266  0.00  0.00    +0.024 A 
ATOM      4  C   UNL     1       3.633  -6.717  -0.039  0.00  0.00    +0.031 A 
ATOM      5  C   UNL     1       4.574  -5.728   0.230  0.00  0.00    +0.024 A 
ATOM      6  C   UNL     1       4.194  -4.405   0.266  0.00  0.00    +0.012 A 
ENDROOT
BRANCH   1  14
ATOM      7  C   UNL     1      -0.278   1.239  -0.091  0.00  0.00    +0.002 A 
ATOM      8  C   UNL     1       0.846   2.005   0.187  0.00  0.00    +0.001 A 
ATOM      9  C   UNL     1       2.066   1.379   0.363  0.00  0.00    +0.017 A 
ATOM     10  C   UNL     1       2.144   0.011   0.260  0.00  0.00    +0.040 A 
ATOM     11  C   UNL     1       1.017  -0.796  -0.022  0.00  0.00    +0.079 A 
ATOM     12  C   UNL     1      -0.211  -0.115  -0.195  0.00  0.00    +0.029 A 
ATOM     13  N   UNL     1       1.251  -2.121  -0.092  0.00  0.00    -0.239 NA
ATOM     14  C   UNL     1       2.447  -2.639   0.089  0.00  0.00    +0.109 A 
ATOM     15  S   UNL     1       3.445  -1.190   0.402  0.00  0.00    -0.067 S 
ENDBRANCH   1  14
BRANCH   4  16
ATOM     16  N   UNL     1       4.022  -8.055  -0.080  0.00  0.00    -0.314 N 
ATOM     17  H   UNL     1       4.642  -8.400   0.582  0.00  0.00    +0.152 HD
BRANCH  16  18
ATOM     18  C   UNL     1       3.524  -8.892  -1.067  0.00  0.00    +0.042 A 
ATOM     19  C   UNL     1       2.762  -8.392  -2.112  0.00  0.00    +0.043 A 
ATOM     20  C   UNL     1       2.277  -9.255  -3.084  0.00  0.00    +0.113 A 
ATOM     21  N   UNL     1       2.518 -10.545  -3.048  0.00  0.00    -0.255 NA
ATOM     22  C   UNL     1       3.245 -11.097  -2.070  0.00  0.00    +0.074 A 
ATOM     23  C   UNL     1       3.781 -10.284  -1.042  0.00  0.00    +0.022 A 
ATOM     24  C   UNL     1       4.547 -10.866  -0.023  0.00  0.00    +0.013 A 
ATOM     25  C   UNL     1       4.773 -12.210  -0.034  0.00  0.00    +0.021 A 
ATOM     26  C   UNL     1       4.251 -13.013  -1.046  0.00  0.00    +0.043 A 
ATOM     27  C   UNL     1       3.494 -12.480  -2.045  0.00  0.00    +0.048 A 
ATOM     28 CL   UNL     1       4.560 -14.721  -1.026  0.00  0.00    -0.083 Cl
ENDBRANCH  16  18
ENDBRANCH   4  16
TORSDOF 3
