REMARK  Name = CHEMBL216703
REMARK  10 active torsions:
REMARK  status: ('A' for Active; 'I' for Inactive)
REMARK    1  A    between atoms: C_1  and  O_2
REMARK    2  A    between atoms: O_2  and  C_3
REMARK    3  A    between atoms: C_7  and  N_9
REMARK    4  A    between atoms: C_14  and  O_23
REMARK    5  A    between atoms: C_16  and  O_17
REMARK    6  A    between atoms: O_17  and  C_18
REMARK    7  A    between atoms: O_23  and  C_24
REMARK    8  A    between atoms: C_24  and  C_25
REMARK    9  A    between atoms: C_25  and  C_26
REMARK   10  A    between atoms: C_26  and  N_27
REMARK                            x       y       z     vdW  Elec       q    Type
REMARK                         _______ _______ _______ _____ _____    ______ ____
ROOT
ATOM      1  N   UNL     1      -2.581  -4.074  -0.500  0.00  0.00    -0.298 N 
ATOM      2  C   UNL     1      -1.415  -4.811  -0.535  0.00  0.00    +0.137 A 
ATOM      3  C   UNL     1      -1.438  -6.213  -0.362  0.00  0.00    +0.082 A 
ATOM      4  C   UNL     1      -0.207  -6.914  -0.407  0.00  0.00    +0.083 A 
ATOM      5  C   UNL     1      -0.199  -8.302  -0.239  0.00  0.00    +0.074 A 
ATOM      6  C   UNL     1      -1.387  -8.974  -0.031  0.00  0.00    +0.126 A 
ATOM      7  C   UNL     1      -2.599  -8.285   0.014  0.00  0.00    +0.092 A 
ATOM      8  C   UNL     1      -2.636  -6.917  -0.149  0.00  0.00    +0.137 A 
ATOM      9  N   UNL     1       0.923  -6.219  -0.612  0.00  0.00    -0.235 NA
ATOM     10  C   UNL     1       0.883  -4.917  -0.766  0.00  0.00    +0.223 A 
ATOM     11  N   UNL     1      -0.242  -4.222  -0.736  0.00  0.00    -0.220 NA
ATOM     12  H   UNL     1      -3.428  -4.514  -0.326  0.00  0.00    +0.154 HD
ENDROOT
BRANCH   1  17
ATOM     13  C   UNL     1      -1.386  -0.595  -0.564  0.00  0.00    +0.122 A 
ATOM     14  C   UNL     1      -2.471   0.043  -1.149  0.00  0.00    +0.047 A 
ATOM     15  C   UNL     1      -3.587  -0.684  -1.516  0.00  0.00    +0.025 A 
ATOM     16  C   UNL     1      -3.627  -2.049  -1.302  0.00  0.00    +0.062 A 
ATOM     17  C   UNL     1      -2.542  -2.693  -0.717  0.00  0.00    +0.054 A 
ATOM     18  C   UNL     1      -1.418  -1.964  -0.354  0.00  0.00    +0.070 A 
ATOM     19 CL   UNL     1      -5.031  -2.960  -1.763  0.00  0.00    -0.082 Cl
BRANCH  13  21
ATOM     20  C   UNL     1      -0.324   1.530  -0.450  0.00  0.00    +0.277 C 
ATOM     21  O   UNL     1      -0.289   0.123  -0.204  0.00  0.00    -0.495 OA
ENDBRANCH  13  21
ENDBRANCH   1  17
BRANCH   8  22
ATOM     22  O   UNL     1      -3.820  -6.254  -0.103  0.00  0.00    -0.486 OA
BRANCH  22  23
ATOM     23  C   UNL     1      -5.004  -7.047  -0.002  0.00  0.00    +0.201 C 
ATOM     24  C   UNL     1      -6.246  -6.221  -0.414  0.00  0.00    +0.075 C 
ATOM     25  C   UNL     1      -7.297  -6.670   0.633  0.00  0.00    +0.163 C 
ATOM     26  O   UNL     1      -6.522  -6.825   1.842  0.00  0.00    -0.376 OA
ATOM     27  C   UNL     1      -5.274  -7.429   1.466  0.00  0.00    +0.204 C 
ENDBRANCH  22  23
ENDBRANCH   8  22
BRANCH   6  28
ATOM     28  O   UNL     1      -1.375 -10.322   0.131  0.00  0.00    -0.492 OA
BRANCH  28  29
ATOM     29  C   UNL     1      -0.104 -10.971   0.075  0.00  0.00    +0.227 C 
BRANCH  29  30
ATOM     30  C   UNL     1      -0.290 -12.476   0.278  0.00  0.00    +0.022 C 
BRANCH  30  31
ATOM     31  C   UNL     1       1.071 -13.172   0.217  0.00  0.00    -0.075 C 
BRANCH  31  32
ATOM     32  N   UNL     1       0.892 -14.617   0.412  0.00  0.00    +0.383 N 
ATOM     33  C   UNL     1       0.388 -14.870   1.768  0.00  0.00    -0.050 C 
ATOM     34  C   UNL     1       0.202 -16.376   1.969  0.00  0.00    +0.141 C 
ATOM     35  O   UNL     1       1.448 -17.039   1.739  0.00  0.00    -0.383 OA
ATOM     36  C   UNL     1       1.993 -16.804   0.438  0.00  0.00    +0.141 C 
ATOM     37  C   UNL     1       2.182 -15.298   0.235  0.00  0.00    -0.050 C 
ATOM     38  H   UNL     1       0.231 -14.968  -0.264  0.00  0.00    -0.082 HD
ENDBRANCH  31  32
ENDBRANCH  30  31
ENDBRANCH  29  30
ENDBRANCH  28  29
ENDBRANCH   6  28
TORSDOF 9
