REMARK  Name = CHEMBL100551
REMARK  11 active torsions:
REMARK  status: ('A' for Active; 'I' for Inactive)
REMARK    1  A    between atoms: C_1  and  O_2
REMARK    2  A    between atoms: O_2  and  C_3
REMARK    3  A    between atoms: C_3  and  C_4
REMARK    4  A    between atoms: C_4  and  O_5
REMARK    5  A    between atoms: O_5  and  C_6
REMARK    6  A    between atoms: C_11  and  O_12
REMARK    7  A    between atoms: O_12  and  C_13
REMARK    8  A    between atoms: C_20  and  N_21
REMARK    9  A    between atoms: N_21  and  C_22
REMARK   10  A    between atoms: C_24  and  O_30
REMARK   11  A    between atoms: O_30  and  C_31
REMARK                            x       y       z     vdW  Elec       q    Type
REMARK                         _______ _______ _______ _____ _____    ______ ____
ROOT
ATOM      1  C   UNL     1       0.880  -3.720   1.113  0.00  0.00    +0.164 A 
ATOM      2  C   UNL     1       0.409  -4.553   0.112  0.00  0.00    +0.073 A 
ATOM      3  C   UNL     1       0.368  -5.927   0.312  0.00  0.00    +0.040 A 
ATOM      4  C   UNL     1       0.797  -6.470   1.514  0.00  0.00    -0.018 A 
ATOM      5  C   UNL     1       1.272  -5.635   2.513  0.00  0.00    +0.055 A 
ATOM      6  C   UNL     1       1.319  -4.266   2.316  0.00  0.00    +0.162 A 
ATOM      7  C   UNL     1       0.752  -7.952   1.760  0.00  0.00    +0.079 C 
ATOM      8  C   UNL     1       0.606  -8.721   0.481  0.00  0.00    +0.037 A 
ATOM      9  C   UNL     1       0.183  -8.111  -0.690  0.00  0.00    +0.131 A 
ATOM     10  N   UNL     1       0.064  -8.840  -1.798  0.00  0.00    -0.220 NA
ATOM     11  C   UNL     1       0.347 -10.128  -1.790  0.00  0.00    +0.225 A 
ATOM     12  N   UNL     1       0.755 -10.744  -0.700  0.00  0.00    -0.220 NA
ATOM     13  C   UNL     1       0.897 -10.083   0.448  0.00  0.00    +0.131 A 
ATOM     14  N   UNL     1      -0.106  -6.758  -0.710  0.00  0.00    -0.299 N 
ATOM     15  H   UNL     1      -0.636  -6.385  -1.432  0.00  0.00    +0.154 HD
ENDROOT
BRANCH   6  16
ATOM     16  O   UNL     1       1.789  -3.452   3.300  0.00  0.00    -0.491 OA
ATOM     17  C   UNL     1       2.223  -4.080   4.508  0.00  0.00    +0.277 C 
ENDBRANCH   6  16
BRANCH  13  18
ATOM     18  N   UNL     1       1.327 -10.740   1.592  0.00  0.00    -0.298 N 
ATOM     19  H   UNL     1       1.337 -10.275   2.443  0.00  0.00    +0.154 HD
BRANCH  18  20
ATOM     20  C   UNL     1       1.745 -12.073   1.517  0.00  0.00    +0.055 A 
ATOM     21  C   UNL     1       2.241 -12.580   0.323  0.00  0.00    +0.071 A 
ATOM     22  C   UNL     1       2.655 -13.900   0.253  0.00  0.00    +0.140 A 
ATOM     23  C   UNL     1       2.572 -14.714   1.375  0.00  0.00    +0.084 A 
ATOM     24  C   UNL     1       2.078 -14.208   2.563  0.00  0.00    +0.045 A 
ATOM     25  C   UNL     1       1.669 -12.890   2.639  0.00  0.00    +0.064 A 
ATOM     26 CL   UNL     1       1.056 -12.256   4.134  0.00  0.00    -0.082 Cl
ATOM     27 CL   UNL     1       3.090 -16.369   1.286  0.00  0.00    -0.080 Cl
BRANCH  22  28
ATOM     28  O   UNL     1       3.140 -14.399  -0.915  0.00  0.00    -0.494 OA
ATOM     29  C   UNL     1       3.196 -13.506  -2.029  0.00  0.00    +0.277 C 
ENDBRANCH  22  28
ENDBRANCH  18  20
ENDBRANCH  13  18
BRANCH   1  30
ATOM     30  O   UNL     1       0.919  -2.375   0.919  0.00  0.00    -0.486 OA
BRANCH  30  31
ATOM     31  C   UNL     1       0.453  -1.887  -0.340  0.00  0.00    +0.257 C 
BRANCH  31  32
ATOM     32  C   UNL     1       0.573  -0.362  -0.373  0.00  0.00    +0.200 C 
BRANCH  32  34
ATOM     33  C   UNL     1       2.177   1.419  -0.335  0.00  0.00    +0.194 C 
ATOM     34  O   UNL     1       1.952   0.009  -0.311  0.00  0.00    -0.380 OA
ENDBRANCH  32  34
ENDBRANCH  31  32
ENDBRANCH  30  31
ENDBRANCH   1  30
TORSDOF 8
