REMARK  Name = CHEMBL198946
REMARK  10 active torsions:
REMARK  status: ('A' for Active; 'I' for Inactive)
REMARK    1  A    between atoms: C_1  and  C_2
REMARK    2  A    between atoms: C_2  and  C_3
REMARK    3  A    between atoms: C_2  and  O_4
REMARK    4  A    between atoms: O_4  and  C_5
REMARK    5  A    between atoms: C_7  and  O_25
REMARK    6  A    between atoms: C_20  and  O_22
REMARK    7  A    between atoms: O_22  and  C_23
REMARK    8  A    between atoms: O_25  and  C_26
REMARK    9  A    between atoms: C_26  and  C_27
REMARK   10  A    between atoms: C_27  and  N_28
REMARK                            x       y       z     vdW  Elec       q    Type
REMARK                         _______ _______ _______ _____ _____    ______ ____
ROOT
ATOM      1  C   UNL     1      -1.577  -1.651  -0.664  0.00  0.00    +0.137 A 
ATOM      2  C   UNL     1      -0.536  -2.346  -1.242  0.00  0.00    +0.092 A 
ATOM      3  C   UNL     1      -0.775  -3.517  -1.961  0.00  0.00    +0.126 A 
ATOM      4  C   UNL     1      -2.057  -4.006  -2.111  0.00  0.00    +0.074 A 
ATOM      5  C   UNL     1      -3.132  -3.321  -1.535  0.00  0.00    +0.083 A 
ATOM      6  C   UNL     1      -2.889  -2.134  -0.799  0.00  0.00    +0.082 A 
ATOM      7  C   UNL     1      -3.994  -1.468  -0.225  0.00  0.00    +0.139 A 
ATOM      8  N   UNL     1      -5.203  -1.989  -0.398  0.00  0.00    -0.220 NA
ATOM      9  C   UNL     1      -5.382  -3.104  -1.088  0.00  0.00    +0.223 A 
ATOM     10  N   UNL     1      -4.396  -3.759  -1.654  0.00  0.00    -0.235 NA
ATOM     11  N   UNL     1      -3.822  -0.304   0.499  0.00  0.00    -0.282 N 
ATOM     12  C   UNL     1      -4.906   0.275   1.155  0.00  0.00    +0.146 A 
ATOM     13  C   UNL     1      -4.726   1.450   1.877  0.00  0.00    +0.081 A 
ATOM     14  C   UNL     1      -5.810   2.018   2.526  0.00  0.00    +0.028 A 
ATOM     15  C   UNL     1      -7.042   1.389   2.430  0.00  0.00    +0.069 A 
ATOM     16  C   UNL     1      -7.152   0.219   1.693  0.00  0.00    +0.216 A 
ATOM     17  N   UNL     1      -6.098  -0.296   1.080  0.00  0.00    -0.196 NA
ATOM     18 CL   UNL     1      -3.160   2.196   1.964  0.00  0.00    -0.080 Cl
ATOM     19  H   UNL     1      -2.946   0.110   0.550  0.00  0.00    +0.155 HD
ENDROOT
BRANCH  16  20
ATOM     20  O   UNL     1      -8.355  -0.402   1.595  0.00  0.00    -0.480 OA
ATOM     21  C   UNL     1      -8.404  -1.603   0.823  0.00  0.00    +0.279 C 
ENDBRANCH  16  20
BRANCH   1  22
ATOM     22  O   UNL     1      -1.335  -0.513   0.034  0.00  0.00    -0.488 OA
BRANCH  22  24
ATOM     23  C   UNL     1       0.000   1.484   0.293  0.00  0.00    +0.051 C 
ATOM     24  C   UNL     1       0.007  -0.023   0.033  0.00  0.00    +0.167 C 
ATOM     25  C   UNL     1       0.808  -0.727   1.130  0.00  0.00    +0.051 C 
ENDBRANCH  22  24
ENDBRANCH   1  22
BRANCH   3  26
ATOM     26  O   UNL     1       0.266  -4.184  -2.522  0.00  0.00    -0.494 OA
BRANCH  26  27
ATOM     27  C   UNL     1      -0.042  -5.377  -3.246  0.00  0.00    +0.210 C 
BRANCH  27  28
ATOM     28  C   UNL     1       1.248  -5.984  -3.800  0.00  0.00    -0.037 C 
BRANCH  28  29
ATOM     29  N   UNL     1       2.104  -6.416  -2.687  0.00  0.00    +0.382 N 
ATOM     30  C   UNL     1       1.492  -7.576  -1.990  0.00  0.00    -0.079 C 
ATOM     31  C   UNL     1       2.697  -8.237  -1.276  0.00  0.00    -0.020 C 
ATOM     32  C   UNL     1       3.842  -8.067  -2.301  0.00  0.00    -0.020 C 
ATOM     33  C   UNL     1       3.406  -6.896  -3.200  0.00  0.00    -0.079 C 
ATOM     34  H   UNL     1       2.244  -5.654  -2.040  0.00  0.00    -0.082 HD
ENDBRANCH  28  29
ENDBRANCH  27  28
ENDBRANCH  26  27
ENDBRANCH   3  26
TORSDOF 7
