REMARK  Name = CHEMBL360914
REMARK  9 active torsions:
REMARK  status: ('A' for Active; 'I' for Inactive)
REMARK    1  A    between atoms: C_1  and  O_2
REMARK    2  A    between atoms: O_2  and  C_3
REMARK    3  A    between atoms: C_5  and  N_11
REMARK    4  A    between atoms: N_11  and  C_12
REMARK    5  A    between atoms: C_15  and  O_32
REMARK    6  A    between atoms: C_16  and  C_24
REMARK    7  A    between atoms: C_21  and  C_22
REMARK    8  A    between atoms: C_25  and  C_26
REMARK    9  A    between atoms: O_32  and  C_33
REMARK                            x       y       z     vdW  Elec       q    Type
REMARK                         _______ _______ _______ _____ _____    ______ ____
ROOT
ATOM      1  C   UNL     1       0.854  -4.766  -1.240  0.00  0.00    +0.060 A 
ATOM      2  C   UNL     1       1.260  -6.112  -1.081  0.00  0.00    +0.026 A 
ATOM      3  C   UNL     1       2.153  -6.707  -1.986  0.00  0.00    +0.058 A 
ATOM      4  C   UNL     1       2.532  -8.006  -1.815  0.00  0.00    +0.128 A 
ATOM      5  C   UNL     1       2.033  -8.762  -0.734  0.00  0.00    +0.019 A 
ATOM      6  C   UNL     1       1.148  -8.193   0.172  0.00  0.00    +0.040 A 
ATOM      7  C   UNL     1       0.751  -6.859   0.010  0.00  0.00    +0.074 A 
ATOM      8  N   UNL     1      -0.104  -6.292   0.876  0.00  0.00    -0.254 NA
ATOM      9  C   UNL     1      -0.495  -5.050   0.752  0.00  0.00    +0.132 A 
ATOM     10  C   UNL     1      -0.036  -4.235  -0.295  0.00  0.00    +0.091 A 
ENDROOT
BRANCH   1  11
ATOM     11  N   UNL     1       1.324  -3.999  -2.288  0.00  0.00    -0.312 N 
ATOM     12  H   UNL     1       0.878  -4.029  -3.148  0.00  0.00    +0.152 HD
BRANCH  11  15
ATOM     13  C   UNL     1       4.121  -2.235  -0.673  0.00  0.00    +0.123 A 
ATOM     14  C   UNL     1       3.011  -3.048  -0.848  0.00  0.00    +0.070 A 
ATOM     15  C   UNL     1       2.442  -3.180  -2.107  0.00  0.00    +0.055 A 
ATOM     16  C   UNL     1       2.987  -2.497  -3.189  0.00  0.00    +0.081 A 
ATOM     17  C   UNL     1       4.094  -1.687  -3.010  0.00  0.00    +0.065 A 
ATOM     18  C   UNL     1       4.657  -1.551  -1.754  0.00  0.00    +0.067 A 
ATOM     19 CL   UNL     1       4.772  -0.835  -4.361  0.00  0.00    -0.082 Cl
ATOM     20 CL   UNL     1       2.277  -2.660  -4.765  0.00  0.00    -0.080 Cl
BRANCH  13  22
ATOM     21  C   UNL     1       5.817  -1.246   0.668  0.00  0.00    +0.277 C 
ATOM     22  O   UNL     1       4.679  -2.105   0.560  0.00  0.00    -0.495 OA
ENDBRANCH  13  22
ENDBRANCH  11  15
ENDBRANCH   1  11
BRANCH  10  23
ATOM     23  C   UNL     1      -0.477  -2.876  -0.401  0.00  0.00    +0.103 C 
ATOM     24  N   UNL     1      -0.827  -1.799  -0.485  0.00  0.00    -0.191 NA
ENDBRANCH  10  23
BRANCH   5  25
ATOM     25  C   UNL     1       2.451 -10.162  -0.565  0.00  0.00    +0.015 C 
ATOM     26  C   UNL     1       1.977 -10.887   0.466  0.00  0.00    +0.045 C 
BRANCH  26  27
ATOM     27  C   UNL     1       2.395 -12.283   0.634  0.00  0.00    +0.109 A 
ATOM     28  N   UNL     1       3.241 -12.946  -0.159  0.00  0.00    -0.346 N 
ATOM     29  H   UNL     1       3.684 -12.589  -0.944  0.00  0.00    +0.167 HD
ATOM     30  C   UNL     1       3.372 -14.198   0.322  0.00  0.00    +0.102 A 
ATOM     31  C   UNL     1       2.595 -14.297   1.422  0.00  0.00    +0.102 A 
ATOM     32  N   UNL     1       1.998 -13.105   1.611  0.00  0.00    -0.346 N 
ATOM     33  H   UNL     1       1.385 -12.882   2.329  0.00  0.00    +0.167 HD
ENDBRANCH  26  27
ENDBRANCH   5  25
BRANCH   4  34
ATOM     34  O   UNL     1       3.397  -8.576  -2.694  0.00  0.00    -0.495 OA
ATOM     35  C   UNL     1       3.866  -7.758  -3.768  0.00  0.00    +0.277 C 
ENDBRANCH   4  34
TORSDOF 7
