REMARK  Name = CHEMBL91815
REMARK  7 active torsions:
REMARK  status: ('A' for Active; 'I' for Inactive)
REMARK    1  A    between atoms: C_1  and  O_2
REMARK    2  A    between atoms: O_2  and  C_3
REMARK    3  A    between atoms: C_6  and  C_9
REMARK    4  A    between atoms: C_19  and  C_20
REMARK    5  A    between atoms: C_21  and  C_30
REMARK    6  A    between atoms: C_30  and  C_31
REMARK    7  A    between atoms: C_31  and  C_32
REMARK                            x       y       z     vdW  Elec       q    Type
REMARK                         _______ _______ _______ _____ _____    ______ ____
ROOT
ATOM      1  C   UNL     1       2.784  -2.590   4.157  0.00  0.00    -0.016 A 
ATOM      2  C   UNL     1       3.144  -1.829   5.271  0.00  0.00    +0.009 A 
ATOM      3  C   UNL     1       3.746  -2.434   6.352  0.00  0.00    +0.011 A 
ATOM      4  C   UNL     1       3.995  -3.804   6.331  0.00  0.00    +0.008 A 
ATOM      5  C   UNL     1       3.637  -4.577   5.216  0.00  0.00    +0.042 A 
ATOM      6  C   UNL     1       3.026  -3.961   4.133  0.00  0.00    +0.032 A 
ATOM      7  N   UNL     1       3.990  -5.901   5.448  0.00  0.00    -0.281 N 
ATOM      8  C   UNL     1       4.563  -6.052   6.654  0.00  0.00    +0.249 C 
ATOM      9  O   UNL     1       4.973  -7.097   7.126  0.00  0.00    -0.270 OA
ATOM     10  C   UNL     1       4.609  -4.735   7.303  0.00  0.00    +0.048 C 
ATOM     11  C   UNL     1       5.115  -4.432   8.553  0.00  0.00    +0.039 C 
ATOM     12  H   UNL     1       3.841  -6.625   4.819  0.00  0.00    +0.155 HD
ENDROOT
BRANCH  11  13
ATOM     13  C   UNL     1       5.524  -5.467   9.418  0.00  0.00    +0.044 A 
ATOM     14  C   UNL     1       6.572  -5.412  10.327  0.00  0.00    -0.019 A 
ATOM     15  C   UNL     1       6.619  -6.646  10.967  0.00  0.00    -0.023 A 
ATOM     16  C   UNL     1       5.626  -7.425  10.457  0.00  0.00    +0.020 A 
ATOM     17  N   UNL     1       4.952  -6.718   9.522  0.00  0.00    -0.358 N 
ATOM     18  H   UNL     1       4.193  -7.038   9.008  0.00  0.00    +0.166 HD
ATOM     19  C   UNL     1       5.360  -8.844  10.901  0.00  0.00    +0.053 C 
ATOM     20  C   UNL     1       6.594  -9.356  11.653  0.00  0.00    +0.006 C 
ATOM     21  C   UNL     1       7.002  -8.338  12.721  0.00  0.00    +0.005 C 
ATOM     22  C   UNL     1       7.580  -7.090  12.042  0.00  0.00    +0.037 C 
BRANCH  14  23
ATOM     23  C   UNL     1       7.485  -4.239  10.573  0.00  0.00    +0.049 C 
BRANCH  23  24
ATOM     24  C   UNL     1       6.891  -3.352  11.669  0.00  0.00    +0.130 C 
BRANCH  24  25
ATOM     25  C   UNL     1       7.804  -2.178  11.915  0.00  0.00    +0.356 C 
ATOM     26  O   UNL     1       8.834  -2.062  11.274  0.00  0.00    -0.246 OA
ATOM     27  O   UNL     1       7.513  -1.345  12.756  0.00  0.00    -0.246 OA
ENDBRANCH  24  25
ENDBRANCH  23  24
ENDBRANCH  14  23
ENDBRANCH  11  13
BRANCH   1  31
ATOM     28  C   UNL     1       0.925  -0.713   0.824  0.00  0.00    +0.120 A 
ATOM     29  C   UNL     1       1.289   0.043   1.931  0.00  0.00    +0.046 A 
ATOM     30  C   UNL     1       1.891  -0.563   3.013  0.00  0.00    +0.012 A 
ATOM     31  C   UNL     1       2.136  -1.936   2.995  0.00  0.00    -0.018 A 
ATOM     32  C   UNL     1       1.769  -2.692   1.882  0.00  0.00    +0.012 A 
ATOM     33  C   UNL     1       1.163  -2.080   0.805  0.00  0.00    +0.046 A 
BRANCH  28  35
ATOM     34  C   UNL     1       0.117   1.298  -0.155  0.00  0.00    +0.277 C 
ATOM     35  O   UNL     1       0.331  -0.113  -0.241  0.00  0.00    -0.495 OA
ENDBRANCH  28  35
ENDBRANCH   1  31
TORSDOF 6
