REMARK  Name = CHEMBL51283
REMARK  5 active torsions:
REMARK  status: ('A' for Active; 'I' for Inactive)
REMARK    1  A    between atoms: C_1  and  N_2
REMARK    2  A    between atoms: C_6  and  C_9
REMARK    3  A    between atoms: N_21  and  C_22
REMARK    4  A    between atoms: C_25  and  N_28
REMARK    5  A    between atoms: N_31  and  C_34
REMARK                            x       y       z     vdW  Elec       q    Type
REMARK                         _______ _______ _______ _____ _____    ______ ____
ROOT
ATOM      1  C   UNL     1      -0.033   1.391   0.613  0.00  0.00    +0.154 C 
ATOM      2  N   UNL     1      -0.005  -0.038   0.291  0.00  0.00    -0.295 N 
ATOM      3  C   UNL     1      -1.183  -0.708   0.072  0.00  0.00    +0.148 A 
ATOM      4  C   UNL     1      -1.174  -2.085  -0.239  0.00  0.00    +0.037 A 
ATOM      5  C   UNL     1       0.051  -2.786  -0.328  0.00  0.00    +0.027 A 
ATOM      6  C   UNL     1       1.220  -2.109  -0.108  0.00  0.00    +0.050 A 
ATOM      7  C   UNL     1       1.176  -0.680   0.207  0.00  0.00    +0.260 A 
ATOM      8  O   UNL     1       2.212  -0.069   0.400  0.00  0.00    -0.267 OA
ATOM      9  C   UNL     1      -2.400  -2.732  -0.456  0.00  0.00    +0.126 A 
ATOM     10  N   UNL     1      -3.511  -2.028  -0.360  0.00  0.00    -0.222 NA
ATOM     11  C   UNL     1      -3.482  -0.733  -0.065  0.00  0.00    +0.221 A 
ATOM     12  N   UNL     1      -2.350  -0.079   0.148  0.00  0.00    -0.196 NA
ATOM     13  N   UNL     1      -4.675  -0.043   0.023  0.00  0.00    -0.284 N 
ATOM     14  H   UNL     1      -4.671   0.918   0.157  0.00  0.00    +0.155 HD
ENDROOT
BRANCH   6  15
ATOM     15  C   UNL     1       2.520  -2.816  -0.194  0.00  0.00    +0.024 A 
ATOM     16  C   UNL     1       3.065  -3.421   0.939  0.00  0.00    +0.050 A 
ATOM     17  C   UNL     1       4.276  -4.078   0.852  0.00  0.00    +0.021 A 
ATOM     18  C   UNL     1       4.950  -4.137  -0.355  0.00  0.00    +0.003 A 
ATOM     19  C   UNL     1       4.415  -3.539  -1.482  0.00  0.00    +0.021 A 
ATOM     20  C   UNL     1       3.201  -2.884  -1.410  0.00  0.00    +0.050 A 
ATOM     21 CL   UNL     1       2.529  -2.140  -2.827  0.00  0.00    -0.083 Cl
ATOM     22 CL   UNL     1       2.222  -3.347   2.455  0.00  0.00    -0.083 Cl
ENDBRANCH   6  15
BRANCH  13  23
ATOM     23  C   UNL     1      -5.891  -0.731  -0.082  0.00  0.00    +0.034 A 
ATOM     24  C   UNL     1      -6.035  -1.980   0.506  0.00  0.00    +0.025 A 
ATOM     25  C   UNL     1      -7.233  -2.659   0.403  0.00  0.00    +0.025 A 
ATOM     26  C   UNL     1      -8.295  -2.090  -0.288  0.00  0.00    +0.030 A 
ATOM     27  C   UNL     1      -8.152  -0.840  -0.875  0.00  0.00    +0.025 A 
ATOM     28  C   UNL     1      -6.955  -0.160  -0.768  0.00  0.00    +0.025 A 
BRANCH  26  29
ATOM     29  N   UNL     1      -9.509  -2.777  -0.393  0.00  0.00    -0.327 N 
ATOM     30  C   UNL     1     -10.607  -2.249  -1.218  0.00  0.00    +0.120 C 
ATOM     31  C   UNL     1     -11.086  -3.360  -2.159  0.00  0.00    +0.103 C 
ATOM     32  N   UNL     1     -11.419  -4.554  -1.372  0.00  0.00    -0.302 NA
ATOM     33  C   UNL     1     -10.236  -5.086  -0.683  0.00  0.00    +0.103 C 
ATOM     34  C   UNL     1      -9.720  -4.050   0.314  0.00  0.00    +0.120 C 
ATOM     35  C   UNL     1     -12.044  -5.582  -2.215  0.00  0.00    +0.105 C 
ENDBRANCH  26  29
ENDBRANCH  13  23
TORSDOF 3
