REMARK  Name = CHEMBL445319
REMARK  13 active torsions:
REMARK  status: ('A' for Active; 'I' for Inactive)
REMARK    1  A    between atoms: C_1  and  N_2
REMARK    2  A    between atoms: N_2  and  C_3
REMARK    3  A    between atoms: N_2  and  C_4
REMARK    4  A    between atoms: C_4  and  C_5
REMARK    5  A    between atoms: C_7  and  C_11
REMARK    6  A    between atoms: C_12  and  C_13
REMARK    7  A    between atoms: C_18  and  O_19
REMARK    8  A    between atoms: O_19  and  C_20
REMARK    9  A    between atoms: C_21  and  N_27
REMARK   10  A    between atoms: C_22  and  C_25
REMARK   11  A    between atoms: N_27  and  C_28
REMARK   12  A    between atoms: C_30  and  O_36
REMARK   13  A    between atoms: O_36  and  C_37
REMARK                            x       y       z     vdW  Elec       q    Type
REMARK                         _______ _______ _______ _____ _____    ______ ____
ROOT
ATOM      1  C   UNL     1      -0.637   9.260   4.426  0.00  0.00    +0.069 A 
ATOM      2  C   UNL     1       0.609   8.667   4.580  0.00  0.00    +0.049 A 
ATOM      3  C   UNL     1       1.094   8.400   5.867  0.00  0.00    +0.074 A 
ATOM      4  C   UNL     1       0.303   8.741   6.991  0.00  0.00    +0.026 A 
ATOM      5  C   UNL     1      -0.953   9.340   6.812  0.00  0.00    +0.058 A 
ATOM      6  C   UNL     1      -1.412   9.600   5.554  0.00  0.00    +0.136 A 
ATOM      7  C   UNL     1       0.799   8.469   8.287  0.00  0.00    +0.060 A 
ATOM      8  C   UNL     1       2.063   7.869   8.392  0.00  0.00    +0.091 A 
ATOM      9  C   UNL     1       2.779   7.565   7.223  0.00  0.00    +0.132 A 
ATOM     10  N   UNL     1       2.297   7.828   6.036  0.00  0.00    -0.254 NA
ENDROOT
BRANCH   1  12
ATOM     11  C   UNL     1      -1.545   9.758   2.034  0.00  0.00    -0.059 C 
ATOM     12  C   UNL     1      -1.136   9.534   3.111  0.00  0.00    -0.057 C 
BRANCH  11  15
ATOM     13  C   UNL     1      -1.816   9.987  -1.659  0.00  0.00    -0.045 A 
ATOM     14  C   UNL     1      -1.288   9.702  -0.413  0.00  0.00    +0.021 A 
ATOM     15  C   UNL     1      -2.044  10.032   0.720  0.00  0.00    +0.044 A 
ATOM     16  C   UNL     1      -3.293  10.633   0.545  0.00  0.00    +0.127 A 
ATOM     17  N   UNL     1      -3.751  10.884  -0.664  0.00  0.00    -0.262 NA
ATOM     18  C   UNL     1      -3.058  10.589  -1.747  0.00  0.00    +0.112 A 
BRANCH  13  19
ATOM     19  C   UNL     1      -1.042   9.652  -2.908  0.00  0.00    -0.042 C 
BRANCH  19  21
ATOM     20  C   UNL     1       0.825  10.998  -2.236  0.00  0.00    -0.096 C 
ATOM     21  N   UNL     1      -0.190  10.790  -3.277  0.00  0.00    +0.379 N 
ATOM     22  C   UNL     1       0.473  10.510  -4.558  0.00  0.00    -0.096 C 
ATOM     23  H   UNL     1      -0.756  11.620  -3.365  0.00  0.00    -0.082 HD
ENDBRANCH  19  21
ENDBRANCH  13  19
ENDBRANCH  11  15
ENDBRANCH   1  12
BRANCH   6  24
ATOM     24  O   UNL     1      -2.627  10.184   5.386  0.00  0.00    -0.494 OA
ATOM     25  C   UNL     1      -3.362  10.503   6.569  0.00  0.00    +0.277 C 
ENDBRANCH   6  24
BRANCH   8  26
ATOM     26  C   UNL     1       2.618   7.571   9.678  0.00  0.00    +0.103 C 
ATOM     27  N   UNL     1       3.057   7.333  10.699  0.00  0.00    -0.191 NA
ENDBRANCH   8  26
BRANCH   7  28
ATOM     28  N   UNL     1       0.064   8.784   9.413  0.00  0.00    -0.312 N 
ATOM     29  H   UNL     1      -0.472   8.103   9.848  0.00  0.00    +0.152 HD
BRANCH  28  30
ATOM     30  C   UNL     1       0.093  10.085   9.925  0.00  0.00    +0.053 A 
ATOM     31  C   UNL     1       0.764  11.088   9.239  0.00  0.00    +0.071 A 
ATOM     32  C   UNL     1       0.790  12.375   9.749  0.00  0.00    +0.140 A 
ATOM     33  C   UNL     1       0.146  12.661  10.946  0.00  0.00    +0.084 A 
ATOM     34  C   UNL     1      -0.522  11.661  11.629  0.00  0.00    +0.045 A 
ATOM     35  C   UNL     1      -0.555  10.376  11.120  0.00  0.00    +0.064 A 
ATOM     36 CL   UNL     1      -1.401   9.125  11.977  0.00  0.00    -0.082 Cl
ATOM     37 CL   UNL     1       0.180  14.274  11.586  0.00  0.00    -0.080 Cl
BRANCH  32  38
ATOM     38  O   UNL     1       1.447  13.359   9.079  0.00  0.00    -0.494 OA
ATOM     39  C   UNL     1       1.984  13.024   7.798  0.00  0.00    +0.277 C 
ENDBRANCH  32  38
ENDBRANCH  28  30
ENDBRANCH   7  28
TORSDOF 9
