REMARK  Name = CHEMBL103579
REMARK  10 active torsions:
REMARK  status: ('A' for Active; 'I' for Inactive)
REMARK    1  A    between atoms: CG1_1  and  CB_2
REMARK    2  A    between atoms: CB_2  and  CG2_3
REMARK    3  A    between atoms: CB_2  and  CA_4
REMARK    4  A    between atoms: CA_4  and  C_5
REMARK    5  A    between atoms: CA_4  and  N_7
REMARK    6  A    between atoms: C_5  and  O_6
REMARK    7  A    between atoms: N_14  and  C_17
REMARK    8  A    between atoms: C_17  and  C_18
REMARK    9  A    between atoms: C_17  and  C_19
REMARK   10  A    between atoms: N_20  and  C_21
REMARK                            x       y       z     vdW  Elec       q    Type
REMARK                         _______ _______ _______ _____ _____    ______ ____
ROOT
ATOM      1  N   VAL A   1      -1.559  -1.999   0.557  0.00  0.00    -0.308 N 
ATOM      2  C   UNK A   0      -2.432  -2.845  -0.107  0.00  0.00    +0.219 A 
ATOM      3  N   UNK A   0      -3.464  -2.320  -0.755  0.00  0.00    -0.197 NA
ATOM      4  C   UNK A   0      -4.329  -3.090  -1.406  0.00  0.00    +0.156 A 
ATOM      5  C   UNK A   0      -4.131  -4.481  -1.397  0.00  0.00    +0.148 A 
ATOM      6  C   UNK A   0      -3.025  -4.992  -0.697  0.00  0.00    +0.167 A 
ATOM      7  N   UNK A   0      -2.206  -4.148  -0.077  0.00  0.00    -0.195 NA
ATOM      8  N   UNK A   0      -3.074  -6.354  -0.852  0.00  0.00    -0.312 N 
ATOM      9  C   UNK A   0      -4.169  -6.639  -1.615  0.00  0.00    +0.201 A 
ATOM     10  N   UNK A   0      -4.787  -5.540  -1.933  0.00  0.00    -0.231 NA
ATOM     11  N   UNK A   0      -5.404  -2.533  -2.080  0.00  0.00    -0.298 N 
ATOM     12  H   VAL A   1      -0.797  -2.365   1.033  0.00  0.00    +0.149 HD
ATOM     13  H   UNK A   0      -6.076  -3.107  -2.478  0.00  0.00    +0.154 HD
ENDROOT
BRANCH  11  14
ATOM     14  C   UNK A   0      -5.519  -1.144  -2.185  0.00  0.00    +0.034 A 
ATOM     15  C   UNK A   0      -4.381  -0.361  -2.337  0.00  0.00    +0.023 A 
ATOM     16  C   UNK A   0      -4.497   1.011  -2.441  0.00  0.00    +0.003 A 
ATOM     17  C   UNK A   0      -5.745   1.607  -2.395  0.00  0.00    +0.020 A 
ATOM     18  C   UNK A   0      -6.880   0.830  -2.244  0.00  0.00    +0.043 A 
ATOM     19  C   UNK A   0      -6.770  -0.544  -2.144  0.00  0.00    +0.043 A 
ATOM     20 CL   UNK A   0      -8.444   1.582  -2.186  0.00  0.00    -0.083 Cl
ENDBRANCH  11  14
BRANCH   8  21
ATOM     21  C   UNK A   0      -2.126  -7.324  -0.300  0.00  0.00    +0.084 C 
ATOM     22  C   UNK A   0      -2.867  -8.292   0.625  0.00  0.00    +0.030 C 
ATOM     23  C   UNK A   0      -1.475  -8.107  -1.442  0.00  0.00    +0.030 C 
ENDBRANCH   8  21
BRANCH   1  24
ATOM     24  CA  VAL A   1      -1.786  -0.552   0.540  0.00  0.00    +0.101 C 
BRANCH  24  26
ATOM     25  CG1 VAL A   1       0.539  -0.244  -0.320  0.00  0.00    +0.009 C 
ATOM     26  CB  VAL A   1      -0.459   0.176   0.761  0.00  0.00    +0.005 C 
ATOM     27  CG2 VAL A   1      -0.687   1.687   0.686  0.00  0.00    +0.009 C 
ENDBRANCH  24  26
BRANCH  24  28
ATOM     28  C   VAL A   1      -2.765  -0.176   1.655  0.00  0.00    +0.178 C 
BRANCH  28  29
ATOM     29  O   VAL A   1      -2.172  -0.456   2.924  0.00  0.00    -0.393 OA
ATOM     30  H   VAL A   1      -2.738  -0.242   3.678  0.00  0.00    +0.209 HD
ENDBRANCH  28  29
ENDBRANCH  24  28
ENDBRANCH   1  24
TORSDOF 6
