REMARK  Name = CHEMBL441153
REMARK  5 active torsions:
REMARK  status: ('A' for Active; 'I' for Inactive)
REMARK    1  A    between atoms: C_1  and  N_2
REMARK    2  A    between atoms: N_2  and  C_3
REMARK    3  A    between atoms: N_2  and  S_4
REMARK    4  A    between atoms: S_4  and  C_7
REMARK    5  A    between atoms: C_14  and  C_15
REMARK                            x       y       z     vdW  Elec       q    Type
REMARK                         _______ _______ _______ _____ _____    ______ ____
ROOT
ATOM      1  C   UNL     1       1.682  -1.059  -1.905  0.00  0.00    +0.106 A 
ATOM      2  C   UNL     1       2.324  -0.107  -2.678  0.00  0.00    +0.030 A 
ATOM      3  C   UNL     1       3.642  -0.277  -3.054  0.00  0.00    +0.026 A 
ATOM      4  C   UNL     1       4.340  -1.411  -2.657  0.00  0.00    +0.042 A 
ATOM      5  C   UNL     1       3.687  -2.373  -1.874  0.00  0.00    +0.010 A 
ATOM      6  C   UNL     1       2.360  -2.190  -1.496  0.00  0.00    +0.039 A 
ATOM      7  C   UNL     1       4.674  -3.444  -1.616  0.00  0.00    +0.048 C 
ATOM      8  C   UNL     1       4.490  -4.587  -0.898  0.00  0.00    +0.036 C 
ATOM      9  C   UNL     1       5.907  -3.003  -2.309  0.00  0.00    +0.249 C 
ATOM     10  O   UNL     1       6.963  -3.603  -2.345  0.00  0.00    -0.270 OA
ATOM     11  N   UNL     1       5.649  -1.819  -2.892  0.00  0.00    -0.281 N 
ATOM     12  H   UNL     1       6.294  -1.314  -3.411  0.00  0.00    +0.155 HD
ENDROOT
BRANCH   8  13
ATOM     13  C   UNL     1       5.590  -5.542  -0.747  0.00  0.00    +0.037 C 
ATOM     14  C   UNL     1       5.499  -6.844   0.021  0.00  0.00    +0.060 C 
ATOM     15  C   UNL     1       6.988  -7.231   0.251  0.00  0.00    +0.019 C 
ATOM     16  C   UNL     1       7.406  -6.699   1.609  0.00  0.00    +0.006 C 
ATOM     17  C   UNL     1       8.911  -6.487   1.705  0.00  0.00    +0.000 C 
ATOM     18  C   UNL     1       9.338  -5.489   0.624  0.00  0.00    +0.002 C 
ATOM     19  C   UNL     1       9.079  -6.115  -0.742  0.00  0.00    +0.027 C 
ATOM     20  C   UNL     1       7.642  -6.519  -0.928  0.00  0.00    +0.109 C 
ATOM     21  N   UNL     1       6.771  -5.390  -1.256  0.00  0.00    -0.285 NA
ENDBRANCH   8  13
BRANCH   1  22
ATOM     22  S   UNL     1      -0.000  -0.824  -1.437  0.00  0.00    +0.060 S 
ATOM     23  O   UNL     1      -0.531  -2.115  -1.167  0.00  0.00    -0.153 OA
ATOM     24  O   UNL     1      -0.572   0.049  -2.401  0.00  0.00    -0.153 OA
BRANCH  22  26
ATOM     25  C   UNL     1      -0.018   1.461   0.010  0.00  0.00    +0.131 C 
ATOM     26  N   UNL     1       0.002  -0.004   0.002  0.00  0.00    -0.183 NA
ATOM     27  C   UNL     1       0.024  -0.743   1.267  0.00  0.00    +0.131 C 
ENDBRANCH  22  26
ENDBRANCH   1  22
TORSDOF 3
