REMARK  Name = CHEMBL194503
REMARK  11 active torsions:
REMARK  status: ('A' for Active; 'I' for Inactive)
REMARK    1  A    between atoms: C_1  and  N_2
REMARK    2  A    between atoms: N_2  and  C_3
REMARK    3  A    between atoms: N_2  and  C_4
REMARK    4  A    between atoms: C_4  and  C_5
REMARK    5  A    between atoms: C_5  and  C_6
REMARK    6  A    between atoms: C_9  and  C_12
REMARK    7  A    between atoms: C_17  and  N_23
REMARK    8  A    between atoms: C_18  and  C_21
REMARK    9  A    between atoms: N_23  and  C_24
REMARK   10  A    between atoms: C_26  and  O_32
REMARK   11  A    between atoms: O_32  and  C_33
REMARK                            x       y       z     vdW  Elec       q    Type
REMARK                         _______ _______ _______ _____ _____    ______ ____
ROOT
ATOM      1  C   UNL     1     -10.763  -0.898  -4.058  0.00  0.00    +0.022 A 
ATOM      2  C   UNL     1     -10.845  -0.661  -2.722  0.00  0.00    +0.044 A 
ATOM      3  C   UNL     1     -10.914  -1.736  -1.820  0.00  0.00    +0.080 A 
ATOM      4  C   UNL     1     -10.891  -3.020  -2.408  0.00  0.00    +0.060 A 
ATOM      5  S   UNL     1     -10.786  -2.680  -4.147  0.00  0.00    -0.085 S 
ATOM      6  C   UNL     1     -10.952  -4.175  -1.649  0.00  0.00    +0.066 A 
ATOM      7  C   UNL     1     -11.039  -4.037  -0.247  0.00  0.00    +0.092 A 
ATOM      8  C   UNL     1     -11.058  -2.741   0.286  0.00  0.00    +0.132 A 
ATOM      9  N   UNL     1     -10.999  -1.679  -0.468  0.00  0.00    -0.253 NA
ENDROOT
BRANCH   1  13
ATOM     10  C   UNL     1     -10.532   1.909  -7.238  0.00  0.00    -0.049 A 
ATOM     11  C   UNL     1     -10.423   0.556  -7.505  0.00  0.00    +0.004 A 
ATOM     12  C   UNL     1     -10.497  -0.361  -6.476  0.00  0.00    +0.009 A 
ATOM     13  C   UNL     1     -10.682   0.079  -5.165  0.00  0.00    -0.011 A 
ATOM     14  C   UNL     1     -10.792   1.445  -4.903  0.00  0.00    +0.009 A 
ATOM     15  C   UNL     1     -10.711   2.352  -5.940  0.00  0.00    +0.004 A 
BRANCH  10  16
ATOM     16  C   UNL     1     -10.450   2.905  -8.366  0.00  0.00    +0.016 C 
BRANCH  16  17
ATOM     17  C   UNL     1      -8.992   3.318  -8.577  0.00  0.00    -0.075 C 
BRANCH  17  19
ATOM     18  C   UNL     1      -9.614   5.521  -9.293  0.00  0.00    -0.097 C 
ATOM     19  N   UNL     1      -8.912   4.289  -9.677  0.00  0.00    +0.376 N 
ATOM     20  C   UNL     1      -7.503   4.595  -9.958  0.00  0.00    -0.097 C 
ATOM     21  H   UNL     1      -9.343   3.899 -10.501  0.00  0.00    -0.083 HD
ENDBRANCH  17  19
ENDBRANCH  16  17
ENDBRANCH  10  16
ENDBRANCH   1  13
BRANCH   7  22
ATOM     22  C   UNL     1     -11.106  -5.186   0.604  0.00  0.00    +0.103 C 
ATOM     23  N   UNL     1     -11.160  -6.098   1.280  0.00  0.00    -0.191 NA
ENDBRANCH   7  22
BRANCH   6  24
ATOM     24  N   UNL     1     -10.930  -5.426  -2.246  0.00  0.00    -0.311 N 
ATOM     25  H   UNL     1     -11.752  -5.822  -2.576  0.00  0.00    +0.152 HD
BRANCH  24  26
ATOM     26  C   UNL     1      -9.721  -6.119  -2.372  0.00  0.00    +0.054 A 
ATOM     27  C   UNL     1      -8.565  -5.608  -1.799  0.00  0.00    +0.071 A 
ATOM     28  C   UNL     1      -7.369  -6.297  -1.925  0.00  0.00    +0.140 A 
ATOM     29  C   UNL     1      -7.330  -7.496  -2.625  0.00  0.00    +0.084 A 
ATOM     30  C   UNL     1      -8.482  -8.003  -3.196  0.00  0.00    +0.045 A 
ATOM     31  C   UNL     1      -9.678  -7.322  -3.067  0.00  0.00    +0.064 A 
ATOM     32 CL   UNL     1     -11.124  -7.965  -3.779  0.00  0.00    -0.082 Cl
ATOM     33 CL   UNL     1      -5.831  -8.358  -2.784  0.00  0.00    -0.080 Cl
BRANCH  28  34
ATOM     34  O   UNL     1      -6.235  -5.799  -1.365  0.00  0.00    -0.494 OA
ATOM     35  C   UNL     1      -6.341  -4.542  -0.694  0.00  0.00    +0.277 C 
ENDBRANCH  28  34
ENDBRANCH  24  26
ENDBRANCH   6  24
TORSDOF 8
