REMARK  Name = CHEMBL372219
REMARK  10 active torsions:
REMARK  status: ('A' for Active; 'I' for Inactive)
REMARK    1  A    between atoms: C_1  and  N_2
REMARK    2  A    between atoms: N_5  and  C_8
REMARK    3  A    between atoms: C_8  and  C_9
REMARK    4  A    between atoms: C_9  and  C_10
REMARK    5  A    between atoms: C_13  and  C_16
REMARK    6  A    between atoms: C_21  and  N_27
REMARK    7  A    between atoms: C_22  and  C_25
REMARK    8  A    between atoms: N_27  and  C_28
REMARK    9  A    between atoms: C_30  and  O_36
REMARK   10  A    between atoms: O_36  and  C_37
REMARK                            x       y       z     vdW  Elec       q    Type
REMARK                         _______ _______ _______ _____ _____    ______ ____
ROOT
ATOM      1  C   UNL     1       1.982 -12.813   5.723  0.00  0.00    +0.022 A 
ATOM      2  C   UNL     1       2.305 -12.855   4.403  0.00  0.00    +0.044 A 
ATOM      3  C   UNL     1       1.369 -13.319   3.464  0.00  0.00    +0.080 A 
ATOM      4  C   UNL     1       0.124 -13.718   3.999  0.00  0.00    +0.060 A 
ATOM      5  S   UNL     1       0.312 -13.443   5.742  0.00  0.00    -0.085 S 
ATOM      6  C   UNL     1      -0.898 -14.197   3.200  0.00  0.00    +0.066 A 
ATOM      7  C   UNL     1      -0.662 -14.280   1.810  0.00  0.00    +0.092 A 
ATOM      8  C   UNL     1       0.589 -13.872   1.330  0.00  0.00    +0.132 A 
ATOM      9  N   UNL     1       1.525 -13.426   2.121  0.00  0.00    -0.253 NA
ENDROOT
BRANCH   1  13
ATOM     10  C   UNL     1       4.365 -11.525   8.995  0.00  0.00    -0.046 A 
ATOM     11  C   UNL     1       3.043 -11.876   9.202  0.00  0.00    +0.004 A 
ATOM     12  C   UNL     1       2.264 -12.296   8.143  0.00  0.00    +0.009 A 
ATOM     13  C   UNL     1       2.811 -12.364   6.862  0.00  0.00    -0.011 A 
ATOM     14  C   UNL     1       4.146 -12.008   6.660  0.00  0.00    +0.009 A 
ATOM     15  C   UNL     1       4.913 -11.586   7.726  0.00  0.00    +0.004 A 
BRANCH  10  16
ATOM     16  C   UNL     1       5.210 -11.068  10.156  0.00  0.00    +0.050 C 
BRANCH  16  17
ATOM     17  C   UNL     1       5.090  -9.550  10.308  0.00  0.00    +0.089 C 
BRANCH  17  22
ATOM     18  C   UNL     1       8.701  -7.068  13.850  0.00  0.00    -0.096 C 
ATOM     19  N   UNL     1       7.902  -7.476  12.687  0.00  0.00    +0.379 N 
ATOM     20  C   UNL     1       6.475  -7.290  12.984  0.00  0.00    -0.064 C 
ATOM     21  C   UNL     1       5.643  -7.697  11.766  0.00  0.00    +0.066 C 
ATOM     22  N   UNL     1       5.914  -9.104  11.439  0.00  0.00    -0.306 NA
ATOM     23  C   UNL     1       7.343  -9.310  11.164  0.00  0.00    +0.066 C 
ATOM     24  C   UNL     1       8.161  -8.890  12.387  0.00  0.00    -0.064 C 
ATOM     25  H   UNL     1       8.155  -6.911  11.890  0.00  0.00    -0.082 HD
ENDBRANCH  17  22
ENDBRANCH  16  17
ENDBRANCH  10  16
ENDBRANCH   1  13
BRANCH   7  26
ATOM     26  C   UNL     1      -1.672 -14.766   0.918  0.00  0.00    +0.103 C 
ATOM     27  N   UNL     1      -2.473 -15.152   0.211  0.00  0.00    -0.191 NA
ENDBRANCH   7  26
BRANCH   6  28
ATOM     28  N   UNL     1      -2.113 -14.584   3.744  0.00  0.00    -0.311 N 
ATOM     29  H   UNL     1      -2.222 -15.480   4.100  0.00  0.00    +0.152 HD
BRANCH  28  30
ATOM     30  C   UNL     1      -3.181 -13.682   3.781  0.00  0.00    +0.054 A 
ATOM     31  C   UNL     1      -3.065 -12.441   3.170  0.00  0.00    +0.071 A 
ATOM     32  C   UNL     1      -4.125 -11.551   3.208  0.00  0.00    +0.140 A 
ATOM     33  C   UNL     1      -5.302 -11.900   3.857  0.00  0.00    +0.084 A 
ATOM     34  C   UNL     1      -5.417 -13.137   4.466  0.00  0.00    +0.045 A 
ATOM     35  C   UNL     1      -4.363 -14.030   4.425  0.00  0.00    +0.064 A 
ATOM     36 CL   UNL     1      -4.513 -15.584   5.185  0.00  0.00    -0.082 Cl
ATOM     37 CL   UNL     1      -6.631 -10.784   3.905  0.00  0.00    -0.080 Cl
BRANCH  32  38
ATOM     38  O   UNL     1      -4.014 -10.335   2.611  0.00  0.00    -0.494 OA
ATOM     39  C   UNL     1      -2.761 -10.026   1.996  0.00  0.00    +0.277 C 
ENDBRANCH  32  38
ENDBRANCH  28  30
ENDBRANCH   6  28
TORSDOF 8
