REMARK  Name = CHEMBL101081
REMARK  11 active torsions:
REMARK  status: ('A' for Active; 'I' for Inactive)
REMARK    1  A    between atoms: C_1  and  O_2
REMARK    2  A    between atoms: O_2  and  C_3
REMARK    3  A    between atoms: C_8  and  C_9
REMARK    4  A    between atoms: C_12  and  C_15
REMARK    5  A    between atoms: C_15  and  C_16
REMARK    6  A    between atoms: C_16  and  N_17
REMARK    7  A    between atoms: C_25  and  C_38
REMARK    8  A    between atoms: C_26  and  N_27
REMARK    9  A    between atoms: N_27  and  C_28
REMARK   10  A    between atoms: C_30  and  O_36
REMARK   11  A    between atoms: O_36  and  C_37
REMARK                            x       y       z     vdW  Elec       q    Type
REMARK                         _______ _______ _______ _____ _____    ______ ____
ROOT
ATOM      1  C   UNL     1      -0.103  -0.401  -1.407  0.00  0.00    +0.129 A 
ATOM      2  C   UNL     1       0.680   0.302  -2.276  0.00  0.00    +0.058 A 
ATOM      3  C   UNL     1       1.382  -0.371  -3.286  0.00  0.00    +0.026 A 
ATOM      4  C   UNL     1       1.280  -1.779  -3.404  0.00  0.00    +0.074 A 
ATOM      5  C   UNL     1       0.471  -2.484  -2.502  0.00  0.00    +0.040 A 
ATOM      6  C   UNL     1      -0.208  -1.800  -1.510  0.00  0.00    +0.026 A 
ATOM      7  N   UNL     1       1.951  -2.426  -4.369  0.00  0.00    -0.254 NA
ATOM      8  C   UNL     1       2.714  -1.797  -5.225  0.00  0.00    +0.132 A 
ATOM      9  C   UNL     1       2.874  -0.403  -5.183  0.00  0.00    +0.091 A 
ATOM     10  C   UNL     1       2.200   0.336  -4.199  0.00  0.00    +0.060 A 
ENDROOT
BRANCH   6  11
ATOM     11  C   UNL     1      -1.059  -2.546  -0.552  0.00  0.00    -0.014 A 
ATOM     12  C   UNL     1      -0.928  -2.326   0.818  0.00  0.00    +0.009 A 
ATOM     13  C   UNL     1      -1.722  -3.024   1.705  0.00  0.00    +0.004 A 
ATOM     14  C   UNL     1      -2.646  -3.941   1.237  0.00  0.00    -0.046 A 
ATOM     15  C   UNL     1      -2.780  -4.164  -0.122  0.00  0.00    +0.004 A 
ATOM     16  C   UNL     1      -1.996  -3.467  -1.018  0.00  0.00    +0.009 A 
BRANCH  14  17
ATOM     17  C   UNL     1      -3.510  -4.700   2.211  0.00  0.00    +0.050 C 
BRANCH  17  18
ATOM     18  C   UNL     1      -4.799  -3.916   2.468  0.00  0.00    +0.089 C 
BRANCH  18  19
ATOM     19  N   UNL     1      -5.641  -4.655   3.417  0.00  0.00    -0.298 NA
ATOM     20  C   UNL     1      -6.118  -5.915   2.828  0.00  0.00    +0.112 C 
ATOM     21  C   UNL     1      -6.940  -6.680   3.868  0.00  0.00    +0.175 C 
ATOM     22  O   UNL     1      -8.015  -5.853   4.321  0.00  0.00    -0.377 OA
ATOM     23  C   UNL     1      -7.587  -4.618   4.901  0.00  0.00    +0.175 C 
ATOM     24  C   UNL     1      -6.771  -3.832   3.871  0.00  0.00    +0.112 C 
ENDBRANCH  18  19
ENDBRANCH  17  18
ENDBRANCH  14  17
ENDBRANCH   6  11
BRANCH   1  26
ATOM     25  C   UNL     1      -0.632   1.675  -0.377  0.00  0.00    +0.277 C 
ATOM     26  O   UNL     1      -0.781   0.255  -0.429  0.00  0.00    -0.494 OA
ENDBRANCH   1  26
BRANCH  10  27
ATOM     27  N   UNL     1       2.331   1.708  -4.124  0.00  0.00    -0.312 N 
ATOM     28  H   UNL     1       2.149   2.168  -3.289  0.00  0.00    +0.152 HD
BRANCH  27  29
ATOM     29  C   UNL     1       2.727   2.436  -5.250  0.00  0.00    +0.053 A 
ATOM     30  C   UNL     1       3.959   3.075  -5.268  0.00  0.00    +0.071 A 
ATOM     31  C   UNL     1       4.348   3.795  -6.385  0.00  0.00    +0.140 A 
ATOM     32  C   UNL     1       3.506   3.877  -7.486  0.00  0.00    +0.084 A 
ATOM     33  C   UNL     1       2.278   3.240  -7.468  0.00  0.00    +0.045 A 
ATOM     34  C   UNL     1       1.889   2.516  -6.357  0.00  0.00    +0.064 A 
ATOM     35 CL   UNL     1       0.351   1.711  -6.340  0.00  0.00    -0.082 Cl
ATOM     36 CL   UNL     1       3.993   4.780  -8.886  0.00  0.00    -0.080 Cl
BRANCH  31  37
ATOM     37  O   UNL     1       5.554   4.422  -6.404  0.00  0.00    -0.494 OA
ATOM     38  C   UNL     1       6.418   4.202  -5.287  0.00  0.00    +0.277 C 
ENDBRANCH  31  37
ENDBRANCH  27  29
ENDBRANCH  10  27
BRANCH   9  39
ATOM     39  C   UNL     1       3.716   0.258  -6.134  0.00  0.00    +0.103 C 
ATOM     40  N   UNL     1       4.385   0.782  -6.888  0.00  0.00    -0.191 NA
ENDBRANCH   9  39
TORSDOF 9
