REMARK  Name = CHEMBL250214
REMARK  5 active torsions:
REMARK  status: ('A' for Active; 'I' for Inactive)
REMARK    1  A    between atoms: C_1  and  C_2
REMARK    2  A    between atoms: C_4  and  C_27
REMARK    3  A    between atoms: N_12  and  C_13
REMARK    4  A    between atoms: C_16  and  C_19
REMARK    5  A    between atoms: C_29  and  O_34
REMARK                            x       y       z     vdW  Elec       q    Type
REMARK                         _______ _______ _______ _____ _____    ______ ____
ROOT
ATOM      1  C   UNL     1       0.465   1.527   0.051  0.00  0.00    +0.046 C 
ATOM      2  C   UNL     1      -0.029   0.103   0.039  0.00  0.00    -0.022 A 
ATOM      3  C   UNL     1      -0.282  -0.519  -1.143  0.00  0.00    +0.014 A 
ATOM      4  C   UNL     1      -0.743  -1.845  -1.174  0.00  0.00    -0.014 A 
ATOM      5  C   UNL     1      -0.949  -2.547  -0.001  0.00  0.00    +0.040 A 
ATOM      6  C   UNL     1      -0.694  -1.924   1.229  0.00  0.00    +0.112 A 
ATOM      7  C   UNL     1      -0.223  -0.584   1.248  0.00  0.00    +0.097 A 
ATOM      8  N   UNL     1       0.021  -0.006   2.430  0.00  0.00    -0.211 NA
ATOM      9  C   UNL     1      -0.179  -0.700   3.536  0.00  0.00    +0.240 A 
ATOM     10  N   UNL     1      -0.617  -1.961   3.500  0.00  0.00    -0.112 NA
ATOM     11  N   UNL     1      -0.879  -2.562   2.390  0.00  0.00    -0.144 NA
ATOM     12  N   UNL     1       0.072  -0.106   4.762  0.00  0.00    -0.282 N 
ATOM     13  H   UNL     1       0.311   0.833   4.806  0.00  0.00    +0.155 HD
ENDROOT
BRANCH   4  14
ATOM     14  C   UNL     1      -1.011  -2.499  -2.478  0.00  0.00    +0.004 A 
ATOM     15  C   UNL     1      -0.483  -3.760  -2.750  0.00  0.00    +0.055 A 
ATOM     16  C   UNL     1      -0.737  -4.365  -3.969  0.00  0.00    +0.118 A 
ATOM     17  C   UNL     1      -1.516  -3.716  -4.918  0.00  0.00    +0.047 A 
ATOM     18  C   UNL     1      -2.040  -2.466  -4.651  0.00  0.00    +0.024 A 
ATOM     19  C   UNL     1      -1.798  -1.857  -3.434  0.00  0.00    +0.049 A 
ATOM     20 CL   UNL     1      -2.466  -0.290  -3.099  0.00  0.00    -0.083 Cl
BRANCH  16  21
ATOM     21  O   UNL     1      -0.223  -5.594  -4.237  0.00  0.00    -0.507 OA
ATOM     22  H   UNL     1      -0.798  -6.326  -3.978  0.00  0.00    +0.292 HD
ENDBRANCH  16  21
ENDBRANCH   4  14
BRANCH  12  23
ATOM     23  C   UNL     1      -0.018  -0.857   5.931  0.00  0.00    +0.034 A 
ATOM     24  C   UNL     1       0.401  -2.184   5.938  0.00  0.00    +0.024 A 
ATOM     25  C   UNL     1       0.313  -2.930   7.092  0.00  0.00    +0.015 A 
ATOM     26  C   UNL     1      -0.198  -2.352   8.258  0.00  0.00    +0.037 A 
ATOM     27  C   UNL     1      -0.618  -1.019   8.247  0.00  0.00    +0.015 A 
ATOM     28  C   UNL     1      -0.522  -0.277   7.092  0.00  0.00    +0.024 A 
BRANCH  26  29
ATOM     29  C   UNL     1      -0.295  -3.148   9.496  0.00  0.00    +0.247 C 
ATOM     30  O   UNL     1       0.638  -3.846   9.845  0.00  0.00    -0.270 OA
ATOM     31  N   UNL     1      -1.417  -3.102  10.241  0.00  0.00    -0.295 N 
ATOM     32  C   UNL     1      -1.568  -3.952  11.431  0.00  0.00    +0.123 C 
ATOM     33  C   UNL     1      -2.904  -4.697  11.332  0.00  0.00    +0.100 C 
ATOM     34  N   UNL     1      -3.986  -3.727  11.119  0.00  0.00    -0.313 NA
ATOM     35  C   UNL     1      -3.821  -3.013   9.846  0.00  0.00    +0.100 C 
ATOM     36  C   UNL     1      -2.520  -2.195   9.889  0.00  0.00    +0.123 C 
ATOM     37  H   UNL     1      -4.889  -4.176  11.168  0.00  0.00    +0.122 HD
ENDBRANCH  26  29
ENDBRANCH  12  23
TORSDOF 4
