REMARK  Name = CHEMBL193751
REMARK  9 active torsions:
REMARK  status: ('A' for Active; 'I' for Inactive)
REMARK    1  A    between atoms: C_1  and  N_2
REMARK    2  A    between atoms: N_5  and  C_8
REMARK    3  A    between atoms: C_8  and  C_9
REMARK    4  A    between atoms: C_10  and  C_11
REMARK    5  A    between atoms: C_16  and  N_22
REMARK    6  A    between atoms: C_17  and  C_20
REMARK    7  A    between atoms: N_22  and  C_23
REMARK    8  A    between atoms: C_25  and  O_31
REMARK    9  A    between atoms: O_31  and  C_32
REMARK                            x       y       z     vdW  Elec       q    Type
REMARK                         _______ _______ _______ _____ _____    ______ ____
ROOT
ATOM      1  C   UNL     1      -1.422  -5.395   9.184  0.00  0.00    +0.065 A 
ATOM      2  C   UNL     1      -0.355  -4.605   8.883  0.00  0.00    +0.053 A 
ATOM      3  C   UNL     1       0.861  -5.188   8.488  0.00  0.00    +0.081 A 
ATOM      4  C   UNL     1       0.866  -6.599   8.437  0.00  0.00    +0.061 A 
ATOM      5  S   UNL     1      -0.779  -7.041   8.935  0.00  0.00    -0.076 S 
ATOM      6  C   UNL     1       1.989  -7.315   8.066  0.00  0.00    +0.066 A 
ATOM      7  C   UNL     1       3.153  -6.588   7.733  0.00  0.00    +0.092 A 
ATOM      8  C   UNL     1       3.096  -5.189   7.800  0.00  0.00    +0.132 A 
ATOM      9  N   UNL     1       2.013  -4.554   8.156  0.00  0.00    -0.253 NA
ENDROOT
BRANCH   1  11
ATOM     10  C   UNL     1      -3.810  -4.681   9.946  0.00  0.00    -0.081 C 
ATOM     11  C   UNL     1      -2.734  -5.002   9.602  0.00  0.00    -0.058 C 
BRANCH  10  12
ATOM     12  C   UNL     1      -5.158  -4.277  10.376  0.00  0.00    +0.174 C 
BRANCH  12  17
ATOM     13  C   UNL     1      -6.417   1.198   9.949  0.00  0.00    -0.096 C 
ATOM     14  N   UNL     1      -6.388  -0.267   9.851  0.00  0.00    +0.379 N 
ATOM     15  C   UNL     1      -6.489  -0.850  11.195  0.00  0.00    -0.064 C 
ATOM     16  C   UNL     1      -6.478  -2.376  11.091  0.00  0.00    +0.067 C 
ATOM     17  N   UNL     1      -5.233  -2.811  10.443  0.00  0.00    -0.295 NA
ATOM     18  C   UNL     1      -5.106  -2.216   9.105  0.00  0.00    +0.067 C 
ATOM     19  C   UNL     1      -5.128  -0.690   9.225  0.00  0.00    -0.064 C 
ATOM     20  H   UNL     1      -7.165  -0.582   9.289  0.00  0.00    -0.082 HD
ENDBRANCH  12  17
ENDBRANCH  10  12
ENDBRANCH   1  11
BRANCH   7  21
ATOM     21  C   UNL     1       4.355  -7.259   7.340  0.00  0.00    +0.103 C 
ATOM     22  N   UNL     1       5.309  -7.791   7.028  0.00  0.00    -0.191 NA
ENDBRANCH   7  21
BRANCH   6  23
ATOM     23  N   UNL     1       1.974  -8.701   8.022  0.00  0.00    -0.311 N 
ATOM     24  H   UNL     1       2.128  -9.213   8.831  0.00  0.00    +0.152 HD
BRANCH  23  25
ATOM     25  C   UNL     1       1.736  -9.360   6.811  0.00  0.00    +0.054 A 
ATOM     26  C   UNL     1       1.636  -8.633   5.633  0.00  0.00    +0.071 A 
ATOM     27  C   UNL     1       1.401  -9.289   4.435  0.00  0.00    +0.140 A 
ATOM     28  C   UNL     1       1.267 -10.671   4.415  0.00  0.00    +0.084 A 
ATOM     29  C   UNL     1       1.366 -11.394   5.590  0.00  0.00    +0.045 A 
ATOM     30  C   UNL     1       1.606 -10.743   6.786  0.00  0.00    +0.064 A 
ATOM     31 CL   UNL     1       1.738 -11.654   8.258  0.00  0.00    -0.082 Cl
ATOM     32 CL   UNL     1       0.972 -11.492   2.914  0.00  0.00    -0.080 Cl
BRANCH  27  33
ATOM     33  O   UNL     1       1.302  -8.580   3.280  0.00  0.00    -0.494 OA
ATOM     34  C   UNL     1       1.568  -7.177   3.354  0.00  0.00    +0.277 C 
ENDBRANCH  27  33
ENDBRANCH  23  25
ENDBRANCH   6  23
TORSDOF 7
