REMARK  Name = CHEMBL1083001
REMARK  9 active torsions:
REMARK  status: ('A' for Active; 'I' for Inactive)
REMARK    1  A    between atoms: C_1  and  N_2
REMARK    2  A    between atoms: N_5  and  C_8
REMARK    3  A    between atoms: C_11  and  C_14
REMARK    4  A    between atoms: C_21  and  C_24
REMARK    5  A    between atoms: C_22  and  N_23
REMARK    6  A    between atoms: C_27  and  N_30
REMARK    7  A    between atoms: C_31  and  C_33
REMARK    8  A    between atoms: C_33  and  C_34
REMARK    9  A    between atoms: C_34  and  C_35
REMARK                            x       y       z     vdW  Elec       q    Type
REMARK                         _______ _______ _______ _____ _____    ______ ____
ROOT
ATOM      1  C   UNL     1      -2.305  -6.953   3.858  0.00  0.00    +0.046 A 
ATOM      2  C   UNL     1      -3.613  -7.089   4.335  0.00  0.00    +0.145 A 
ATOM      3  N   UNL     1      -3.752  -8.285   4.853  0.00  0.00    -0.171 NA
ATOM      4  N   UNL     1      -2.544  -8.981   4.736  0.00  0.00    -0.200 N 
ATOM      5  C   UNL     1      -1.642  -8.159   4.113  0.00  0.00    +0.165 A 
ATOM      6  N   UNL     1      -0.393  -8.570   3.864  0.00  0.00    -0.235 NA
ATOM      7  C   UNL     1       0.012  -9.773   4.203  0.00  0.00    +0.125 A 
ATOM      8  C   UNL     1      -0.870 -10.662   4.841  0.00  0.00    +0.040 A 
ATOM      9  C   UNL     1      -2.168 -10.242   5.113  0.00  0.00    +0.129 A 
ENDROOT
BRANCH   1  13
ATOM     10  C   UNL     1      -0.656  -3.518   1.967  0.00  0.00    +0.030 A 
ATOM     11  C   UNL     1      -1.871  -4.033   1.532  0.00  0.00    +0.024 A 
ATOM     12  C   UNL     1      -2.408  -5.146   2.144  0.00  0.00    +0.010 A 
ATOM     13  C   UNL     1      -1.730  -5.756   3.199  0.00  0.00    -0.013 A 
ATOM     14  C   UNL     1      -0.510  -5.238   3.633  0.00  0.00    +0.010 A 
ATOM     15  C   UNL     1       0.025  -4.127   3.015  0.00  0.00    +0.024 A 
BRANCH  10  20
ATOM     16  C   UNL     1       0.243   1.762   0.845  0.00  0.00    +0.105 C 
ATOM     17  N   UNL     1       0.346   0.299   0.772  0.00  0.00    -0.302 NA
ATOM     18  C   UNL     1      -0.942  -0.301   0.398  0.00  0.00    +0.103 C 
ATOM     19  C   UNL     1      -0.751  -1.802   0.158  0.00  0.00    +0.120 C 
ATOM     20  N   UNL     1      -0.114  -2.389   1.346  0.00  0.00    -0.327 N 
ATOM     21  C   UNL     1       1.109  -1.756   1.864  0.00  0.00    +0.120 C 
ATOM     22  C   UNL     1       0.845  -0.257   2.037  0.00  0.00    +0.103 C 
ENDBRANCH  10  20
ENDBRANCH   1  13
BRANCH   8  23
ATOM     23  C   UNL     1      -0.421 -12.021   5.227  0.00  0.00    -0.013 A 
ATOM     24  C   UNL     1      -0.357 -12.380   6.573  0.00  0.00    +0.010 A 
ATOM     25  C   UNL     1       0.060 -13.645   6.929  0.00  0.00    +0.024 A 
ATOM     26  C   UNL     1       0.418 -14.562   5.948  0.00  0.00    +0.033 A 
ATOM     27  C   UNL     1       0.356 -14.207   4.606  0.00  0.00    +0.024 A 
ATOM     28  C   UNL     1      -0.067 -12.945   4.244  0.00  0.00    +0.010 A 
BRANCH  26  29
ATOM     29  N   UNL     1       0.843 -15.845   6.312  0.00  0.00    -0.285 N 
ATOM     30  C   UNL     1       0.517 -16.905   5.546  0.00  0.00    +0.217 C 
ATOM     31  O   UNL     1      -0.072 -16.738   4.499  0.00  0.00    -0.275 OA
ATOM     32  H   UNL     1       1.371 -15.971   7.116  0.00  0.00    +0.155 HD
BRANCH  30  33
ATOM     33  C   UNL     1       0.885 -18.297   5.991  0.00  0.00    +0.096 C 
BRANCH  33  34
ATOM     34  C   UNL     1       0.404 -19.309   4.949  0.00  0.00    +0.013 C 
BRANCH  34  35
ATOM     35  C   UNL     1       0.777 -20.722   5.401  0.00  0.00    -0.011 C 
ATOM     36  C   UNL     1      -0.078 -21.145   6.621  0.00  0.00    +0.003 C 
ATOM     37  C   UNL     1      -0.033 -22.692   6.550  0.00  0.00    +0.000 C 
ATOM     38  C   UNL     1      -0.101 -23.003   5.040  0.00  0.00    +0.000 C 
ATOM     39  C   UNL     1       0.415 -21.751   4.310  0.00  0.00    +0.003 C 
ENDBRANCH  34  35
ENDBRANCH  33  34
ENDBRANCH  30  33
ENDBRANCH  26  29
ENDBRANCH   8  23
BRANCH   9  40
ATOM     40  N   UNL     1      -3.061 -11.084   5.735  0.00  0.00    -0.343 N 
ATOM     41  H   UNL     1      -3.967 -10.786   5.911  0.00  0.00    +0.144 HD
ATOM     42  H   UNL     1      -2.784 -11.976   5.998  0.00  0.00    +0.144 HD
ENDBRANCH   9  40
TORSDOF 8
