REMARK  Name = CHEMBL44577
REMARK  7 active torsions:
REMARK  status: ('A' for Active; 'I' for Inactive)
REMARK    1  A    between atoms: C_1  and  N_2
REMARK    2  A    between atoms: N_5  and  C_8
REMARK    3  A    between atoms: C_11  and  N_14
REMARK    4  A    between atoms: C_17  and  C_19
REMARK    5  A    between atoms: C_22  and  O_25
REMARK    6  A    between atoms: O_25  and  C_26
REMARK    7  A    between atoms: C_32  and  N_36
REMARK                            x       y       z     vdW  Elec       q    Type
REMARK                         _______ _______ _______ _____ _____    ______ ____
ROOT
ATOM      1  N   UNL     1      -2.442  -8.369   2.332  0.00  0.00    -0.243 N 
ATOM      2  C   UNL     1      -2.345  -8.990   3.541  0.00  0.00    +0.164 A 
ATOM      3  C   UNL     1      -2.013 -10.334   3.285  0.00  0.00    +0.086 A 
ATOM      4  C   UNL     1      -1.921 -10.468   1.832  0.00  0.00    +0.105 A 
ATOM      5  N   UNL     1      -2.185  -9.292   1.313  0.00  0.00    -0.168 NA
ATOM      6  C   UNL     1      -1.852 -11.204   4.375  0.00  0.00    +0.131 A 
ATOM      7  N   UNL     1      -2.019 -10.719   5.602  0.00  0.00    -0.220 NA
ATOM      8  C   UNL     1      -2.330  -9.450   5.796  0.00  0.00    +0.225 A 
ATOM      9  N   UNL     1      -2.491  -8.598   4.807  0.00  0.00    -0.216 NA
ENDROOT
BRANCH   1  13
ATOM     10  C   UNL     1      -3.249  -4.678   0.351  0.00  0.00    +0.057 C 
ATOM     11  C   UNL     1      -4.397  -5.369   1.091  0.00  0.00    +0.021 C 
ATOM     12  C   UNL     1      -4.053  -6.844   1.301  0.00  0.00    +0.028 C 
ATOM     13  C   UNL     1      -2.772  -6.956   2.130  0.00  0.00    +0.110 C 
ATOM     14  C   UNL     1      -1.624  -6.265   1.391  0.00  0.00    +0.028 C 
ATOM     15  C   UNL     1      -1.968  -4.789   1.181  0.00  0.00    +0.021 C 
BRANCH  10  20
ATOM     16  C   UNL     1      -4.372   0.494  -1.583  0.00  0.00    -0.096 C 
ATOM     17  N   UNL     1      -4.036  -0.929  -1.436  0.00  0.00    +0.379 N 
ATOM     18  C   UNL     1      -5.149  -1.629  -0.782  0.00  0.00    -0.064 C 
ATOM     19  C   UNL     1      -4.808  -3.114  -0.645  0.00  0.00    +0.066 C 
ATOM     20  N   UNL     1      -3.580  -3.260   0.149  0.00  0.00    -0.303 NA
ATOM     21  C   UNL     1      -2.462  -2.544  -0.480  0.00  0.00    +0.066 C 
ATOM     22  C   UNL     1      -2.823  -1.063  -0.619  0.00  0.00    -0.064 C 
ATOM     23  H   UNL     1      -3.874  -1.332  -2.347  0.00  0.00    -0.082 HD
ENDBRANCH  10  20
ENDBRANCH   1  13
BRANCH   4  24
ATOM     24  C   UNL     1      -1.593 -11.705   1.083  0.00  0.00    +0.003 A 
ATOM     25  C   UNL     1      -0.696 -11.659   0.017  0.00  0.00    +0.014 A 
ATOM     26  C   UNL     1      -0.394 -12.811  -0.677  0.00  0.00    +0.047 A 
ATOM     27  C   UNL     1      -0.981 -14.016  -0.316  0.00  0.00    +0.128 A 
ATOM     28  C   UNL     1      -1.875 -14.065   0.746  0.00  0.00    +0.047 A 
ATOM     29  C   UNL     1      -2.178 -12.917   1.448  0.00  0.00    +0.014 A 
BRANCH  27  30
ATOM     30  O   UNL     1      -0.681 -15.150  -1.002  0.00  0.00    -0.456 OA
BRANCH  30  31
ATOM     31  C   UNL     1      -1.587 -15.607  -1.905  0.00  0.00    +0.128 A 
ATOM     32  C   UNL     1      -2.711 -14.850  -2.208  0.00  0.00    +0.046 A 
ATOM     33  C   UNL     1      -3.630 -15.318  -3.126  0.00  0.00    +0.004 A 
ATOM     34  C   UNL     1      -3.432 -16.539  -3.745  0.00  0.00    +0.000 A 
ATOM     35  C   UNL     1      -2.314 -17.295  -3.445  0.00  0.00    +0.004 A 
ATOM     36  C   UNL     1      -1.388 -16.829  -2.532  0.00  0.00    +0.046 A 
ENDBRANCH  30  31
ENDBRANCH  27  30
ENDBRANCH   4  24
BRANCH   6  37
ATOM     37  N   UNL     1      -1.527 -12.533   4.178  0.00  0.00    -0.342 N 
ATOM     38  H   UNL     1      -1.242 -12.838   3.303  0.00  0.00    +0.144 HD
ATOM     39  H   UNL     1      -1.583 -13.161   4.916  0.00  0.00    +0.144 HD
ENDBRANCH   6  37
TORSDOF 6
