REMARK  Name = CHEMBL352977
REMARK  8 active torsions:
REMARK  status: ('A' for Active; 'I' for Inactive)
REMARK    1  A    between atoms: C_1  and  O_2
REMARK    2  A    between atoms: O_2  and  C_3
REMARK    3  A    between atoms: C_8  and  O_9
REMARK    4  A    between atoms: O_9  and  C_10
REMARK    5  A    between atoms: C_10  and  C_11
REMARK    6  A    between atoms: C_11  and  C_12
REMARK    7  A    between atoms: C_12  and  N_13
REMARK    8  A    between atoms: N_23  and  C_24
REMARK                            x       y       z     vdW  Elec       q    Type
REMARK                         _______ _______ _______ _____ _____    ______ ____
ROOT
ATOM      1  C   UNL     1       0.416  -0.291  -0.957  0.00  0.00    +0.162 A 
ATOM      2  C   UNL     1       1.010   0.351  -2.006  0.00  0.00    +0.062 A 
ATOM      3  C   UNL     1       2.403   0.322  -2.137  0.00  0.00    +0.044 A 
ATOM      4  C   UNL     1       3.188  -0.370  -1.182  0.00  0.00    +0.080 A 
ATOM      5  C   UNL     1       2.559  -1.021  -0.115  0.00  0.00    +0.078 A 
ATOM      6  C   UNL     1       1.186  -0.974  -0.005  0.00  0.00    +0.164 A 
ATOM      7  N   UNL     1       4.522  -0.382  -1.331  0.00  0.00    -0.235 NA
ATOM      8  C   UNL     1       5.084   0.238  -2.341  0.00  0.00    +0.223 A 
ATOM      9  N   UNL     1       4.392   0.898  -3.256  0.00  0.00    -0.220 NA
ATOM     10  C   UNL     1       3.068   0.971  -3.204  0.00  0.00    +0.134 A 
ATOM     11  N   UNL     1       2.359   1.662  -4.166  0.00  0.00    -0.297 N 
ATOM     12  H   UNL     1       1.389   1.649  -4.156  0.00  0.00    +0.154 HD
ENDROOT
BRANCH  11  13
ATOM     13  C   UNL     1       3.038   2.379  -5.154  0.00  0.00    +0.062 A 
ATOM     14  C   UNL     1       3.370   1.767  -6.368  0.00  0.00    +0.043 A 
ATOM     15  C   UNL     1       3.168   0.426  -6.929  0.00  0.00    +0.051 A 
ATOM     16  C   UNL     1       3.716   0.446  -8.152  0.00  0.00    +0.196 A 
ATOM     17  O   UNL     1       4.237   1.660  -8.405  0.00  0.00    -0.463 OA
ATOM     18  C   UNL     1       4.052   2.490  -7.359  0.00  0.00    +0.137 A 
ATOM     19  C   UNL     1       4.392   3.817  -7.122  0.00  0.00    +0.048 A 
ATOM     20  C   UNL     1       4.061   4.413  -5.923  0.00  0.00    +0.025 A 
ATOM     21  C   UNL     1       3.382   3.704  -4.943  0.00  0.00    +0.063 A 
ATOM     22 CL   UNL     1       2.969   4.478  -3.445  0.00  0.00    -0.082 Cl
ENDBRANCH  11  13
BRANCH   1  24
ATOM     23  C   UNL     1      -1.668   0.449  -1.831  0.00  0.00    +0.277 C 
ATOM     24  O   UNL     1      -0.938  -0.263  -0.830  0.00  0.00    -0.491 OA
ENDBRANCH   1  24
BRANCH   6  25
ATOM     25  O   UNL     1       0.573  -1.600   1.032  0.00  0.00    -0.488 OA
BRANCH  25  26
ATOM     26  C   UNL     1       1.413  -2.279   1.968  0.00  0.00    +0.230 C 
BRANCH  26  27
ATOM     27  C   UNL     1       0.550  -2.918   3.058  0.00  0.00    +0.056 C 
BRANCH  27  28
ATOM     28  C   UNL     1       1.449  -3.645   4.060  0.00  0.00    +0.088 C 
BRANCH  28  29
ATOM     29  N   UNL     1       0.620  -4.259   5.106  0.00  0.00    -0.298 NA
ATOM     30  C   UNL     1      -0.044  -3.232   5.923  0.00  0.00    +0.112 C 
ATOM     31  C   UNL     1      -0.942  -3.913   6.959  0.00  0.00    +0.175 C 
ATOM     32  O   UNL     1      -0.154  -4.808   7.750  0.00  0.00    -0.377 OA
ATOM     33  C   UNL     1       0.506  -5.821   6.987  0.00  0.00    +0.175 C 
ATOM     34  C   UNL     1       1.419  -5.159   5.950  0.00  0.00    +0.112 C 
ENDBRANCH  28  29
ENDBRANCH  27  28
ENDBRANCH  26  27
ENDBRANCH  25  26
ENDBRANCH   6  25
TORSDOF 7
