REMARK  Name = CHEMBL335025
REMARK  10 active torsions:
REMARK  status: ('A' for Active; 'I' for Inactive)
REMARK    1  A    between atoms: C_1  and  C_2
REMARK    2  A    between atoms: C_5  and  O_29
REMARK    3  A    between atoms: C_7  and  N_8
REMARK    4  A    between atoms: N_8  and  C_9
REMARK    5  A    between atoms: C_14  and  O_27
REMARK    6  A    between atoms: C_15  and  O_25
REMARK    7  A    between atoms: C_22  and  C_23
REMARK    8  A    between atoms: O_25  and  C_26
REMARK    9  A    between atoms: O_27  and  C_28
REMARK   10  A    between atoms: O_29  and  C_30
REMARK                            x       y       z     vdW  Elec       q    Type
REMARK                         _______ _______ _______ _____ _____    ______ ____
ROOT
ATOM      1  C   UNL     1       0.011  -0.688   3.601  0.00  0.00    +0.060 A 
ATOM      2  C   UNL     1      -0.428  -0.111   4.822  0.00  0.00    +0.023 A 
ATOM      3  C   UNL     1      -0.980   1.165   4.853  0.00  0.00    +0.020 A 
ATOM      4  C   UNL     1      -1.402   1.703   6.068  0.00  0.00    -0.013 A 
ATOM      5  C   UNL     1      -1.967   2.994   6.135  0.00  0.00    +0.058 A 
ATOM      6  C   UNL     1      -2.370   3.490   7.337  0.00  0.00    +0.162 A 
ATOM      7  C   UNL     1      -2.237   2.745   8.520  0.00  0.00    +0.162 A 
ATOM      8  C   UNL     1      -1.699   1.494   8.518  0.00  0.00    +0.058 A 
ATOM      9  C   UNL     1      -1.264   0.925   7.303  0.00  0.00    -0.012 A 
ATOM     10  C   UNL     1      -0.709  -0.355   7.268  0.00  0.00    +0.037 A 
ATOM     11  C   UNL     1      -0.288  -0.892   6.054  0.00  0.00    +0.073 A 
ATOM     12  N   UNL     1       0.248  -2.125   6.000  0.00  0.00    -0.254 NA
ATOM     13  C   UNL     1       0.652  -2.654   4.877  0.00  0.00    +0.132 A 
ATOM     14  C   UNL     1       0.551  -1.980   3.648  0.00  0.00    +0.091 A 
ENDROOT
BRANCH   1  15
ATOM     15  N   UNL     1      -0.095  -0.003   2.410  0.00  0.00    -0.313 N 
ATOM     16  H   UNL     1      -0.176   0.964   2.412  0.00  0.00    +0.152 HD
BRANCH  15  23
ATOM     17  C   UNL     1      -2.350  -1.614   1.775  0.00  0.00    +0.046 C 
ATOM     18  C   UNL     1      -1.167  -1.500   0.849  0.00  0.00    -0.028 A 
ATOM     19  C   UNL     1      -1.160  -2.185  -0.351  0.00  0.00    +0.028 A 
ATOM     20  C   UNL     1      -0.076  -2.083  -1.203  0.00  0.00    +0.083 A 
ATOM     21  C   UNL     1       1.010  -1.290  -0.855  0.00  0.00    +0.140 A 
ATOM     22  C   UNL     1       1.006  -0.601   0.347  0.00  0.00    +0.070 A 
ATOM     23  C   UNL     1      -0.086  -0.701   1.199  0.00  0.00    +0.038 A 
ATOM     24 CL   UNL     1      -0.071  -2.946  -2.708  0.00  0.00    -0.080 Cl
BRANCH  21  25
ATOM     25  O   UNL     1       2.076  -1.190  -1.692  0.00  0.00    -0.494 OA
ATOM     26  C   UNL     1       3.108  -0.273  -1.323  0.00  0.00    +0.277 C 
ENDBRANCH  21  25
ENDBRANCH  15  23
ENDBRANCH   1  15
BRANCH  14  27
ATOM     27  C   UNL     1       1.004  -2.611   2.445  0.00  0.00    +0.103 C 
ATOM     28  N   UNL     1       1.364  -3.112   1.491  0.00  0.00    -0.191 NA
ENDBRANCH  14  27
BRANCH   7  29
ATOM     29  O   UNL     1      -2.654   3.286   9.695  0.00  0.00    -0.491 OA
ATOM     30  C   UNL     1      -2.496   2.487  10.869  0.00  0.00    +0.277 C 
ENDBRANCH   7  29
BRANCH   6  31
ATOM     31  O   UNL     1      -2.913   4.735   7.394  0.00  0.00    -0.491 OA
ATOM     32  C   UNL     1      -3.025   5.451   6.162  0.00  0.00    +0.277 C 
ENDBRANCH   6  31
TORSDOF 6
