REMARK  Name = CHEMBL359482
REMARK  2 active torsions:
REMARK  status: ('A' for Active; 'I' for Inactive)
REMARK    1  A    between atoms: C_1  and  C_2
REMARK    2  A    between atoms: C_17  and  C_19
REMARK                            x       y       z     vdW  Elec       q    Type
REMARK                         _______ _______ _______ _____ _____    ______ ____
ROOT
ATOM      1  C   UNL     1      -1.774   1.314   0.320  0.00  0.00    +0.065 C 
ATOM      2  C   UNL     1      -1.392  -0.141   0.240  0.00  0.00    +0.035 A 
ATOM      3  C   UNL     1      -1.003  -0.920   1.275  0.00  0.00    +0.068 A 
ATOM      4  C   UNL     1      -0.741  -2.205   0.772  0.00  0.00    +0.146 A 
ATOM      5  N   UNL     1      -0.968  -2.190  -0.521  0.00  0.00    -0.158 NA
ATOM      6  H   UNL     1      -1.623  -0.604  -1.768  0.00  0.00    +0.189 HD
ATOM      7  N   UNL     1      -1.384  -0.900  -0.876  0.00  0.00    -0.280 N 
ATOM      8  N   UNL     1      -0.312  -3.309   1.519  0.00  0.00    -0.282 N 
ATOM      9  C   UNL     1      -0.011  -3.162   2.857  0.00  0.00    +0.136 A 
ATOM     10  C   UNL     1       0.311  -4.286   3.658  0.00  0.00    +0.041 A 
ATOM     11  C   UNL     1       0.339  -5.584   3.137  0.00  0.00    +0.013 A 
ATOM     12  C   UNL     1       0.656  -6.630   3.954  0.00  0.00    +0.001 A 
ATOM     13  C   UNL     1       0.952  -6.423   5.298  0.00  0.00    +0.002 A 
ATOM     14  C   UNL     1       0.933  -5.171   5.837  0.00  0.00    +0.028 A 
ATOM     15  C   UNL     1       0.612  -4.073   5.026  0.00  0.00    +0.077 A 
ATOM     16  N   UNL     1       0.581  -2.822   5.506  0.00  0.00    -0.227 NA
ATOM     17  C   UNL     1       0.275  -1.810   4.716  0.00  0.00    +0.162 A 
ATOM     18  N   UNL     1      -0.009  -1.965   3.425  0.00  0.00    -0.212 NA
ATOM     19  H   UNL     1      -0.228  -4.178   1.096  0.00  0.00    +0.155 HD
ENDROOT
BRANCH  17  20
ATOM     20  C   UNL     1       0.252  -0.443   5.290  0.00  0.00    +0.019 A 
ATOM     21  C   UNL     1       0.006   0.656   4.469  0.00  0.00    +0.011 A 
ATOM     22  C   UNL     1      -0.015   1.926   5.009  0.00  0.00    +0.001 A 
ATOM     23  C   UNL     1       0.208   2.110   6.362  0.00  0.00    +0.000 A 
ATOM     24  C   UNL     1       0.452   1.022   7.181  0.00  0.00    +0.001 A 
ATOM     25  C   UNL     1       0.470  -0.253   6.654  0.00  0.00    +0.011 A 
ENDBRANCH  17  20
TORSDOF 1
