REMARK  Name = CHEMBL352992
REMARK  9 active torsions:
REMARK  status: ('A' for Active; 'I' for Inactive)
REMARK    1  A    between atoms: C_1  and  N_2
REMARK    2  A    between atoms: N_5  and  C_8
REMARK    3  A    between atoms: C_8  and  O_9
REMARK    4  A    between atoms: O_9  and  C_10
REMARK    5  A    between atoms: C_15  and  O_16
REMARK    6  A    between atoms: O_16  and  C_17
REMARK    7  A    between atoms: N_22  and  C_23
REMARK    8  A    between atoms: C_25  and  O_30
REMARK    9  A    between atoms: O_30  and  C_31
REMARK                            x       y       z     vdW  Elec       q    Type
REMARK                         _______ _______ _______ _____ _____    ______ ____
ROOT
ATOM      1  C   UNL     1      -1.782  -5.532   2.894  0.00  0.00    +0.166 A 
ATOM      2  C   UNL     1      -2.977  -5.107   2.357  0.00  0.00    +0.078 A 
ATOM      3  C   UNL     1      -4.076  -4.897   3.199  0.00  0.00    +0.080 A 
ATOM      4  C   UNL     1      -3.940  -5.123   4.591  0.00  0.00    +0.044 A 
ATOM      5  C   UNL     1      -2.714  -5.554   5.112  0.00  0.00    +0.062 A 
ATOM      6  C   UNL     1      -1.657  -5.759   4.272  0.00  0.00    +0.162 A 
ATOM      7  C   UNL     1      -5.068  -4.902   5.417  0.00  0.00    +0.134 A 
ATOM      8  N   UNL     1      -6.194  -4.494   4.845  0.00  0.00    -0.220 NA
ATOM      9  C   UNL     1      -6.274  -4.295   3.539  0.00  0.00    +0.223 A 
ATOM     10  N   UNL     1      -5.262  -4.484   2.725  0.00  0.00    -0.235 NA
ATOM     11  N   UNL     1      -4.999  -5.105   6.780  0.00  0.00    -0.298 N 
ATOM     12  H   UNL     1      -4.148  -5.309   7.198  0.00  0.00    +0.154 HD
ENDROOT
BRANCH  11  13
ATOM     13  C   UNL     1      -6.157  -5.018   7.560  0.00  0.00    +0.054 A 
ATOM     14  C   UNL     1      -7.403  -5.204   6.977  0.00  0.00    +0.070 A 
ATOM     15  C   UNL     1      -8.548  -5.116   7.753  0.00  0.00    +0.122 A 
ATOM     16  C   UNL     1      -8.447  -4.842   9.109  0.00  0.00    +0.047 A 
ATOM     17  C   UNL     1      -7.207  -4.656   9.689  0.00  0.00    +0.025 A 
ATOM     18  C   UNL     1      -6.061  -4.749   8.920  0.00  0.00    +0.062 A 
ATOM     19 CL   UNL     1      -4.504  -4.522   9.653  0.00  0.00    -0.082 Cl
BRANCH  15  20
ATOM     20  O   UNL     1      -9.769  -5.298   7.185  0.00  0.00    -0.495 OA
ATOM     21  C   UNL     1     -10.906  -5.193   8.044  0.00  0.00    +0.277 C 
ENDBRANCH  15  20
ENDBRANCH  11  13
BRANCH   6  22
ATOM     22  O   UNL     1      -0.468  -6.183   4.778  0.00  0.00    -0.491 OA
ATOM     23  C   UNL     1      -0.404  -6.397   6.189  0.00  0.00    +0.277 C 
ENDBRANCH   6  22
BRANCH   1  24
ATOM     24  O   UNL     1      -0.714  -5.737   2.080  0.00  0.00    -0.473 OA
BRANCH  24  25
ATOM     25  C   UNL     1      -0.905  -5.488   0.685  0.00  0.00    +0.318 C 
BRANCH  25  30
ATOM     26  C   UNL     1      -0.005  -0.285  -1.322  0.00  0.00    +0.105 C 
ATOM     27  N   UNL     1      -0.097  -1.729  -1.065  0.00  0.00    -0.303 NA
ATOM     28  C   UNL     1      -1.500  -2.159  -0.974  0.00  0.00    +0.099 C 
ATOM     29  C   UNL     1      -1.554  -3.677  -0.786  0.00  0.00    +0.103 C 
ATOM     30  N   UNL     1      -0.812  -4.045   0.429  0.00  0.00    -0.268 NA
ATOM     31  C   UNL     1       0.590  -3.615   0.337  0.00  0.00    +0.103 C 
ATOM     32  C   UNL     1       0.644  -2.096   0.149  0.00  0.00    +0.099 C 
ENDBRANCH  25  30
ENDBRANCH  24  25
ENDBRANCH   1  24
TORSDOF 6
