REMARK  Name = CHEMBL321569
REMARK  10 active torsions:
REMARK  status: ('A' for Active; 'I' for Inactive)
REMARK    1  A    between atoms: C_1  and  O_2
REMARK    2  A    between atoms: O_2  and  C_3
REMARK    3  A    between atoms: C_7  and  C_9
REMARK    4  A    between atoms: N_11  and  C_19
REMARK    5  A    between atoms: C_14  and  N_18
REMARK    6  A    between atoms: C_22  and  C_25
REMARK    7  A    between atoms: N_27  and  C_28
REMARK    8  A    between atoms: C_31  and  P_38
REMARK    9  A    between atoms: C_32  and  P_34
REMARK   10  A    between atoms: P_38  and  O_41
REMARK                            x       y       z     vdW  Elec       q    Type
REMARK                         _______ _______ _______ _____ _____    ______ ____
ROOT
ATOM      1  C   UNL     1       1.774  -8.037  -1.656  0.00  0.00    +0.048 A 
ATOM      2  C   UNL     1       0.915  -9.107  -1.427  0.00  0.00    +0.027 A 
ATOM      3  C   UNL     1       1.285 -10.116  -0.566  0.00  0.00    +0.015 A 
ATOM      4  C   UNL     1       2.524 -10.065   0.078  0.00  0.00    +0.037 A 
ATOM      5  C   UNL     1       3.384  -8.988  -0.154  0.00  0.00    +0.015 A 
ATOM      6  C   UNL     1       3.011  -7.985  -1.020  0.00  0.00    +0.027 A 
ENDROOT
BRANCH   1   9
ATOM      7  C   UNL     1       1.018  -4.963  -3.309  0.00  0.00    +0.013 A 
ATOM      8  C   UNL     1       1.459  -5.677  -2.244  0.00  0.00    +0.102 A 
ATOM      9  N   UNL     1       1.397  -7.016  -2.530  0.00  0.00    -0.300 N 
ATOM     10  C   UNL     1       0.911  -7.208  -3.798  0.00  0.00    +0.151 A 
ATOM     11  C   UNL     1       0.646  -5.939  -4.342  0.00  0.00    +0.066 A 
ATOM     12  C   UNL     1       0.130  -5.858  -5.642  0.00  0.00    +0.129 A 
ATOM     13  N   UNL     1      -0.090  -6.990  -6.306  0.00  0.00    -0.220 NA
ATOM     14  C   UNL     1       0.169  -8.162  -5.756  0.00  0.00    +0.225 A 
ATOM     15  N   UNL     1       0.661  -8.284  -4.542  0.00  0.00    -0.217 NA
BRANCH   7  20
ATOM     16  C   UNL     1       0.220  -1.378  -2.498  0.00  0.00    +0.121 A 
ATOM     17  C   UNL     1       0.753  -0.727  -3.603  0.00  0.00    +0.045 A 
ATOM     18  C   UNL     1       1.369  -1.452  -4.606  0.00  0.00    +0.004 A 
ATOM     19  C   UNL     1       1.458  -2.826  -4.515  0.00  0.00    +0.009 A 
ATOM     20  C   UNL     1       0.925  -3.487  -3.409  0.00  0.00    -0.012 A 
ATOM     21  C   UNL     1       0.309  -2.756  -2.396  0.00  0.00    +0.054 A 
BRANCH  16  23
ATOM     22  C   UNL     1      -0.442   0.756  -1.686  0.00  0.00    +0.277 C 
ATOM     23  O   UNL     1      -0.385  -0.661  -1.515  0.00  0.00    -0.495 OA
ENDBRANCH  16  23
ENDBRANCH   7  20
BRANCH  12  24
ATOM     24  N   UNL     1      -0.143  -4.632  -6.221  0.00  0.00    -0.343 N 
ATOM     25  H   UNL     1       0.022  -3.814  -5.726  0.00  0.00    +0.144 HD
ATOM     26  H   UNL     1      -0.500  -4.590  -7.122  0.00  0.00    +0.144 HD
ENDBRANCH  12  24
ENDBRANCH   1   9
BRANCH   4  27
ATOM     27  C   UNL     1       2.923 -11.145   1.002  0.00  0.00    +0.248 C 
ATOM     28  O   UNL     1       2.173 -12.080   1.203  0.00  0.00    -0.270 OA
ATOM     29  N   UNL     1       4.118 -11.093   1.622  0.00  0.00    -0.281 N 
ATOM     30  H   UNL     1       4.745 -10.384   1.410  0.00  0.00    +0.155 HD
BRANCH  29  31
ATOM     31  C   UNL     1       4.456 -12.063   2.571  0.00  0.00    +0.035 A 
ATOM     32  C   UNL     1       5.211 -11.715   3.684  0.00  0.00    +0.024 A 
ATOM     33  C   UNL     1       5.542 -12.675   4.620  0.00  0.00    +0.018 A 
ATOM     34  C   UNL     1       5.122 -13.982   4.450  0.00  0.00    +0.081 A 
ATOM     35  C   UNL     1       4.370 -14.332   3.344  0.00  0.00    +0.084 A 
ATOM     36  C   UNL     1       4.031 -13.375   2.407  0.00  0.00    +0.040 A 
BRANCH  35  37
ATOM     37  P   UNL     1       3.822 -16.047   3.127  0.00  0.00    +0.418 P 
ATOM     38  O   UNL     1       3.072 -16.523   4.417  0.00  0.00    -0.248 OA
ATOM     39  O   UNL     1       2.854 -16.134   1.898  0.00  0.00    -0.135 OA
ATOM     40  O   UNL     1       5.066 -16.965   2.877  0.00  0.00    -0.135 OA
ENDBRANCH  35  37
BRANCH  34  41
ATOM     41  P   UNL     1       5.560 -15.240   5.682  0.00  0.00    +0.389 P 
ATOM     42  O   UNL     1       4.385 -15.426   6.668  0.00  0.00    -0.251 OA
ATOM     43  O   UNL     1       5.850 -16.579   4.969  0.00  0.00    -0.136 OA
BRANCH  41  44
ATOM     44  O   UNL     1       6.869 -14.767   6.490  0.00  0.00    -0.319 OA
ATOM     45  H   UNL     1       7.161 -15.393   7.167  0.00  0.00    +0.220 HD
ENDBRANCH  41  44
ENDBRANCH  34  41
ENDBRANCH  29  31
ENDBRANCH   4  27
TORSDOF 9
