REMARK  Name = CHEMBL1172957
REMARK  3 active torsions:
REMARK  status: ('A' for Active; 'I' for Inactive)
REMARK    1  A    between atoms: C_3  and  S_24
REMARK    2  A    between atoms: C_6  and  N_7
REMARK    3  A    between atoms: S_24  and  N_27
REMARK                            x       y       z     vdW  Elec       q    Type
REMARK                         _______ _______ _______ _____ _____    ______ ____
ROOT
ATOM      1  N   UNL     1      -1.198  -0.720   0.003  0.00  0.00    -0.298 N 
ATOM      2  C   UNL     1      -1.180  -2.100  -0.106  0.00  0.00    +0.156 A 
ATOM      3  C   UNL     1      -2.379  -2.828  -0.207  0.00  0.00    +0.148 A 
ATOM      4  C   UNL     1      -2.302  -4.226  -0.314  0.00  0.00    +0.165 A 
ATOM      5  N   UNL     1      -3.597  -4.672  -0.396  0.00  0.00    -0.329 N 
ATOM      6  H   UNL     1      -3.882  -5.595  -0.479  0.00  0.00    +0.168 HD
ATOM      7  C   UNL     1      -4.410  -3.578  -0.339  0.00  0.00    +0.198 A 
ATOM      8  N   UNL     1      -3.693  -2.498  -0.228  0.00  0.00    -0.231 NA
ATOM      9  N   UNL     1      -1.108  -4.811  -0.317  0.00  0.00    -0.195 NA
ATOM     10  C   UNL     1      -0.004  -4.088  -0.220  0.00  0.00    +0.222 A 
ATOM     11  N   UNL     1      -0.030  -2.765  -0.122  0.00  0.00    -0.197 NA
ATOM     12  N   UNL     1       1.221  -4.734  -0.226  0.00  0.00    -0.295 N 
ATOM     13  C   UNL     1       2.471  -3.991  -0.001  0.00  0.00    +0.136 C 
ATOM     14  C   UNL     1       3.274  -4.712   1.088  0.00  0.00    +0.179 C 
ATOM     15  O   UNL     1       3.410  -6.091   0.737  0.00  0.00    -0.377 OA
ATOM     16  C   UNL     1       2.171  -6.799   0.654  0.00  0.00    +0.179 C 
ATOM     17  C   UNL     1       1.311  -6.186  -0.452  0.00  0.00    +0.136 C 
ATOM     18  H   UNL     1      -2.042  -0.251   0.087  0.00  0.00    +0.154 HD
ENDROOT
BRANCH   1  24
ATOM     19  C   UNL     1       1.081  -0.462  -0.754  0.00  0.00    +0.025 A 
ATOM     20  C   UNL     1       2.264   0.249  -0.764  0.00  0.00    +0.030 A 
ATOM     21  C   UNL     1       2.377   1.417  -0.033  0.00  0.00    +0.105 A 
ATOM     22  C   UNL     1       1.305   1.877   0.711  0.00  0.00    +0.030 A 
ATOM     23  C   UNL     1       0.118   1.171   0.725  0.00  0.00    +0.025 A 
ATOM     24  C   UNL     1       0.002  -0.003  -0.009  0.00  0.00    +0.033 A 
BRANCH  21  25
ATOM     25  S   UNL     1       3.889   2.322  -0.048  0.00  0.00    +0.056 S 
ATOM     26  O   UNL     1       3.916   3.087   1.149  0.00  0.00    -0.153 OA
ATOM     27  O   UNL     1       4.913   1.395  -0.383  0.00  0.00    -0.153 OA
BRANCH  25  28
ATOM     28  N   UNL     1       3.800   3.403  -1.299  0.00  0.00    -0.204 NA
ATOM     29  H   UNL     1       4.272   4.248  -1.244  0.00  0.00    +0.144 HD
ATOM     30  H   UNL     1       3.277   3.190  -2.088  0.00  0.00    +0.144 HD
ENDBRANCH  25  28
ENDBRANCH  21  25
ENDBRANCH   1  24
TORSDOF 3
