REMARK  Name = CHEMBL391738
REMARK  12 active torsions:
REMARK  status: ('A' for Active; 'I' for Inactive)
REMARK    1  A    between atoms: C_1  and  N_2
REMARK    2  A    between atoms: N_5  and  C_8
REMARK    3  A    between atoms: C_8  and  C_9
REMARK    4  A    between atoms: C_9  and  C_10
REMARK    5  A    between atoms: C_11  and  C_12
REMARK    6  A    between atoms: C_17  and  O_18
REMARK    7  A    between atoms: O_18  and  C_19
REMARK    8  A    between atoms: C_20  and  N_26
REMARK    9  A    between atoms: C_21  and  C_24
REMARK   10  A    between atoms: N_26  and  C_27
REMARK   11  A    between atoms: C_29  and  O_35
REMARK   12  A    between atoms: O_35  and  C_36
REMARK                            x       y       z     vdW  Elec       q    Type
REMARK                         _______ _______ _______ _____ _____    ______ ____
ROOT
ATOM      1  C   UNL     1       2.311 -11.484  -0.193  0.00  0.00    +0.069 A 
ATOM      2  C   UNL     1       0.954 -11.227  -0.313  0.00  0.00    +0.048 A 
ATOM      3  C   UNL     1       0.075 -11.658   0.689  0.00  0.00    +0.074 A 
ATOM      4  C   UNL     1       0.590 -12.352   1.812  0.00  0.00    +0.026 A 
ATOM      5  C   UNL     1       1.966 -12.601   1.913  0.00  0.00    +0.058 A 
ATOM      6  C   UNL     1       2.810 -12.180   0.926  0.00  0.00    +0.136 A 
ATOM      7  C   UNL     1      -0.303 -12.784   2.820  0.00  0.00    +0.060 A 
ATOM      8  C   UNL     1      -1.667 -12.501   2.653  0.00  0.00    +0.091 A 
ATOM      9  C   UNL     1      -2.089 -11.807   1.507  0.00  0.00    +0.132 A 
ATOM     10  N   UNL     1      -1.242 -11.419   0.589  0.00  0.00    -0.254 NA
ENDROOT
BRANCH   1  12
ATOM     11  C   UNL     1       3.949 -10.685  -2.055  0.00  0.00    -0.096 C 
ATOM     12  C   UNL     1       3.211 -11.045  -1.216  0.00  0.00    -0.063 C 
BRANCH  11  13
ATOM     13  C   UNL     1       4.874 -10.233  -3.107  0.00  0.00    +0.104 C 
BRANCH  13  14
ATOM     14  C   UNL     1       4.087  -9.510  -4.202  0.00  0.00    +0.097 C 
BRANCH  14  19
ATOM     15  C   UNL     1       6.866  -8.343  -8.963  0.00  0.00    -0.096 C 
ATOM     16  N   UNL     1       5.911  -8.817  -7.952  0.00  0.00    +0.379 N 
ATOM     17  C   UNL     1       5.342  -7.667  -7.238  0.00  0.00    -0.064 C 
ATOM     18  C   UNL     1       4.334  -8.160  -6.198  0.00  0.00    +0.066 C 
ATOM     19  N   UNL     1       5.010  -9.059  -5.252  0.00  0.00    -0.305 NA
ATOM     20  C   UNL     1       5.607 -10.203  -5.956  0.00  0.00    +0.066 C 
ATOM     21  C   UNL     1       6.604  -9.694  -6.998  0.00  0.00    -0.064 C 
ATOM     22  H   UNL     1       5.171  -9.332  -8.404  0.00  0.00    -0.082 HD
ENDBRANCH  14  19
ENDBRANCH  13  14
ENDBRANCH  11  13
ENDBRANCH   1  12
BRANCH   6  23
ATOM     23  O   UNL     1       4.142 -12.428   1.026  0.00  0.00    -0.494 OA
ATOM     24  C   UNL     1       4.585 -13.137   2.185  0.00  0.00    +0.277 C 
ENDBRANCH   6  23
BRANCH   8  25
ATOM     25  C   UNL     1      -2.618 -12.914   3.641  0.00  0.00    +0.103 C 
ATOM     26  N   UNL     1      -3.372 -13.242   4.424  0.00  0.00    -0.191 NA
ENDBRANCH   8  25
BRANCH   7  27
ATOM     27  N   UNL     1       0.153 -13.464   3.932  0.00  0.00    -0.312 N 
ATOM     28  H   UNL     1       0.315 -12.986   4.760  0.00  0.00    +0.152 HD
BRANCH  27  29
ATOM     29  C   UNL     1       0.381 -14.842   3.865  0.00  0.00    +0.053 A 
ATOM     30  C   UNL     1       0.263 -15.507   2.652  0.00  0.00    +0.071 A 
ATOM     31  C   UNL     1       0.489 -16.873   2.588  0.00  0.00    +0.140 A 
ATOM     32  C   UNL     1       0.834 -17.573   3.737  0.00  0.00    +0.084 A 
ATOM     33  C   UNL     1       0.951 -16.910   4.944  0.00  0.00    +0.045 A 
ATOM     34  C   UNL     1       0.731 -15.546   5.011  0.00  0.00    +0.064 A 
ATOM     35 CL   UNL     1       0.886 -14.715   6.527  0.00  0.00    -0.082 Cl
ATOM     36 CL   UNL     1       1.117 -19.284   3.657  0.00  0.00    -0.080 Cl
BRANCH  31  37
ATOM     37  O   UNL     1       0.374 -17.526   1.402  0.00  0.00    -0.494 OA
ATOM     38  C   UNL     1       0.135 -16.728   0.241  0.00  0.00    +0.277 C 
ENDBRANCH  31  37
ENDBRANCH  27  29
ENDBRANCH   7  27
TORSDOF 9
