REMARK  Name = CHEMBL441153
REMARK  5 active torsions:
REMARK  status: ('A' for Active; 'I' for Inactive)
REMARK    1  A    between atoms: C_1  and  N_2
REMARK    2  A    between atoms: N_2  and  C_3
REMARK    3  A    between atoms: N_2  and  S_4
REMARK    4  A    between atoms: S_4  and  C_7
REMARK    5  A    between atoms: C_14  and  C_15
REMARK                            x       y       z     vdW  Elec       q    Type
REMARK                         _______ _______ _______ _____ _____    ______ ____
ROOT
ATOM      1  C   UNL     1       1.737  -1.061  -2.051  0.00  0.00    +0.106 A 
ATOM      2  C   UNL     1       2.464   0.005  -2.553  0.00  0.00    +0.030 A 
ATOM      3  C   UNL     1       3.839  -0.068  -2.659  0.00  0.00    +0.026 A 
ATOM      4  C   UNL     1       4.509  -1.219  -2.261  0.00  0.00    +0.042 A 
ATOM      5  C   UNL     1       3.769  -2.296  -1.752  0.00  0.00    +0.010 A 
ATOM      6  C   UNL     1       2.384  -2.210  -1.645  0.00  0.00    +0.039 A 
ATOM      7  C   UNL     1       4.747  -3.356  -1.421  0.00  0.00    +0.048 C 
ATOM      8  C   UNL     1       4.490  -4.587  -0.898  0.00  0.00    +0.036 C 
ATOM      9  C   UNL     1       6.066  -2.785  -1.781  0.00  0.00    +0.249 C 
ATOM     10  O   UNL     1       7.142  -3.339  -1.663  0.00  0.00    -0.270 OA
ATOM     11  N   UNL     1       5.861  -1.547  -2.262  0.00  0.00    -0.281 N 
ATOM     12  H   UNL     1       6.566  -0.957  -2.570  0.00  0.00    +0.155 HD
ENDROOT
BRANCH   8  13
ATOM     13  C   UNL     1       5.553  -5.593  -0.838  0.00  0.00    +0.037 C 
ATOM     14  C   UNL     1       5.424  -6.957  -0.166  0.00  0.00    +0.060 C 
ATOM     15  C   UNL     1       6.520  -7.760  -0.876  0.00  0.00    +0.019 C 
ATOM     16  C   UNL     1       7.225  -8.826  -0.059  0.00  0.00    +0.006 C 
ATOM     17  C   UNL     1       8.381  -9.360  -0.921  0.00  0.00    +0.000 C 
ATOM     18  C   UNL     1       9.341  -8.252  -1.341  0.00  0.00    +0.002 C 
ATOM     19  C   UNL     1       8.598  -7.094  -2.037  0.00  0.00    +0.027 C 
ATOM     20  C   UNL     1       7.551  -6.611  -1.065  0.00  0.00    +0.109 C 
ATOM     21  N   UNL     1       6.747  -5.451  -1.357  0.00  0.00    -0.285 NA
ENDBRANCH   8  13
BRANCH   1  22
ATOM     22  S   UNL     1      -0.017  -0.948  -1.923  0.00  0.00    +0.060 S 
ATOM     23  O   UNL     1      -0.512  -2.280  -1.927  0.00  0.00    -0.153 OA
ATOM     24  O   UNL     1      -0.432   0.021  -2.877  0.00  0.00    -0.153 OA
BRANCH  22  26
ATOM     25  C   UNL     1      -0.471   1.131  -0.253  0.00  0.00    +0.131 C 
ATOM     26  N   UNL     1      -0.360  -0.319  -0.430  0.00  0.00    -0.183 NA
ATOM     27  C   UNL     1      -0.552  -1.214   0.714  0.00  0.00    +0.131 C 
ENDBRANCH  22  26
ENDBRANCH   1  22
TORSDOF 3
