REMARK  Name = CHEMBL192052
REMARK  10 active torsions:
REMARK  status: ('A' for Active; 'I' for Inactive)
REMARK    1  A    between atoms: C_1  and  N_2
REMARK    2  A    between atoms: N_2  and  C_3
REMARK    3  A    between atoms: N_2  and  C_4
REMARK    4  A    between atoms: C_4  and  C_5
REMARK    5  A    between atoms: C_7  and  C_10
REMARK    6  A    between atoms: C_15  and  N_21
REMARK    7  A    between atoms: C_16  and  C_19
REMARK    8  A    between atoms: N_21  and  C_22
REMARK    9  A    between atoms: C_24  and  O_30
REMARK   10  A    between atoms: O_30  and  C_31
REMARK                            x       y       z     vdW  Elec       q    Type
REMARK                         _______ _______ _______ _____ _____    ______ ____
ROOT
ATOM      1  C   UNL     1      -0.164  -0.154  -8.658  0.00  0.00    +0.023 A 
ATOM      2  C   UNL     1      -1.523  -0.115  -8.688  0.00  0.00    +0.044 A 
ATOM      3  C   UNL     1      -2.264  -1.296  -8.513  0.00  0.00    +0.080 A 
ATOM      4  C   UNL     1      -1.498  -2.465  -8.313  0.00  0.00    +0.060 A 
ATOM      5  S   UNL     1       0.177  -1.884  -8.384  0.00  0.00    -0.085 S 
ATOM      6  C   UNL     1      -2.084  -3.703  -8.126  0.00  0.00    +0.066 A 
ATOM      7  C   UNL     1      -3.495  -3.771  -8.140  0.00  0.00    +0.092 A 
ATOM      8  C   UNL     1      -4.209  -2.583  -8.342  0.00  0.00    +0.132 A 
ATOM      9  N   UNL     1      -3.613  -1.435  -8.514  0.00  0.00    -0.253 NA
ENDROOT
BRANCH   1  12
ATOM     10  C   UNL     1       3.009   1.789  -8.858  0.00  0.00    +0.004 A 
ATOM     11  C   UNL     1       2.166   0.745  -8.703  0.00  0.00    +0.021 A 
ATOM     12  C   UNL     1       0.794   0.960  -8.819  0.00  0.00    -0.004 A 
ATOM     13  C   UNL     1       0.355   2.230  -9.087  0.00  0.00    +0.054 A 
ATOM     14  S   UNL     1       1.887   3.141  -9.170  0.00  0.00    -0.100 S 
BRANCH  10  15
ATOM     15  C   UNL     1       4.514   1.808  -8.779  0.00  0.00    +0.126 C 
BRANCH  15  17
ATOM     16  C   UNL     1       4.761   2.663 -11.031  0.00  0.00    +0.104 C 
ATOM     17  N   UNL     1       5.077   1.561 -10.114  0.00  0.00    -0.304 NA
ATOM     18  C   UNL     1       6.527   1.336 -10.040  0.00  0.00    +0.104 C 
ENDBRANCH  15  17
ENDBRANCH  10  15
ENDBRANCH   1  12
BRANCH   7  19
ATOM     19  C   UNL     1      -4.175  -5.017  -7.954  0.00  0.00    +0.103 C 
ATOM     20  N   UNL     1      -4.715  -6.006  -7.806  0.00  0.00    -0.191 NA
ENDBRANCH   7  19
BRANCH   6  21
ATOM     21  N   UNL     1      -1.314  -4.839  -7.932  0.00  0.00    -0.311 N 
ATOM     22  H   UNL     1      -0.965  -5.325  -8.696  0.00  0.00    +0.152 HD
BRANCH  21  23
ATOM     23  C   UNL     1      -1.040  -5.285  -6.635  0.00  0.00    +0.054 A 
ATOM     24  C   UNL     1      -1.627  -4.657  -5.546  0.00  0.00    +0.071 A 
ATOM     25  C   UNL     1      -1.353  -5.101  -4.262  0.00  0.00    +0.140 A 
ATOM     26  C   UNL     1      -0.492  -6.173  -4.068  0.00  0.00    +0.084 A 
ATOM     27  C   UNL     1       0.093  -6.798  -5.154  0.00  0.00    +0.045 A 
ATOM     28  C   UNL     1      -0.182  -6.361  -6.436  0.00  0.00    +0.064 A 
ATOM     29 CL   UNL     1       0.548  -7.153  -7.798  0.00  0.00    -0.082 Cl
ATOM     30 CL   UNL     1      -0.149  -6.729  -2.459  0.00  0.00    -0.080 Cl
BRANCH  25  31
ATOM     31  O   UNL     1      -1.927  -4.488  -3.193  0.00  0.00    -0.494 OA
ATOM     32  C   UNL     1      -2.753  -3.353  -3.463  0.00  0.00    +0.277 C 
ENDBRANCH  25  31
ENDBRANCH  21  23
ENDBRANCH   6  21
TORSDOF 7
