REMARK  Name = CHEMBL564449
REMARK  5 active torsions:
REMARK  status: ('A' for Active; 'I' for Inactive)
REMARK    1  A    between atoms: C_1  and  C_2
REMARK    2  A    between atoms: C_17  and  S_19
REMARK    3  A    between atoms: S_19  and  C_20
REMARK    4  A    between atoms: C_23  and  N_26
REMARK    5  A    between atoms: C_27  and  C_29
REMARK                            x       y       z     vdW  Elec       q    Type
REMARK                         _______ _______ _______ _____ _____    ______ ____
ROOT
ATOM      1  C   UNL     1       0.020   1.556   0.000  0.00  0.00    +0.065 C 
ATOM      2  C   UNL     1       0.046   0.049  -0.001  0.00  0.00    +0.035 A 
ATOM      3  C   UNL     1       0.050  -0.746  -1.094  0.00  0.00    +0.068 A 
ATOM      4  C   UNL     1       0.078  -2.080  -0.657  0.00  0.00    +0.146 A 
ATOM      5  N   UNL     1       0.090  -2.078   0.656  0.00  0.00    -0.158 NA
ATOM      6  N   UNL     1       0.076  -0.746   1.090  0.00  0.00    -0.280 N 
ATOM      7  H   UNL     1       0.084  -0.447   2.012  0.00  0.00    +0.189 HD
ATOM      8  N   UNL     1       0.091  -3.215  -1.477  0.00  0.00    -0.282 N 
ATOM      9  C   UNL     1       0.075  -3.075  -2.849  0.00  0.00    +0.136 A 
ATOM     10  C   UNL     1       0.081  -4.212  -3.696  0.00  0.00    +0.041 A 
ATOM     11  C   UNL     1       0.102  -5.515  -3.189  0.00  0.00    +0.013 A 
ATOM     12  C   UNL     1       0.107  -6.572  -4.051  0.00  0.00    +0.001 A 
ATOM     13  C   UNL     1       0.091  -6.372  -5.428  0.00  0.00    +0.002 A 
ATOM     14  C   UNL     1       0.070  -5.114  -5.954  0.00  0.00    +0.028 A 
ATOM     15  C   UNL     1       0.064  -4.005  -5.097  0.00  0.00    +0.077 A 
ATOM     16  N   UNL     1       0.043  -2.748  -5.565  0.00  0.00    -0.221 NA
ATOM     17  C   UNL     1       0.038  -1.725  -4.731  0.00  0.00    +0.195 A 
ATOM     18  N   UNL     1       0.048  -1.874  -3.408  0.00  0.00    -0.206 NA
ATOM     19  H   UNL     1       0.110  -4.100  -1.081  0.00  0.00    +0.155 HD
ENDROOT
BRANCH  17  20
ATOM     20  S   UNL     1       0.011  -0.094  -5.396  0.00  0.00    -0.050 S 
BRANCH  20  21
ATOM     21  C   UNL     1       0.145  -0.340  -7.135  0.00  0.00    +0.016 A 
ATOM     22  C   UNL     1      -0.999  -0.383  -7.922  0.00  0.00    +0.017 A 
ATOM     23  C   UNL     1      -0.893  -0.576  -9.284  0.00  0.00    +0.024 A 
ATOM     24  C   UNL     1       0.358  -0.727  -9.869  0.00  0.00    +0.033 A 
ATOM     25  C   UNL     1       1.502  -0.684  -9.083  0.00  0.00    +0.024 A 
ATOM     26  C   UNL     1       1.397  -0.486  -7.721  0.00  0.00    +0.017 A 
BRANCH  24  27
ATOM     27  N   UNL     1       0.465  -0.924 -11.252  0.00  0.00    -0.285 N 
ATOM     28  C   UNL     1       1.430  -1.725 -11.746  0.00  0.00    +0.220 C 
ATOM     29  O   UNL     1       2.256  -2.209 -11.002  0.00  0.00    -0.275 OA
ATOM     30  H   UNL     1      -0.155  -0.483 -11.854  0.00  0.00    +0.155 HD
BRANCH  28  31
ATOM     31  C   UNL     1       1.482  -2.020 -13.223  0.00  0.00    +0.075 C 
ATOM     32  C   UNL     1       1.159  -3.447 -13.671  0.00  0.00    +0.013 C 
ATOM     33  C   UNL     1       2.601  -2.936 -13.722  0.00  0.00    +0.013 C 
ENDBRANCH  28  31
ENDBRANCH  24  27
ENDBRANCH  20  21
ENDBRANCH  17  20
TORSDOF 4
