REMARK  Name = CHEMBL304052
REMARK  7 active torsions:
REMARK  status: ('A' for Active; 'I' for Inactive)
REMARK    1  A    between atoms: C_1  and  O_2
REMARK    2  A    between atoms: O_2  and  C_3
REMARK    3  A    between atoms: C_5  and  N_11
REMARK    4  A    between atoms: N_11  and  C_12
REMARK    5  A    between atoms: C_16  and  C_24
REMARK    6  A    between atoms: C_21  and  C_22
REMARK    7  A    between atoms: C_25  and  C_26
REMARK                            x       y       z     vdW  Elec       q    Type
REMARK                         _______ _______ _______ _____ _____    ______ ____
ROOT
ATOM      1  C   UNL     1      -4.637   1.721  -0.236  0.00  0.00    +0.060 A 
ATOM      2  C   UNL     1      -5.780   2.524  -0.014  0.00  0.00    +0.023 A 
ATOM      3  C   UNL     1      -6.986   1.957   0.425  0.00  0.00    +0.013 A 
ATOM      4  C   UNL     1      -8.073   2.746   0.634  0.00  0.00    +0.017 A 
ATOM      5  C   UNL     1      -8.003   4.133   0.413  0.00  0.00    +0.027 A 
ATOM      6  C   UNL     1      -6.822   4.719  -0.021  0.00  0.00    +0.045 A 
ATOM      7  C   UNL     1      -5.692   3.919  -0.240  0.00  0.00    +0.074 A 
ATOM      8  N   UNL     1      -4.541   4.465  -0.658  0.00  0.00    -0.254 NA
ATOM      9  C   UNL     1      -3.469   3.746  -0.871  0.00  0.00    +0.132 A 
ATOM     10  C   UNL     1      -3.463   2.357  -0.667  0.00  0.00    +0.091 A 
ENDROOT
BRANCH   1  11
ATOM     11  N   UNL     1      -4.673   0.357  -0.029  0.00  0.00    -0.312 N 
ATOM     12  H   UNL     1      -5.520  -0.115  -0.055  0.00  0.00    +0.152 HD
BRANCH  11  15
ATOM     13  C   UNL     1      -1.843  -1.954  -0.463  0.00  0.00    +0.140 A 
ATOM     14  C   UNL     1      -3.017  -1.260  -0.711  0.00  0.00    +0.071 A 
ATOM     15  C   UNL     1      -3.489  -0.345   0.219  0.00  0.00    +0.053 A 
ATOM     16  C   UNL     1      -2.784  -0.126   1.397  0.00  0.00    +0.064 A 
ATOM     17  C   UNL     1      -1.613  -0.819   1.641  0.00  0.00    +0.045 A 
ATOM     18  C   UNL     1      -1.145  -1.736   0.718  0.00  0.00    +0.084 A 
ATOM     19 CL   UNL     1       0.322  -2.610   1.031  0.00  0.00    -0.080 Cl
ATOM     20 CL   UNL     1      -3.373   1.019   2.562  0.00  0.00    -0.082 Cl
BRANCH  13  22
ATOM     21  C   UNL     1      -2.081  -2.942  -2.612  0.00  0.00    +0.277 C 
ATOM     22  O   UNL     1      -1.378  -2.852  -1.372  0.00  0.00    -0.494 OA
ENDBRANCH  13  22
ENDBRANCH  11  15
ENDBRANCH   1  11
BRANCH  10  23
ATOM     23  C   UNL     1      -2.272   1.596  -0.903  0.00  0.00    +0.103 C 
ATOM     24  N   UNL     1      -1.328   0.993  -1.089  0.00  0.00    -0.191 NA
ENDBRANCH  10  23
BRANCH   5  25
ATOM     25  C   UNL     1      -9.159   4.947   0.638  0.00  0.00    -0.061 C 
ATOM     26  C   UNL     1     -10.107   5.615   0.823  0.00  0.00    -0.061 C 
BRANCH  26  27
ATOM     27  C   UNL     1     -11.264   6.429   1.048  0.00  0.00    +0.028 A 
ATOM     28  C   UNL     1     -12.468   5.864   1.491  0.00  0.00    +0.036 A 
ATOM     29  C   UNL     1     -13.556   6.686   1.694  0.00  0.00    +0.112 A 
ATOM     30  N   UNL     1     -13.475   7.985   1.477  0.00  0.00    -0.263 NA
ATOM     31  C   UNL     1     -12.361   8.558   1.059  0.00  0.00    +0.112 A 
ATOM     32  C   UNL     1     -11.222   7.814   0.836  0.00  0.00    +0.036 A 
ENDBRANCH  26  27
ENDBRANCH   5  25
TORSDOF 6
