REMARK  Name = CHEMBL222548
REMARK  8 active torsions:
REMARK  status: ('A' for Active; 'I' for Inactive)
REMARK    1  A    between atoms: C_1  and  N_2
REMARK    2  A    between atoms: N_5  and  C_8
REMARK    3  A    between atoms: C_12  and  C_14
REMARK    4  A    between atoms: C_19  and  N_25
REMARK    5  A    between atoms: C_20  and  C_23
REMARK    6  A    between atoms: N_25  and  C_26
REMARK    7  A    between atoms: C_28  and  O_34
REMARK    8  A    between atoms: O_34  and  C_35
REMARK                            x       y       z     vdW  Elec       q    Type
REMARK                         _______ _______ _______ _____ _____    ______ ____
ROOT
ATOM      1  C   UNL     1       2.240  -8.925   4.060  0.00  0.00    +0.022 A 
ATOM      2  C   UNL     1       1.385  -8.983   5.115  0.00  0.00    +0.044 A 
ATOM      3  C   UNL     1       1.662  -8.255   6.285  0.00  0.00    +0.080 A 
ATOM      4  C   UNL     1       2.852  -7.497   6.257  0.00  0.00    +0.060 A 
ATOM      5  S   UNL     1       3.521  -7.830   4.647  0.00  0.00    -0.085 S 
ATOM      6  C   UNL     1       3.258  -6.729   7.334  0.00  0.00    +0.066 A 
ATOM      7  C   UNL     1       2.438  -6.722   8.482  0.00  0.00    +0.092 A 
ATOM      8  C   UNL     1       1.267  -7.491   8.460  0.00  0.00    +0.132 A 
ATOM      9  N   UNL     1       0.923  -8.201   7.421  0.00  0.00    -0.253 NA
ENDROOT
BRANCH   1  14
ATOM     10  C   UNL     1       3.066 -10.133   0.596  0.00  0.00    +0.030 A 
ATOM     11  C   UNL     1       1.934 -10.885   0.298  0.00  0.00    +0.023 A 
ATOM     12  C   UNL     1       0.911 -10.996   1.220  0.00  0.00    +0.002 A 
ATOM     13  C   UNL     1       1.005 -10.361   2.442  0.00  0.00    +0.009 A 
ATOM     14  C   UNL     1       2.136  -9.605   2.751  0.00  0.00    -0.009 A 
ATOM     15  C   UNL     1       3.172  -9.498   1.823  0.00  0.00    +0.032 A 
BRANCH  10  20
ATOM     16  C   UNL     1       7.727 -11.277  -2.002  0.00  0.00    -0.096 C 
ATOM     17  N   UNL     1       6.475 -10.569  -1.704  0.00  0.00    +0.380 N 
ATOM     18  C   UNL     1       6.535 -10.027  -0.340  0.00  0.00    -0.060 C 
ATOM     19  C   UNL     1       5.280  -9.192  -0.068  0.00  0.00    +0.086 C 
ATOM     20  N   UNL     1       4.097 -10.024  -0.340  0.00  0.00    -0.333 N 
ATOM     21  C   UNL     1       4.033 -10.737  -1.624  0.00  0.00    +0.086 C 
ATOM     22  C   UNL     1       5.346 -11.500  -1.823  0.00  0.00    -0.060 C 
ATOM     23  H   UNL     1       6.355  -9.810  -2.358  0.00  0.00    -0.082 HD
ENDBRANCH  10  20
ENDBRANCH   1  14
BRANCH   7  24
ATOM     24  C   UNL     1       2.792  -5.952   9.637  0.00  0.00    +0.103 C 
ATOM     25  N   UNL     1       3.073  -5.341  10.552  0.00  0.00    -0.191 NA
ENDBRANCH   7  24
BRANCH   6  26
ATOM     26  N   UNL     1       4.432  -5.992   7.286  0.00  0.00    -0.311 N 
ATOM     27  H   UNL     1       5.245  -6.349   7.677  0.00  0.00    +0.152 HD
BRANCH  26  28
ATOM     28  C   UNL     1       4.443  -4.735   6.675  0.00  0.00    +0.054 A 
ATOM     29  C   UNL     1       3.313  -4.273   6.013  0.00  0.00    +0.071 A 
ATOM     30  C   UNL     1       3.328  -3.027   5.408  0.00  0.00    +0.140 A 
ATOM     31  C   UNL     1       4.472  -2.241   5.465  0.00  0.00    +0.084 A 
ATOM     32  C   UNL     1       5.597  -2.702   6.123  0.00  0.00    +0.045 A 
ATOM     33  C   UNL     1       5.584  -3.943   6.733  0.00  0.00    +0.064 A 
ATOM     34 CL   UNL     1       6.996  -4.515   7.566  0.00  0.00    -0.082 Cl
ATOM     35 CL   UNL     1       4.490  -0.680   4.706  0.00  0.00    -0.080 Cl
BRANCH  30  36
ATOM     36  O   UNL     1       2.223  -2.573   4.760  0.00  0.00    -0.494 OA
ATOM     37  C   UNL     1       1.045  -3.378   4.843  0.00  0.00    +0.277 C 
ENDBRANCH  30  36
ENDBRANCH  26  28
ENDBRANCH   6  26
TORSDOF 6
