REMARK  Name = CHEMBL552038
REMARK  3 active torsions:
REMARK  status: ('A' for Active; 'I' for Inactive)
REMARK    1  A    between atoms: C_1  and  C_2
REMARK    2  A    between atoms: C_4  and  N_8
REMARK    3  A    between atoms: N_19  and  C_20
REMARK                            x       y       z     vdW  Elec       q    Type
REMARK                         _______ _______ _______ _____ _____    ______ ____
ROOT
ATOM      1  N   UNL     1       1.392  -3.001   1.578  0.00  0.00    -0.284 N 
ATOM      2  C   UNL     1       1.188  -2.913   2.939  0.00  0.00    +0.137 A 
ATOM      3  C   UNL     1       1.464  -4.014   3.788  0.00  0.00    +0.038 A 
ATOM      4  C   UNL     1       1.951  -5.228   3.294  0.00  0.00    +0.013 A 
ATOM      5  C   UNL     1       2.200  -6.255   4.157  0.00  0.00    +0.001 A 
ATOM      6  C   UNL     1       1.975  -6.110   5.523  0.00  0.00    +0.002 A 
ATOM      7  C   UNL     1       1.500  -4.939   6.037  0.00  0.00    +0.026 A 
ATOM      8  C   UNL     1       1.235  -3.864   5.178  0.00  0.00    +0.052 A 
ATOM      9  N   UNL     1       0.768  -2.692   5.633  0.00  0.00    -0.327 N 
ATOM     10  C   UNL     1       0.529  -1.699   4.798  0.00  0.00    +0.199 A 
ATOM     11  N   UNL     1       0.735  -1.795   3.487  0.00  0.00    -0.200 NA
ATOM     12  N   UNL     1       0.047  -0.505   5.308  0.00  0.00    -0.285 N 
ATOM     13  H   UNL     1       1.725  -3.825   1.190  0.00  0.00    +0.155 HD
ATOM     14  H   UNL     1      -0.224   0.205   4.705  0.00  0.00    +0.155 HD
ATOM     15  H   UNL     1       0.606  -2.573   6.582  0.00  0.00    +0.169 HD
ENDROOT
BRANCH   1  19
ATOM     16  C   UNL     1       0.031   1.541   0.025  0.00  0.00    +0.067 C 
ATOM     17  C   UNL     1       0.519   0.116   0.036  0.00  0.00    +0.062 A 
ATOM     18  C   UNL     1       0.653  -0.694   1.167  0.00  0.00    +0.068 A 
ATOM     19  C   UNL     1       1.121  -1.906   0.760  0.00  0.00    +0.120 A 
ATOM     20  N   UNL     1       1.274  -1.852  -0.588  0.00  0.00    -0.264 N 
ATOM     21  N   UNL     1       0.884  -0.576  -1.013  0.00  0.00    -0.178 NA
ATOM     22  H   UNL     1       1.594  -2.571  -1.156  0.00  0.00    +0.190 HD
ENDBRANCH   1  19
BRANCH  12  23
ATOM     23  C   UNL     1      -0.049  -0.324   6.691  0.00  0.00    +0.034 A 
ATOM     24  C   UNL     1       0.981  -0.748   7.521  0.00  0.00    +0.023 A 
ATOM     25  C   UNL     1       0.883  -0.567   8.887  0.00  0.00    +0.002 A 
ATOM     26  C   UNL     1      -0.238   0.035   9.428  0.00  0.00    +0.000 A 
ATOM     27  C   UNL     1      -1.265   0.459   8.604  0.00  0.00    +0.002 A 
ATOM     28  C   UNL     1      -1.171   0.286   7.237  0.00  0.00    +0.023 A 
ENDBRANCH  12  23
TORSDOF 2
