REMARK  Name = CHEMBL219014
REMARK  9 active torsions:
REMARK  status: ('A' for Active; 'I' for Inactive)
REMARK    1  A    between atoms: C_1  and  N_2
REMARK    2  A    between atoms: N_5  and  C_8
REMARK    3  A    between atoms: C_8  and  C_9
REMARK    4  A    between atoms: C_12  and  C_14
REMARK    5  A    between atoms: C_22  and  C_35
REMARK    6  A    between atoms: C_23  and  N_24
REMARK    7  A    between atoms: N_24  and  C_25
REMARK    8  A    between atoms: C_27  and  O_33
REMARK    9  A    between atoms: O_33  and  C_34
REMARK                            x       y       z     vdW  Elec       q    Type
REMARK                         _______ _______ _______ _____ _____    ______ ____
ROOT
ATOM      1  C   UNL     1       2.230  -4.887   6.163  0.00  0.00    -0.009 A 
ATOM      2  C   UNL     1       1.799  -5.371   7.410  0.00  0.00    +0.010 A 
ATOM      3  C   UNL     1       2.666  -6.002   8.245  0.00  0.00    +0.012 A 
ATOM      4  C   UNL     1       4.006  -6.175   7.866  0.00  0.00    +0.023 A 
ATOM      5  C   UNL     1       4.457  -5.693   6.612  0.00  0.00    +0.073 A 
ATOM      6  C   UNL     1       3.547  -5.051   5.761  0.00  0.00    +0.037 A 
ATOM      7  N   UNL     1       5.736  -5.857   6.245  0.00  0.00    -0.254 NA
ATOM      8  C   UNL     1       6.607  -6.457   7.015  0.00  0.00    +0.132 A 
ATOM      9  C   UNL     1       6.249  -6.966   8.273  0.00  0.00    +0.091 A 
ATOM     10  C   UNL     1       4.925  -6.828   8.719  0.00  0.00    +0.060 A 
ENDROOT
BRANCH   1  14
ATOM     11  C   UNL     1      -0.113  -2.915   3.349  0.00  0.00    +0.004 A 
ATOM     12  C   UNL     1      -0.758  -3.283   4.486  0.00  0.00    +0.013 A 
ATOM     13  C   UNL     1      -0.058  -3.942   5.471  0.00  0.00    +0.016 A 
ATOM     14  C   UNL     1       1.272  -4.204   5.271  0.00  0.00    +0.020 A 
ATOM     15  S   UNL     1       1.542  -3.512   3.647  0.00  0.00    -0.092 S 
BRANCH  11  16
ATOM     16  C   UNL     1      -0.657  -2.193   2.143  0.00  0.00    +0.126 C 
BRANCH  16  21
ATOM     17  C   UNL     1       0.467   3.316   1.772  0.00  0.00    -0.096 C 
ATOM     18  N   UNL     1       0.335   1.871   1.538  0.00  0.00    +0.379 N 
ATOM     19  C   UNL     1      -1.087   1.502   1.550  0.00  0.00    -0.064 C 
ATOM     20  C   UNL     1      -1.226   0.001   1.289  0.00  0.00    +0.066 C 
ATOM     21  N   UNL     1      -0.500  -0.744   2.327  0.00  0.00    -0.301 NA
ATOM     22  C   UNL     1       0.921  -0.366   2.343  0.00  0.00    +0.066 C 
ATOM     23  C   UNL     1       1.042   1.138   2.596  0.00  0.00    -0.064 C 
ATOM     24  H   UNL     1       0.735   1.638   0.642  0.00  0.00    -0.082 HD
ENDBRANCH  16  21
ENDBRANCH  11  16
ENDBRANCH   1  14
BRANCH  10  25
ATOM     25  N   UNL     1       4.533  -7.314   9.950  0.00  0.00    -0.312 N 
ATOM     26  H   UNL     1       3.599  -7.513  10.117  0.00  0.00    +0.152 HD
BRANCH  25  27
ATOM     27  C   UNL     1       5.483  -7.520  10.955  0.00  0.00    +0.053 A 
ATOM     28  C   UNL     1       5.776  -8.809  11.381  0.00  0.00    +0.071 A 
ATOM     29  C   UNL     1       6.718  -9.010  12.376  0.00  0.00    +0.140 A 
ATOM     30  C   UNL     1       7.368  -7.923  12.946  0.00  0.00    +0.084 A 
ATOM     31  C   UNL     1       7.075  -6.640  12.522  0.00  0.00    +0.045 A 
ATOM     32  C   UNL     1       6.140  -6.436  11.524  0.00  0.00    +0.064 A 
ATOM     33 CL   UNL     1       5.781  -4.824  10.988  0.00  0.00    -0.082 Cl
ATOM     34 CL   UNL     1       8.548  -8.175  14.194  0.00  0.00    -0.080 Cl
BRANCH  29  35
ATOM     35  O   UNL     1       7.006 -10.271  12.796  0.00  0.00    -0.494 OA
ATOM     36  C   UNL     1       6.387 -11.347  12.088  0.00  0.00    +0.277 C 
ENDBRANCH  29  35
ENDBRANCH  25  27
ENDBRANCH  10  25
BRANCH   9  37
ATOM     37  C   UNL     1       7.224  -7.619   9.094  0.00  0.00    +0.103 C 
ATOM     38  N   UNL     1       7.998  -8.137   9.745  0.00  0.00    -0.191 NA
ENDBRANCH   9  37
TORSDOF 7
