REMARK  Name = CHEMBL355019
REMARK  8 active torsions:
REMARK  status: ('A' for Active; 'I' for Inactive)
REMARK    1  A    between atoms: C_1  and  O_2
REMARK    2  A    between atoms: O_2  and  C_3
REMARK    3  A    between atoms: C_3  and  C_5
REMARK    4  A    between atoms: C_5  and  N_6
REMARK    5  A    between atoms: C_9  and  N_11
REMARK    6  A    between atoms: C_13  and  C_21
REMARK    7  A    between atoms: C_19  and  N_20
REMARK    8  A    between atoms: C_25  and  O_27
REMARK                            x       y       z     vdW  Elec       q    Type
REMARK                         _______ _______ _______ _____ _____    ______ ____
ROOT
ATOM      1  N   UNL     1       1.872  -5.563  -4.209  0.00  0.00    -0.327 N 
ATOM      2  C   UNL     1       3.178  -5.362  -4.564  0.00  0.00    +0.097 A 
ATOM      3  C   UNL     1       3.690  -6.505  -5.083  0.00  0.00    +0.012 A 
ATOM      4  C   UNL     1       2.611  -7.501  -5.045  0.00  0.00    +0.066 A 
ATOM      5  C   UNL     1       1.499  -6.852  -4.481  0.00  0.00    +0.147 A 
ATOM      6  N   UNL     1       0.370  -7.543  -4.326  0.00  0.00    -0.218 NA
ATOM      7  C   UNL     1       0.300  -8.805  -4.689  0.00  0.00    +0.225 A 
ATOM      8  N   UNL     1       1.322  -9.453  -5.219  0.00  0.00    -0.220 NA
ATOM      9  C   UNL     1       2.488  -8.845  -5.422  0.00  0.00    +0.129 A 
ENDROOT
BRANCH   3  10
ATOM     10  C   UNL     1       5.069  -6.710  -5.588  0.00  0.00    -0.012 A 
ATOM     11  C   UNL     1       5.815  -7.807  -5.160  0.00  0.00    +0.009 A 
ATOM     12  C   UNL     1       7.098  -7.995  -5.632  0.00  0.00    +0.004 A 
ATOM     13  C   UNL     1       7.647  -7.098  -6.530  0.00  0.00    +0.045 A 
ATOM     14  C   UNL     1       6.911  -6.003  -6.962  0.00  0.00    +0.117 A 
ATOM     15  C   UNL     1       5.620  -5.810  -6.498  0.00  0.00    +0.054 A 
BRANCH  14  16
ATOM     16  O   UNL     1       7.455  -5.124  -7.844  0.00  0.00    -0.507 OA
ATOM     17  H   UNL     1       7.295  -5.348  -8.771  0.00  0.00    +0.292 HD
ENDBRANCH  14  16
ENDBRANCH   3  10
BRANCH   1  21
ATOM     18  N   UNL     1       1.356  -2.504  -2.349  0.00  0.00    -0.290 NA
ATOM     19  C   UNL     1       0.547  -2.188  -3.545  0.00  0.00    +0.087 C 
ATOM     20  C   UNL     1       0.872  -3.318  -4.553  0.00  0.00    +0.042 C 
ATOM     21  C   UNL     1       1.000  -4.547  -3.615  0.00  0.00    +0.104 C 
ATOM     22  C   UNL     1       1.644  -3.950  -2.345  0.00  0.00    +0.110 C 
BRANCH  18  23
ATOM     23  C   UNL     1       0.657  -2.104  -1.120  0.00  0.00    +0.205 C 
BRANCH  23  24
ATOM     24  C   UNL     1       0.598  -0.600  -1.043  0.00  0.00    +0.321 C 
ATOM     25  O   UNL     1       1.088   0.070  -1.921  0.00  0.00    -0.249 OA
BRANCH  24  27
ATOM     26  C   UNL     1      -0.017   1.425   0.010  0.00  0.00    +0.280 C 
ATOM     27  O   UNL     1       0.002  -0.004   0.002  0.00  0.00    -0.467 OA
ENDBRANCH  24  27
ENDBRANCH  23  24
ENDBRANCH  18  23
ENDBRANCH   1  21
BRANCH   9  28
ATOM     28  N   UNL     1       3.556  -9.527  -5.976  0.00  0.00    -0.343 N 
ATOM     29  H   UNL     1       4.404  -9.075  -6.108  0.00  0.00    +0.144 HD
ATOM     30  H   UNL     1       3.458 -10.457  -6.232  0.00  0.00    +0.144 HD
ENDBRANCH   9  28
TORSDOF 7
