REMARK  Name = CHEMBL358860
REMARK  2 active torsions:
REMARK  status: ('A' for Active; 'I' for Inactive)
REMARK    1  A    between atoms: C_5  and  O_7
REMARK    2  A    between atoms: O_7  and  P_8
REMARK                            x       y       z     vdW  Elec       q    Type
REMARK                         _______ _______ _______ _____ _____    ______ ____
ROOT
ATOM      1  C   UNL     1      -0.017   1.379   0.010  0.00  0.00    +0.004 A 
ATOM      2  C   UNL     1       1.167   2.090   0.002  0.00  0.00    +0.005 A 
ATOM      3  C   UNL     1       2.384   1.426  -0.012  0.00  0.00    -0.023 A 
ATOM      4  C   UNL     1       2.408   0.041  -0.017  0.00  0.00    +0.073 A 
ATOM      5  C   UNL     1       1.212  -0.677  -0.011  0.00  0.00    +0.153 A 
ATOM      6  C   UNL     1       0.002  -0.004   0.002  0.00  0.00    +0.048 A 
ATOM      7  N   UNL     1       3.623  -0.657  -0.022  0.00  0.00    -0.341 N 
ATOM      8  C   UNL     1       4.861   0.075  -0.324  0.00  0.00    +0.102 C 
ATOM      9  C   UNL     1       4.831   1.391   0.465  0.00  0.00    +0.023 C 
ATOM     10  C   UNL     1       3.655   2.234  -0.025  0.00  0.00    +0.038 C 
ATOM     11  H   UNL     1       3.647  -1.607   0.171  0.00  0.00    +0.146 HD
ENDROOT
BRANCH   5  12
ATOM     12  O   UNL     1       1.235  -2.037  -0.020  0.00  0.00    -0.399 OA
BRANCH  12  13
ATOM     13  P   UNL     1       0.854  -2.689  -1.442  0.00  0.00    +0.589 P 
ATOM     14  O   UNL     1      -0.541  -2.148  -1.907  0.00  0.00    -0.211 OA
ATOM     15  O   UNL     1       1.943  -2.306  -2.501  0.00  0.00    -0.104 OA
ATOM     16  O   UNL     1       0.788  -4.248  -1.300  0.00  0.00    -0.104 OA
ENDBRANCH  12  13
ENDBRANCH   5  12
TORSDOF 2
