REMARK  Name = CHEMBL312933
REMARK  7 active torsions:
REMARK  status: ('A' for Active; 'I' for Inactive)
REMARK    1  A    between atoms: C_1  and  C_2
REMARK    2  A    between atoms: C_7  and  N_8
REMARK    3  A    between atoms: C_9  and  C_11
REMARK    4  A    between atoms: C_25  and  N_27
REMARK    5  A    between atoms: N_27  and  C_28
REMARK    6  A    between atoms: C_28  and  C_29
REMARK    7  A    between atoms: C_29  and  O_30
REMARK                            x       y       z     vdW  Elec       q    Type
REMARK                         _______ _______ _______ _____ _____    ______ ____
ROOT
ATOM      1  C   UNL     1      -0.500   0.119   4.802  0.00  0.00    +0.038 A 
ATOM      2  C   UNL     1      -0.209   1.490   4.836  0.00  0.00    +0.015 A 
ATOM      3  C   UNL     1      -0.289   2.203   5.987  0.00  0.00    +0.029 A 
ATOM      4  C   UNL     1      -0.673   1.585   7.204  0.00  0.00    +0.080 A 
ATOM      5  C   UNL     1      -0.962   0.200   7.144  0.00  0.00    +0.041 A 
ATOM      6  C   UNL     1      -0.887  -0.521   5.984  0.00  0.00    +0.030 A 
ATOM      7  S   UNL     1      -1.387  -0.171   8.829  0.00  0.00    -0.052 S 
ATOM      8  C   UNL     1      -1.163   1.476   9.484  0.00  0.00    +0.165 A 
ATOM      9  N   UNL     1      -0.797   2.155   8.418  0.00  0.00    -0.225 NA
ATOM     10  N   UNL     1      -1.331   1.923  10.779  0.00  0.00    -0.279 N 
ATOM     11  C   UNL     1      -1.209   3.279  11.069  0.00  0.00    +0.126 A 
ATOM     12  C   UNL     1      -1.490   3.736  12.351  0.00  0.00    +0.044 A 
ATOM     13  C   UNL     1      -1.367   5.088  12.630  0.00  0.00    +0.007 A 
ATOM     14  C   UNL     1      -0.964   5.940  11.615  0.00  0.00    +0.043 A 
ATOM     15  C   UNL     1      -0.698   5.418  10.355  0.00  0.00    +0.121 A 
ATOM     16  N   UNL     1      -0.821   4.120  10.121  0.00  0.00    -0.217 NA
ATOM     17  H   UNL     1      -1.534   1.292  11.487  0.00  0.00    +0.155 HD
ENDROOT
BRANCH   1  19
ATOM     18  N   UNL     1      -0.030  -0.008   2.406  0.00  0.00    -0.280 N 
ATOM     19  C   UNL     1      -0.405  -0.635   3.539  0.00  0.00    +0.248 C 
ATOM     20  O   UNL     1      -0.664  -1.823   3.519  0.00  0.00    -0.270 OA
ATOM     21  H   UNL     1       0.254   0.919   2.437  0.00  0.00    +0.155 HD
BRANCH  18  28
ATOM     22  C   UNL     1      -1.417   1.177   0.223  0.00  0.00    +0.046 C 
ATOM     23  C   UNL     1      -0.717  -0.152   0.096  0.00  0.00    -0.028 A 
ATOM     24  C   UNL     1      -0.732  -0.829  -1.108  0.00  0.00    +0.005 A 
ATOM     25  C   UNL     1      -0.090  -2.048  -1.226  0.00  0.00    +0.002 A 
ATOM     26  C   UNL     1       0.569  -2.594  -0.140  0.00  0.00    +0.022 A 
ATOM     27  C   UNL     1       0.588  -1.922   1.067  0.00  0.00    +0.062 A 
ATOM     28  C   UNL     1      -0.052  -0.694   1.187  0.00  0.00    +0.055 A 
ATOM     29 CL   UNL     1       1.415  -2.607   2.431  0.00  0.00    -0.082 Cl
ENDBRANCH  18  28
ENDBRANCH   1  19
BRANCH  15  30
ATOM     30  N   UNL     1      -0.294   6.266   9.330  0.00  0.00    -0.327 N 
ATOM     31  H   UNL     1      -0.107   5.907   8.448  0.00  0.00    +0.148 HD
BRANCH  30  32
ATOM     32  C   UNL     1      -0.151   7.702   9.581  0.00  0.00    +0.130 C 
BRANCH  32  33
ATOM     33  C   UNL     1       0.302   8.401   8.298  0.00  0.00    +0.174 C 
BRANCH  33  34
ATOM     34  O   UNL     1      -0.724   8.291   7.308  0.00  0.00    -0.393 OA
ATOM     35  H   UNL     1      -0.505   8.713   6.466  0.00  0.00    +0.209 HD
ENDBRANCH  33  34
ENDBRANCH  32  33
ENDBRANCH  30  32
ENDBRANCH  15  30
TORSDOF 6
