REMARK  Name = CHEMBL227753
REMARK  8 active torsions:
REMARK  status: ('A' for Active; 'I' for Inactive)
REMARK    1  A    between atoms: C_1  and  C_2
REMARK    2  A    between atoms: C_6  and  C_33
REMARK    3  A    between atoms: C_7  and  N_8
REMARK    4  A    between atoms: C_15  and  C_18
REMARK    5  A    between atoms: C_21  and  O_24
REMARK    6  A    between atoms: O_24  and  C_25
REMARK    7  A    between atoms: C_25  and  C_26
REMARK    8  A    between atoms: N_30  and  C_32
REMARK                            x       y       z     vdW  Elec       q    Type
REMARK                         _______ _______ _______ _____ _____    ______ ____
ROOT
ATOM      1  N   UNL     1       0.346  -0.777   2.602  0.00  0.00    -0.297 N 
ATOM      2  C   UNL     1       0.143  -1.591   3.703  0.00  0.00    +0.149 A 
ATOM      3  C   UNL     1       0.032  -1.025   4.994  0.00  0.00    +0.106 A 
ATOM      4  C   UNL     1       0.078   0.256   5.495  0.00  0.00    +0.142 A 
ATOM      5  N   UNL     1      -0.091   0.176   6.815  0.00  0.00    -0.243 NA
ATOM      6  C   UNL     1      -0.239  -1.078   7.170  0.00  0.00    +0.204 A 
ATOM      7  N   UNL     1      -0.171  -1.859   6.080  0.00  0.00    -0.294 N 
ATOM      8  C   UNL     1      -0.258  -3.224   5.861  0.00  0.00    +0.073 A 
ATOM      9  C   UNL     1      -0.143  -3.710   4.596  0.00  0.00    +0.139 A 
ATOM     10  N   UNL     1       0.047  -2.900   3.553  0.00  0.00    -0.236 NA
ATOM     11  H   UNL     1       0.339   0.188   2.704  0.00  0.00    +0.154 HD
ENDROOT
BRANCH   1  18
ATOM     12  C   UNL     1       2.955  -0.604   1.480  0.00  0.00    +0.045 C 
ATOM     13  C   UNL     1       1.820  -1.283   0.758  0.00  0.00    -0.029 A 
ATOM     14  C   UNL     1       2.031  -1.851  -0.483  0.00  0.00    +0.005 A 
ATOM     15  C   UNL     1       0.990  -2.474  -1.146  0.00  0.00    +0.001 A 
ATOM     16  C   UNL     1      -0.265  -2.532  -0.569  0.00  0.00    +0.005 A 
ATOM     17  C   UNL     1      -0.483  -1.967   0.672  0.00  0.00    -0.029 A 
ATOM     18  C   UNL     1       0.562  -1.345   1.344  0.00  0.00    +0.038 A 
ATOM     19  C   UNL     1      -1.852  -2.030   1.300  0.00  0.00    +0.045 C 
ENDBRANCH   1  18
BRANCH   8  20
ATOM     20  C   UNL     1      -0.474  -4.145   6.995  0.00  0.00    +0.001 A 
ATOM     21  C   UNL     1      -1.668  -4.099   7.718  0.00  0.00    +0.013 A 
ATOM     22  C   UNL     1      -1.865  -4.961   8.775  0.00  0.00    +0.046 A 
ATOM     23  C   UNL     1      -0.878  -5.875   9.122  0.00  0.00    +0.121 A 
ATOM     24  C   UNL     1       0.311  -5.924   8.406  0.00  0.00    +0.046 A 
ATOM     25  C   UNL     1       0.514  -5.070   7.344  0.00  0.00    +0.013 A 
BRANCH  23  26
ATOM     26  O   UNL     1      -1.077  -6.723  10.165  0.00  0.00    -0.492 OA
BRANCH  26  27
ATOM     27  C   UNL     1      -0.021  -7.637  10.468  0.00  0.00    +0.230 C 
BRANCH  27  28
ATOM     28  C   UNL     1      -0.424  -8.503  11.663  0.00  0.00    +0.010 C 
ATOM     29  C   UNL     1      -0.561  -7.624  12.909  0.00  0.00    +0.003 C 
ATOM     30  C   UNL     1      -0.887  -8.510  14.114  0.00  0.00    -0.018 C 
ATOM     31  C   UNL     1       0.205  -9.571  14.270  0.00  0.00    -0.079 C 
ATOM     32  N   UNL     1       0.268 -10.396  13.057  0.00  0.00    +0.378 N 
ATOM     33  C   UNL     1       0.651  -9.564  11.910  0.00  0.00    -0.072 C 
ATOM     34  C   UNL     1      -1.048 -10.998  12.807  0.00  0.00    -0.096 C 
ATOM     35  H   UNL     1       0.952 -11.127  13.184  0.00  0.00    -0.082 HD
ENDBRANCH  27  28
ENDBRANCH  26  27
ENDBRANCH  23  26
ENDBRANCH   8  20
TORSDOF 5
