REMARK  Name = CHEMBL281957
REMARK  10 active torsions:
REMARK  status: ('A' for Active; 'I' for Inactive)
REMARK    1  A    between atoms: C_1  and  C_2
REMARK    2  A    between atoms: C_2  and  N_3
REMARK    3  A    between atoms: N_3  and  C_4
REMARK    4  A    between atoms: N_3  and  C_6
REMARK    5  A    between atoms: C_4  and  C_5
REMARK    6  A    between atoms: C_6  and  C_7
REMARK    7  A    between atoms: C_8  and  C_9
REMARK    8  A    between atoms: C_10  and  C_33
REMARK    9  A    between atoms: N_20  and  C_32
REMARK   10  A    between atoms: N_23  and  C_24
REMARK                            x       y       z     vdW  Elec       q    Type
REMARK                         _______ _______ _______ _____ _____    ______ ____
ROOT
ATOM      1  C   UNL     1      -1.165   0.630   6.636  0.00  0.00    +0.045 A 
ATOM      2  C   UNL     1      -1.610   0.261   7.865  0.00  0.00    -0.019 A 
ATOM      3  C   UNL     1      -0.765  -0.466   8.738  0.00  0.00    -0.006 A 
ATOM      4  C   UNL     1      -1.197  -0.861  10.012  0.00  0.00    +0.011 A 
ATOM      5  C   UNL     1      -0.367  -1.560  10.834  0.00  0.00    +0.030 A 
ATOM      6  C   UNL     1       0.932  -1.897  10.424  0.00  0.00    +0.092 A 
ATOM      7  C   UNL     1       1.389  -1.514   9.155  0.00  0.00    +0.083 A 
ATOM      8  C   UNL     1       0.541  -0.796   8.304  0.00  0.00    +0.072 A 
ATOM      9  C   UNL     1       0.966  -0.371   6.969  0.00  0.00    +0.259 A 
ATOM     10  N   UNL     1       0.100   0.314   6.194  0.00  0.00    -0.322 N 
ATOM     11  O   UNL     1       2.083  -0.637   6.562  0.00  0.00    -0.267 OA
ATOM     12  N   UNL     1       2.681  -1.984   9.050  0.00  0.00    -0.314 N 
ATOM     13  C   UNL     1       2.978  -2.624  10.220  0.00  0.00    +0.201 A 
ATOM     14  N   UNL     1       1.947  -2.571  11.026  0.00  0.00    -0.214 NA
ATOM     15  N   UNL     1       4.182  -3.234  10.509  0.00  0.00    -0.283 N 
ATOM     16  C   UNL     1       3.571  -1.827   7.897  0.00  0.00    +0.152 C 
ATOM     17  C   UNL     1      -3.006   0.626   8.300  0.00  0.00    +0.046 C 
ATOM     18  H   UNL     1       4.864  -3.311   9.823  0.00  0.00    +0.155 HD
ATOM     19  H   UNL     1       0.376   0.594   5.307  0.00  0.00    +0.169 HD
ENDROOT
BRANCH  15  20
ATOM     20  C   UNL     1       4.419  -3.742  11.791  0.00  0.00    +0.071 A 
ATOM     21  C   UNL     1       3.741  -4.872  12.229  0.00  0.00    +0.064 A 
ATOM     22  C   UNL     1       3.978  -5.371  13.496  0.00  0.00    +0.022 A 
ATOM     23  C   UNL     1       4.889  -4.746  14.328  0.00  0.00    +0.003 A 
ATOM     24  C   UNL     1       5.566  -3.620  13.895  0.00  0.00    +0.022 A 
ATOM     25  C   UNL     1       5.338  -3.119  12.627  0.00  0.00    +0.064 A 
ATOM     26 CL   UNL     1       6.194  -1.710  12.082  0.00  0.00    -0.082 Cl
ATOM     27 CL   UNL     1       2.596  -5.658  11.187  0.00  0.00    -0.082 Cl
ENDBRANCH  15  20
BRANCH   1  29
ATOM     28  C   UNL     1      -1.691   1.657   4.502  0.00  0.00    -0.043 C 
ATOM     29  C   UNL     1      -2.063   1.384   5.749  0.00  0.00    +0.020 C 
BRANCH  28  30
ATOM     30  C   UNL     1      -2.611   2.430   3.593  0.00  0.00    -0.051 C 
BRANCH  30  31
ATOM     31  N   UNL     1      -1.905   3.606   3.066  0.00  0.00    +0.382 N 
ATOM     32  H   UNL     1      -1.544   4.153   3.833  0.00  0.00    -0.081 HD
BRANCH  31  34
ATOM     33  C   UNL     1      -0.069   4.392   1.650  0.00  0.00    -0.017 C 
ATOM     34  C   UNL     1      -0.793   3.168   2.212  0.00  0.00    -0.082 C 
ENDBRANCH  31  34
BRANCH  31  35
ATOM     35  C   UNL     1      -2.836   4.423   2.277  0.00  0.00    -0.082 C 
ATOM     36  C   UNL     1      -4.004   4.864   3.162  0.00  0.00    -0.017 C 
ENDBRANCH  31  35
ENDBRANCH  30  31
ENDBRANCH  28  30
ENDBRANCH   1  29
TORSDOF 6
