REMARK  Name = CHEMBL447107
REMARK  8 active torsions:
REMARK  status: ('A' for Active; 'I' for Inactive)
REMARK    1  A    between atoms: C_1  and  C_2
REMARK    2  A    between atoms: C_7  and  N_8
REMARK    3  A    between atoms: C_20  and  N_24
REMARK    4  A    between atoms: N_24  and  C_25
REMARK    5  A    between atoms: C_29  and  C_31
REMARK    6  A    between atoms: N_35  and  C_38
REMARK    7  A    between atoms: C_38  and  C_39
REMARK    8  A    between atoms: C_39  and  O_40
REMARK                            x       y       z     vdW  Elec       q    Type
REMARK                         _______ _______ _______ _____ _____    ______ ____
ROOT
ATOM      1  N   UNL     1      -1.970  -0.390   5.521  0.00  0.00    -0.283 N 
ATOM      2  C   UNL     1      -0.823  -0.793   4.869  0.00  0.00    +0.207 A 
ATOM      3  N   UNL     1      -0.630  -1.980   4.349  0.00  0.00    -0.214 NA
ATOM      4  C   UNL     1       0.606  -2.038   3.785  0.00  0.00    +0.091 A 
ATOM      5  C   UNL     1       1.305  -3.041   3.110  0.00  0.00    +0.030 A 
ATOM      6  C   UNL     1       2.576  -2.792   2.642  0.00  0.00    +0.002 A 
ATOM      7  C   UNL     1       3.168  -1.553   2.837  0.00  0.00    +0.002 A 
ATOM      8  C   UNL     1       2.490  -0.552   3.502  0.00  0.00    +0.028 A 
ATOM      9  C   UNL     1       1.210  -0.784   3.979  0.00  0.00    +0.077 A 
ATOM     10  N   UNL     1       0.283  -0.011   4.663  0.00  0.00    -0.264 N 
ATOM     11  C   UNL     1       0.447   1.312   5.069  0.00  0.00    +0.145 A 
ATOM     12  C   UNL     1       0.961   2.260   4.191  0.00  0.00    +0.090 A 
ATOM     13  C   UNL     1       1.106   3.568   4.644  0.00  0.00    +0.129 A 
ATOM     14  N   UNL     1       0.749   3.862   5.892  0.00  0.00    -0.220 NA
ATOM     15  C   UNL     1       0.266   2.935   6.694  0.00  0.00    +0.225 A 
ATOM     16  N   UNL     1       0.110   1.687   6.300  0.00  0.00    -0.218 NA
ATOM     17  H   UNL     1      -2.056   0.526   5.828  0.00  0.00    +0.155 HD
ENDROOT
BRANCH   1  24
ATOM     18  C   UNL     1      -2.797  -0.872   8.200  0.00  0.00    +0.046 C 
ATOM     19  C   UNL     1      -3.443  -1.566   7.029  0.00  0.00    -0.028 A 
ATOM     20  C   UNL     1      -4.473  -2.463   7.240  0.00  0.00    +0.005 A 
ATOM     21  C   UNL     1      -5.067  -3.100   6.167  0.00  0.00    +0.002 A 
ATOM     22  C   UNL     1      -4.633  -2.844   4.879  0.00  0.00    +0.022 A 
ATOM     23  C   UNL     1      -3.604  -1.948   4.661  0.00  0.00    +0.062 A 
ATOM     24  C   UNL     1      -3.008  -1.301   5.737  0.00  0.00    +0.055 A 
ATOM     25 CL   UNL     1      -3.060  -1.626   3.044  0.00  0.00    -0.082 Cl
ENDBRANCH   1  24
BRANCH  13  26
ATOM     26  N   UNL     1       1.614   4.551   3.806  0.00  0.00    -0.284 N 
ATOM     27  H   UNL     1       1.778   4.354   2.871  0.00  0.00    +0.155 HD
BRANCH  26  28
ATOM     28  C   UNL     1       1.889   5.817   4.308  0.00  0.00    +0.129 A 
ATOM     29  C   UNL     1       1.988   6.026   5.679  0.00  0.00    +0.087 A 
ATOM     30  C   UNL     1       2.265   7.313   6.131  0.00  0.00    +0.126 A 
ATOM     31  N   UNL     1       2.425   8.290   5.241  0.00  0.00    -0.218 NA
ATOM     32  C   UNL     1       2.324   8.051   3.949  0.00  0.00    +0.130 A 
ATOM     33  N   UNL     1       2.067   6.846   3.482  0.00  0.00    -0.217 NA
ATOM     34  C   UNL     1       2.512   9.188   2.978  0.00  0.00    +0.088 C 
ATOM     35  N   UNL     1       2.373   7.574   7.489  0.00  0.00    -0.319 N 
ATOM     36  C   UNL     1       2.450   8.954   7.990  0.00  0.00    +0.088 C 
ATOM     37  C   UNL     1       1.414   9.124   9.106  0.00  0.00    -0.059 C 
ATOM     38  N   UNL     1       1.626   8.095  10.131  0.00  0.00    +0.383 N 
ATOM     39  C   UNL     1       1.379   6.764   9.562  0.00  0.00    -0.059 C 
ATOM     40  C   UNL     1       2.408   6.477   8.469  0.00  0.00    +0.088 C 
ATOM     41  H   UNL     1       2.577   8.145  10.465  0.00  0.00    -0.082 HD
BRANCH  38  42
ATOM     42  C   UNL     1       0.705   8.325  11.252  0.00  0.00    -0.051 C 
BRANCH  42  43
ATOM     43  C   UNL     1       1.034   7.357  12.389  0.00  0.00    +0.137 C 
BRANCH  43  44
ATOM     44  O   UNL     1       2.334   7.650  12.903  0.00  0.00    -0.397 OA
ATOM     45  H   UNL     1       2.641   7.027  13.576  0.00  0.00    +0.209 HD
ENDBRANCH  43  44
ENDBRANCH  42  43
ENDBRANCH  38  42
ENDBRANCH  26  28
ENDBRANCH  13  26
TORSDOF 6
