REMARK  Name = CHEMBL410119
REMARK  14 active torsions:
REMARK  status: ('A' for Active; 'I' for Inactive)
REMARK    1  A    between atoms: C_1  and  C_2
REMARK    2  A    between atoms: N_4  and  C_5
REMARK    3  A    between atoms: C_5  and  C_7
REMARK    4  A    between atoms: C_5  and  C_19
REMARK    5  A    between atoms: C_7  and  C_8
REMARK    6  A    between atoms: C_11  and  O_14
REMARK    7  A    between atoms: O_14  and  P_15
REMARK    8  A    between atoms: P_15  and  O_18
REMARK    9  A    between atoms: N_21  and  C_22
REMARK   10  A    between atoms: N_28  and  C_31
REMARK   11  A    between atoms: C_31  and  C_32
REMARK   12  A    between atoms: C_36  and  C_38
REMARK   13  A    between atoms: C_38  and  O_40
REMARK   14  A    between atoms: O_40  and  C_41
REMARK                            x       y       z     vdW  Elec       q    Type
REMARK                         _______ _______ _______ _____ _____    ______ ____
ROOT
ATOM      1  C   UNL     1      -0.407  -2.658   1.222  0.00  0.00    +0.234 C 
ATOM      2  O   UNL     1       0.350  -1.922   1.819  0.00  0.00    -0.274 OA
ATOM      3  N   UNL     1      -0.597  -3.922   1.651  0.00  0.00    -0.302 N 
ATOM      4  H   UNL     1      -1.202  -4.510   1.173  0.00  0.00    +0.150 HD
ENDROOT
BRANCH   3   5
ATOM      5  C   UNL     1       0.112  -4.407   2.837  0.00  0.00    +0.169 C 
ATOM      6  C   UNL     1      -0.672  -4.023   4.093  0.00  0.00    +0.101 C 
ATOM      7  S   UNL     1       0.452  -3.853   5.501  0.00  0.00    -0.157 S 
ATOM      8  C   UNL     1       1.195  -5.489   5.721  0.00  0.00    +0.088 C 
ATOM      9  C   UNL     1       1.988  -5.880   4.474  0.00  0.00    +0.119 C 
ATOM     10  N   UNL     1       1.101  -6.570   3.533  0.00  0.00    -0.295 N 
ATOM     11  C   UNL     1       0.238  -5.909   2.770  0.00  0.00    +0.237 C 
ATOM     12  O   UNL     1      -0.468  -6.528   2.002  0.00  0.00    -0.274 OA
BRANCH  10  13
ATOM     13  C   UNL     1       1.170  -8.030   3.429  0.00  0.00    +0.143 C 
BRANCH  13  14
ATOM     14  C   UNL     1       0.208  -8.649   4.410  0.00  0.00    -0.029 A 
ATOM     15  C   UNL     1       0.627  -8.946   5.695  0.00  0.00    +0.005 A 
ATOM     16  C   UNL     1      -0.250  -9.515   6.602  0.00  0.00    +0.001 A 
ATOM     17  C   UNL     1      -1.549  -9.790   6.229  0.00  0.00    +0.015 A 
ATOM     18  C   UNL     1      -1.979  -9.493   4.935  0.00  0.00    +0.059 A 
ATOM     19  C   UNL     1      -1.091  -8.914   4.027  0.00  0.00    +0.020 A 
BRANCH  18  20
ATOM     20  C   UNL     1      -3.369  -9.785   4.529  0.00  0.00    +0.339 C 
ATOM     21  O   UNL     1      -3.740  -9.526   3.402  0.00  0.00    -0.245 OA
BRANCH  20  22
ATOM     22  O   UNL     1      -4.226 -10.339   5.410  0.00  0.00    -0.464 OA
ATOM     23  C   UNL     1      -5.554 -10.594   4.949  0.00  0.00    +0.280 C 
ENDBRANCH  20  22
ENDBRANCH  18  20
ENDBRANCH  13  14
ENDBRANCH  10  13
ENDBRANCH   3   5
BRANCH   1  24
ATOM     24  C   UNL     1      -1.136  -2.159   0.001  0.00  0.00    +0.163 C 
BRANCH  24  28
ATOM     25  C   UNL     1      -0.018   1.503   0.010  0.00  0.00    +0.109 C 
ATOM     26  C   UNL     1       0.002  -0.004   0.002  0.00  0.00    +0.211 C 
ATOM     27  O   UNL     1       1.060  -0.596  -0.011  0.00  0.00    -0.276 OA
ATOM     28  N   UNL     1      -1.156  -0.694   0.009  0.00  0.00    -0.304 N 
ATOM     29  H   UNL     1      -2.002  -0.220   0.020  0.00  0.00    +0.149 HD
ENDBRANCH  24  28
BRANCH  24  30
ATOM     30  C   UNL     1      -0.420  -2.652  -1.258  0.00  0.00    +0.067 C 
BRANCH  30  31
ATOM     31  C   UNL     1      -1.215  -2.257  -2.475  0.00  0.00    -0.045 A 
ATOM     32  C   UNL     1      -2.188  -3.107  -2.969  0.00  0.00    +0.007 A 
ATOM     33  C   UNL     1      -2.918  -2.747  -4.085  0.00  0.00    +0.046 A 
ATOM     34  C   UNL     1      -2.675  -1.533  -4.711  0.00  0.00    +0.132 A 
ATOM     35  C   UNL     1      -1.698  -0.683  -4.213  0.00  0.00    +0.046 A 
ATOM     36  C   UNL     1      -0.974  -1.044  -3.093  0.00  0.00    +0.007 A 
BRANCH  34  37
ATOM     37  O   UNL     1      -3.391  -1.178  -5.809  0.00  0.00    -0.403 OA
BRANCH  37  38
ATOM     38  P   UNL     1      -4.739  -0.361  -5.477  0.00  0.00    +0.558 P 
ATOM     39  O   UNL     1      -5.604  -1.177  -4.491  0.00  0.00    -0.213 OA
ATOM     40  O   UNL     1      -4.373   0.998  -4.839  0.00  0.00    -0.106 OA
BRANCH  38  41
ATOM     41  O   UNL     1      -5.564  -0.111  -6.836  0.00  0.00    -0.291 OA
ATOM     42  H   UNL     1      -6.390   0.376  -6.711  0.00  0.00    +0.223 HD
ENDBRANCH  38  41
ENDBRANCH  37  38
ENDBRANCH  34  37
ENDBRANCH  30  31
ENDBRANCH  24  30
ENDBRANCH   1  24
TORSDOF 12
