REMARK  Name = CHEMBL304362
REMARK  6 active torsions:
REMARK  status: ('A' for Active; 'I' for Inactive)
REMARK    1  A    between atoms: C_4  and  C_7
REMARK    2  A    between atoms: C_10  and  C_13
REMARK    3  A    between atoms: C_18  and  O_31
REMARK    4  A    between atoms: C_19  and  O_30
REMARK    5  A    between atoms: C_24  and  O_29
REMARK    6  A    between atoms: C_25  and  O_28
REMARK                            x       y       z     vdW  Elec       q    Type
REMARK                         _______ _______ _______ _____ _____    ______ ____
ROOT
ATOM      1  C   UNL     1       7.411  -2.754  -0.086  0.00  0.00    +0.263 C 
ATOM      2  O   UNL     1       7.500  -2.158   0.970  0.00  0.00    -0.267 OA
ATOM      3  N   UNL     1       7.330  -4.099  -0.096  0.00  0.00    -0.272 N 
ATOM      4  C   UNL     1       6.147  -4.826  -0.148  0.00  0.00    +0.062 A 
ATOM      5  C   UNL     1       4.813  -4.436  -0.199  0.00  0.00    +0.076 A 
ATOM      6  C   UNL     1       3.813  -5.389  -0.245  0.00  0.00    +0.160 A 
ATOM      7  C   UNL     1       4.133  -6.747  -0.239  0.00  0.00    +0.159 A 
ATOM      8  C   UNL     1       5.454  -7.147  -0.188  0.00  0.00    +0.059 A 
ATOM      9  C   UNL     1       6.466  -6.190  -0.142  0.00  0.00    +0.012 A 
ATOM     10  C   UNL     1       7.939  -6.279  -0.083  0.00  0.00    +0.012 A 
ATOM     11  C   UNL     1       8.419  -4.963  -0.062  0.00  0.00    +0.103 A 
ATOM     12  C   UNL     1       9.792  -4.737  -0.011  0.00  0.00    +0.183 A 
ATOM     13  C   UNL     1      10.670  -5.812   0.015  0.00  0.00    +0.160 A 
ATOM     14  C   UNL     1      10.188  -7.114  -0.011  0.00  0.00    +0.050 A 
ATOM     15  C   UNL     1       8.830  -7.350  -0.053  0.00  0.00    +0.014 A 
ENDROOT
BRANCH   1  19
ATOM     16  C   UNL     1       7.353  -0.595  -3.745  0.00  0.00    -0.018 A 
ATOM     17  C   UNL     1       7.348   0.092  -2.531  0.00  0.00    +0.009 A 
ATOM     18  C   UNL     1       7.367  -0.606  -1.345  0.00  0.00    +0.014 A 
ATOM     19  C   UNL     1       7.390  -2.004  -1.357  0.00  0.00    +0.040 A 
ATOM     20  C   UNL     1       7.394  -2.690  -2.575  0.00  0.00    +0.014 A 
ATOM     21  C   UNL     1       7.370  -1.990  -3.759  0.00  0.00    +0.009 A 
BRANCH  16  25
ATOM     22  C   UNL     1       7.296   1.565  -7.406  0.00  0.00    +0.000 A 
ATOM     23  C   UNL     1       7.297   2.248  -6.203  0.00  0.00    +0.001 A 
ATOM     24  C   UNL     1       7.315   1.553  -5.012  0.00  0.00    +0.008 A 
ATOM     25  C   UNL     1       7.333   0.159  -5.022  0.00  0.00    -0.018 A 
ATOM     26  C   UNL     1       7.332  -0.524  -6.237  0.00  0.00    +0.008 A 
ATOM     27  C   UNL     1       7.313   0.182  -7.423  0.00  0.00    +0.001 A 
ENDBRANCH  16  25
ENDBRANCH   1  19
BRANCH  13  28
ATOM     28  O   UNL     1      12.011  -5.588   0.065  0.00  0.00    -0.503 OA
ATOM     29  H   UNL     1      12.367  -5.529   0.962  0.00  0.00    +0.292 HD
ENDBRANCH  13  28
BRANCH  12  30
ATOM     30  O   UNL     1      10.273  -3.464   0.013  0.00  0.00    -0.502 OA
ATOM     31  H   UNL     1      10.380  -3.101   0.903  0.00  0.00    +0.292 HD
ENDBRANCH  12  30
BRANCH   7  32
ATOM     32  O   UNL     1       3.142  -7.678  -0.284  0.00  0.00    -0.503 OA
ATOM     33  H   UNL     1       2.891  -7.943  -1.179  0.00  0.00    +0.292 HD
ENDBRANCH   7  32
BRANCH   6  34
ATOM     34  O   UNL     1       2.511  -5.002  -0.294  0.00  0.00    -0.503 OA
ATOM     35  H   UNL     1       2.170  -4.884  -1.191  0.00  0.00    +0.292 HD
ENDBRANCH   6  34
TORSDOF 6
