REMARK  Name = CHEMBL170984
REMARK  7 active torsions:
REMARK  status: ('A' for Active; 'I' for Inactive)
REMARK    1  A    between atoms: C_1  and  N_2
REMARK    2  A    between atoms: C_5  and  C_8
REMARK    3  A    between atoms: C_8  and  O_9
REMARK    4  A    between atoms: O_9  and  C_10
REMARK    5  A    between atoms: C_15  and  O_16
REMARK    6  A    between atoms: O_16  and  C_17
REMARK    7  A    between atoms: N_22  and  C_23
REMARK                            x       y       z     vdW  Elec       q    Type
REMARK                         _______ _______ _______ _____ _____    ______ ____
ROOT
ATOM      1  C   UNL     1      -0.224  -5.978   3.390  0.00  0.00    +0.164 A 
ATOM      2  C   UNL     1      -1.372  -6.735   3.470  0.00  0.00    +0.078 A 
ATOM      3  C   UNL     1      -1.277  -8.131   3.511  0.00  0.00    +0.080 A 
ATOM      4  C   UNL     1      -0.000  -8.744   3.471  0.00  0.00    +0.044 A 
ATOM      5  C   UNL     1       1.151  -7.952   3.390  0.00  0.00    +0.062 A 
ATOM      6  C   UNL     1       1.036  -6.592   3.345  0.00  0.00    +0.162 A 
ATOM      7  C   UNL     1       0.064 -10.157   3.514  0.00  0.00    +0.134 A 
ATOM      8  N   UNL     1      -1.075 -10.835   3.590  0.00  0.00    -0.220 NA
ATOM      9  C   UNL     1      -2.245 -10.219   3.626  0.00  0.00    +0.223 A 
ATOM     10  N   UNL     1      -2.366  -8.913   3.589  0.00  0.00    -0.235 NA
ATOM     11  N   UNL     1       1.277 -10.813   3.478  0.00  0.00    -0.295 N 
ATOM     12  H   UNL     1       2.101 -10.305   3.415  0.00  0.00    +0.154 HD
ENDROOT
BRANCH  11  13
ATOM     13  C   UNL     1       1.319 -12.212   3.530  0.00  0.00    +0.097 A 
ATOM     14  C   UNL     1       1.482 -12.858   4.750  0.00  0.00    +0.066 A 
ATOM     15  C   UNL     1       1.523 -14.239   4.802  0.00  0.00    +0.025 A 
ATOM     16  C   UNL     1       1.403 -14.982   3.642  0.00  0.00    +0.051 A 
ATOM     17  C   UNL     1       1.240 -14.346   2.420  0.00  0.00    +0.168 A 
ATOM     18  C   UNL     1       1.192 -12.957   2.363  0.00  0.00    +0.189 A 
ATOM     19  O   UNL     1       1.021 -12.579   1.062  0.00  0.00    -0.451 OA
ATOM     20  C   UNL     1       1.367 -13.736   0.277  0.00  0.00    +0.466 C 
ATOM     21  O   UNL     1       1.100 -14.841   1.155  0.00  0.00    -0.453 OA
ATOM     22 CL   UNL     1       1.635 -11.930   6.209  0.00  0.00    -0.081 Cl
ENDBRANCH  11  13
BRANCH   6  23
ATOM     23  O   UNL     1       2.155  -5.824   3.260  0.00  0.00    -0.491 OA
ATOM     24  C   UNL     1       3.409  -6.508   3.218  0.00  0.00    +0.277 C 
ENDBRANCH   6  23
BRANCH   1  25
ATOM     25  O   UNL     1      -0.313  -4.623   3.349  0.00  0.00    -0.488 OA
BRANCH  25  26
ATOM     26  C   UNL     1      -1.624  -4.058   3.398  0.00  0.00    +0.232 C 
BRANCH  26  31
ATOM     27  C   UNL     1      -2.284   1.405   1.898  0.00  0.00    -0.096 C 
ATOM     28  N   UNL     1      -2.300  -0.056   2.054  0.00  0.00    +0.378 N 
ATOM     29  C   UNL     1      -2.821  -0.400   3.382  0.00  0.00    -0.079 C 
ATOM     30  C   UNL     1      -2.917  -1.921   3.519  0.00  0.00    -0.012 C 
ATOM     31  C   UNL     1      -1.524  -2.532   3.341  0.00  0.00    +0.023 C 
ATOM     32  C   UNL     1      -0.960  -2.106   1.983  0.00  0.00    -0.012 C 
ATOM     33  C   UNL     1      -0.937  -0.578   1.903  0.00  0.00    -0.079 C 
ATOM     34  H   UNL     1      -2.895  -0.462   1.347  0.00  0.00    -0.082 HD
ENDBRANCH  26  31
ENDBRANCH  25  26
ENDBRANCH   1  25
TORSDOF 5
