REMARK  Name = CHEMBL224856
REMARK  8 active torsions:
REMARK  status: ('A' for Active; 'I' for Inactive)
REMARK    1  A    between atoms: C_1  and  N_2
REMARK    2  A    between atoms: N_5  and  C_8
REMARK    3  A    between atoms: C_8  and  C_9
REMARK    4  A    between atoms: C_12  and  C_15
REMARK    5  A    between atoms: C_20  and  C_26
REMARK    6  A    between atoms: C_21  and  C_24
REMARK    7  A    between atoms: C_26  and  N_27
REMARK    8  A    between atoms: N_27  and  C_28
REMARK                            x       y       z     vdW  Elec       q    Type
REMARK                         _______ _______ _______ _____ _____    ______ ____
ROOT
ATOM      1  C   UNL     1       1.688  -6.085   5.890  0.00  0.00    +0.022 A 
ATOM      2  C   UNL     1       1.046  -6.442   7.034  0.00  0.00    +0.044 A 
ATOM      3  C   UNL     1       1.779  -6.921   8.132  0.00  0.00    +0.079 A 
ATOM      4  C   UNL     1       3.181  -6.991   7.939  0.00  0.00    +0.044 A 
ATOM      5  S   UNL     1       3.400  -6.409   6.277  0.00  0.00    -0.086 S 
ATOM      6  C   UNL     1       4.030  -7.438   8.920  0.00  0.00    +0.004 A 
ATOM      7  C   UNL     1       3.470  -7.833  10.144  0.00  0.00    +0.076 A 
ATOM      8  C   UNL     1       2.079  -7.747  10.293  0.00  0.00    +0.130 A 
ATOM      9  N   UNL     1       1.304  -7.317   9.336  0.00  0.00    -0.253 NA
ENDROOT
BRANCH   1  13
ATOM     10  C   UNL     1       0.027  -4.587   2.279  0.00  0.00    -0.064 A 
ATOM     11  C   UNL     1       1.394  -4.771   2.384  0.00  0.00    +0.002 A 
ATOM     12  C   UNL     1       1.940  -5.256   3.554  0.00  0.00    +0.009 A 
ATOM     13  C   UNL     1       1.110  -5.564   4.633  0.00  0.00    -0.011 A 
ATOM     14  C   UNL     1      -0.269  -5.377   4.520  0.00  0.00    +0.009 A 
ATOM     15  C   UNL     1      -0.801  -4.885   3.346  0.00  0.00    +0.002 A 
BRANCH  10  16
ATOM     16  C   UNL     1      -0.562  -4.056   0.998  0.00  0.00    -0.043 C 
BRANCH  16  21
ATOM     17  C   UNL     1      -0.018   1.465   0.010  0.00  0.00    +0.104 C 
ATOM     18  N   UNL     1       0.002  -0.004   0.002  0.00  0.00    -0.309 NA
ATOM     19  C   UNL     1      -1.361  -0.549  -0.076  0.00  0.00    +0.065 C 
ATOM     20  C   UNL     1      -1.293  -2.076  -0.143  0.00  0.00    -0.063 C 
ATOM     21  N   UNL     1      -0.611  -2.589   1.053  0.00  0.00    +0.384 N 
ATOM     22  C   UNL     1       0.757  -2.055   1.104  0.00  0.00    -0.063 C 
ATOM     23  C   UNL     1       0.707  -0.528   1.181  0.00  0.00    +0.065 C 
ATOM     24  H   UNL     1      -1.115  -2.300   1.878  0.00  0.00    -0.081 HD
ENDBRANCH  16  21
ENDBRANCH  10  16
ENDBRANCH   1  13
BRANCH   7  25
ATOM     25  C   UNL     1       4.296  -8.310  11.212  0.00  0.00    +0.101 C 
ATOM     26  N   UNL     1       4.952  -8.689  12.059  0.00  0.00    -0.191 NA
ENDBRANCH   7  25
BRANCH   6  27
ATOM     27  C   UNL     1       5.518  -7.504   8.690  0.00  0.00    +0.139 C 
BRANCH  27  28
ATOM     28  N   UNL     1       6.131  -6.235   9.090  0.00  0.00    -0.339 N 
ATOM     29  H   UNL     1       5.578  -5.519   9.440  0.00  0.00    +0.146 HD
BRANCH  28  30
ATOM     30  C   UNL     1       7.512  -6.056   8.967  0.00  0.00    +0.046 A 
ATOM     31  C   UNL     1       8.303  -7.079   8.461  0.00  0.00    +0.026 A 
ATOM     32  C   UNL     1       9.668  -6.900   8.340  0.00  0.00    +0.022 A 
ATOM     33  C   UNL     1      10.247  -5.703   8.724  0.00  0.00    +0.042 A 
ATOM     34  C   UNL     1       9.461  -4.682   9.230  0.00  0.00    +0.041 A 
ATOM     35  C   UNL     1       8.095  -4.853   9.347  0.00  0.00    +0.063 A 
ATOM     36 CL   UNL     1       7.108  -3.569   9.974  0.00  0.00    -0.082 Cl
ATOM     37 CL   UNL     1      11.962  -5.482   8.572  0.00  0.00    -0.083 Cl
ENDBRANCH  28  30
ENDBRANCH  27  28
ENDBRANCH   6  27
TORSDOF 7
