REMARK  Name = CHEMBL216693
REMARK  9 active torsions:
REMARK  status: ('A' for Active; 'I' for Inactive)
REMARK    1  A    between atoms: C_1  and  N_2
REMARK    2  A    between atoms: N_5  and  C_8
REMARK    3  A    between atoms: C_8  and  C_9
REMARK    4  A    between atoms: C_9  and  C_10
REMARK    5  A    between atoms: C_10  and  O_11
REMARK    6  A    between atoms: O_11  and  C_12
REMARK    7  A    between atoms: C_16  and  O_18
REMARK    8  A    between atoms: O_18  and  C_19
REMARK    9  A    between atoms: N_29  and  C_30
REMARK                            x       y       z     vdW  Elec       q    Type
REMARK                         _______ _______ _______ _____ _____    ______ ____
ROOT
ATOM      1  C   UNL     1       1.870  -7.847   3.808  0.00  0.00    +0.126 A 
ATOM      2  C   UNL     1       2.189  -8.551   2.664  0.00  0.00    +0.074 A 
ATOM      3  C   UNL     1       2.182  -9.949   2.685  0.00  0.00    +0.083 A 
ATOM      4  C   UNL     1       1.846 -10.627   3.884  0.00  0.00    +0.082 A 
ATOM      5  C   UNL     1       1.525  -9.891   5.036  0.00  0.00    +0.137 A 
ATOM      6  C   UNL     1       1.545  -8.514   4.990  0.00  0.00    +0.092 A 
ATOM      7  C   UNL     1       1.848 -12.040   3.874  0.00  0.00    +0.138 A 
ATOM      8  N   UNL     1       2.164 -12.660   2.743  0.00  0.00    -0.220 NA
ATOM      9  C   UNL     1       2.471 -11.986   1.647  0.00  0.00    +0.223 A 
ATOM     10  N   UNL     1       2.486 -10.675   1.597  0.00  0.00    -0.235 NA
ATOM     11  N   UNL     1       1.530 -12.756   5.009  0.00  0.00    -0.295 N 
ATOM     12  H   UNL     1       1.220 -12.293   5.804  0.00  0.00    +0.154 HD
ENDROOT
BRANCH  11  13
ATOM     13  C   UNL     1       1.655 -14.151   5.015  0.00  0.00    +0.097 A 
ATOM     14  C   UNL     1       0.942 -14.918   4.102  0.00  0.00    +0.066 A 
ATOM     15  C   UNL     1       1.066 -16.294   4.108  0.00  0.00    +0.025 A 
ATOM     16  C   UNL     1       1.899 -16.914   5.022  0.00  0.00    +0.051 A 
ATOM     17  C   UNL     1       2.614 -16.157   5.937  0.00  0.00    +0.168 A 
ATOM     18  C   UNL     1       2.497 -14.771   5.932  0.00  0.00    +0.189 A 
ATOM     19  O   UNL     1       3.297 -14.261   6.915  0.00  0.00    -0.451 OA
ATOM     20  C   UNL     1       3.594 -15.372   7.783  0.00  0.00    +0.466 C 
ATOM     21  O   UNL     1       3.486 -16.518   6.924  0.00  0.00    -0.453 OA
ATOM     22 CL   UNL     1      -0.104 -14.146   2.952  0.00  0.00    -0.081 Cl
ENDBRANCH  11  13
BRANCH   1  23
ATOM     23  O   UNL     1       1.879  -6.490   3.784  0.00  0.00    -0.492 OA
BRANCH  23  24
ATOM     24  C   UNL     1       2.220  -5.864   2.546  0.00  0.00    +0.227 C 
BRANCH  24  25
ATOM     25  C   UNL     1       2.176  -4.344   2.713  0.00  0.00    +0.022 C 
BRANCH  25  26
ATOM     26  C   UNL     1       2.542  -3.675   1.386  0.00  0.00    -0.075 C 
BRANCH  26  31
ATOM     27  C   UNL     1       3.701   1.838   1.518  0.00  0.00    +0.104 C 
ATOM     28  N   UNL     1       3.691   0.376   1.376  0.00  0.00    -0.309 NA
ATOM     29  C   UNL     1       2.671  -0.053   0.409  0.00  0.00    +0.065 C 
ATOM     30  C   UNL     1       2.733  -1.573   0.246  0.00  0.00    -0.063 C 
ATOM     31  N   UNL     1       2.500  -2.215   1.547  0.00  0.00    +0.381 N 
ATOM     32  C   UNL     1       3.541  -1.797   2.495  0.00  0.00    -0.063 C 
ATOM     33  C   UNL     1       3.485  -0.278   2.676  0.00  0.00    +0.065 C 
ATOM     34  H   UNL     1       1.595  -1.942   1.899  0.00  0.00    -0.082 HD
ENDBRANCH  26  31
ENDBRANCH  25  26
ENDBRANCH  24  25
ENDBRANCH  23  24
ENDBRANCH   1  23
BRANCH   5  35
ATOM     35  O   UNL     1       1.201 -10.532   6.188  0.00  0.00    -0.488 OA
BRANCH  35  36
ATOM     36  C   UNL     1       0.965  -9.718   7.339  0.00  0.00    +0.178 C 
ATOM     37  C   UNL     1       2.300  -9.374   8.006  0.00  0.00    +0.072 C 
ATOM     38  C   UNL     1       2.032  -8.569   9.280  0.00  0.00    +0.163 C 
ATOM     39  O   UNL     1       1.188  -9.324  10.151  0.00  0.00    -0.380 OA
ATOM     40  C   UNL     1      -0.093  -9.635   9.598  0.00  0.00    +0.163 C 
ATOM     41  C   UNL     1       0.090 -10.483   8.337  0.00  0.00    +0.072 C 
ENDBRANCH  35  36
ENDBRANCH   5  35
TORSDOF 8
