REMARK  Name = CHEMBL447107
REMARK  8 active torsions:
REMARK  status: ('A' for Active; 'I' for Inactive)
REMARK    1  A    between atoms: C_1  and  C_2
REMARK    2  A    between atoms: C_7  and  N_8
REMARK    3  A    between atoms: C_20  and  N_24
REMARK    4  A    between atoms: N_24  and  C_25
REMARK    5  A    between atoms: C_29  and  C_31
REMARK    6  A    between atoms: N_35  and  C_38
REMARK    7  A    between atoms: C_38  and  C_39
REMARK    8  A    between atoms: C_39  and  O_40
REMARK                            x       y       z     vdW  Elec       q    Type
REMARK                         _______ _______ _______ _____ _____    ______ ____
ROOT
ATOM      1  N   UNL     1      -2.422   0.089   5.061  0.00  0.00    -0.283 N 
ATOM      2  C   UNL     1      -1.293  -0.352   4.402  0.00  0.00    +0.207 A 
ATOM      3  N   UNL     1      -1.167  -1.520   3.825  0.00  0.00    -0.214 NA
ATOM      4  C   UNL     1       0.070  -1.627   3.271  0.00  0.00    +0.091 A 
ATOM      5  C   UNL     1       0.716  -2.636   2.553  0.00  0.00    +0.030 A 
ATOM      6  C   UNL     1       2.006  -2.444   2.112  0.00  0.00    +0.002 A 
ATOM      7  C   UNL     1       2.670  -1.255   2.375  0.00  0.00    +0.002 A 
ATOM      8  C   UNL     1       2.046  -0.248   3.083  0.00  0.00    +0.028 A 
ATOM      9  C   UNL     1       0.748  -0.425   3.535  0.00  0.00    +0.077 A 
ATOM     10  N   UNL     1      -0.139   0.369   4.248  0.00  0.00    -0.264 N 
ATOM     11  C   UNL     1       0.101   1.658   4.722  0.00  0.00    +0.145 A 
ATOM     12  C   UNL     1       0.675   2.617   3.895  0.00  0.00    +0.090 A 
ATOM     13  C   UNL     1       0.895   3.890   4.416  0.00  0.00    +0.129 A 
ATOM     14  N   UNL     1       0.549   4.140   5.677  0.00  0.00    -0.220 NA
ATOM     15  C   UNL     1       0.007   3.203   6.427  0.00  0.00    +0.225 A 
ATOM     16  N   UNL     1      -0.221   1.989   5.970  0.00  0.00    -0.218 NA
ATOM     17  H   UNL     1      -2.458   0.994   5.409  0.00  0.00    +0.155 HD
ENDROOT
BRANCH   1  24
ATOM     18  C   UNL     1      -3.302  -0.465   7.710  0.00  0.00    +0.046 C 
ATOM     19  C   UNL     1      -3.976  -1.066   6.504  0.00  0.00    -0.028 A 
ATOM     20  C   UNL     1      -5.059  -1.909   6.665  0.00  0.00    +0.005 A 
ATOM     21  C   UNL     1      -5.679  -2.461   5.560  0.00  0.00    +0.002 A 
ATOM     22  C   UNL     1      -5.218  -2.172   4.288  0.00  0.00    +0.022 A 
ATOM     23  C   UNL     1      -4.136  -1.329   4.119  0.00  0.00    +0.062 A 
ATOM     24  C   UNL     1      -3.514  -0.769   5.229  0.00  0.00    +0.055 A 
ATOM     25 CL   UNL     1      -3.558  -0.966   2.523  0.00  0.00    -0.082 Cl
ENDBRANCH   1  24
BRANCH  13  26
ATOM     26  N   UNL     1       1.466   4.883   3.631  0.00  0.00    -0.284 N 
ATOM     27  H   UNL     1       1.625   4.724   2.688  0.00  0.00    +0.155 HD
BRANCH  26  28
ATOM     28  C   UNL     1       1.809   6.103   4.197  0.00  0.00    +0.129 A 
ATOM     29  C   UNL     1       1.906   6.238   5.578  0.00  0.00    +0.087 A 
ATOM     30  C   UNL     1       2.254   7.482   6.097  0.00  0.00    +0.127 A 
ATOM     31  N   UNL     1       2.479   8.492   5.258  0.00  0.00    -0.218 NA
ATOM     32  C   UNL     1       2.376   8.323   3.955  0.00  0.00    +0.130 A 
ATOM     33  N   UNL     1       2.055   7.161   3.426  0.00  0.00    -0.217 NA
ATOM     34  C   UNL     1       2.640   9.494   3.043  0.00  0.00    +0.088 C 
ATOM     35  N   UNL     1       2.364   7.668   7.466  0.00  0.00    -0.313 N 
ATOM     36  C   UNL     1       2.514   9.016   8.035  0.00  0.00    +0.122 C 
ATOM     37  C   UNL     1       1.467   9.198   9.139  0.00  0.00    +0.103 C 
ATOM     38  N   UNL     1       1.583   8.099  10.106  0.00  0.00    -0.297 NA
ATOM     39  C   UNL     1       1.293   6.803   9.478  0.00  0.00    +0.103 C 
ATOM     40  C   UNL     1       2.327   6.523   8.389  0.00  0.00    +0.122 C 
BRANCH  38  41
ATOM     41  C   UNL     1       0.715   8.326  11.269  0.00  0.00    +0.112 C 
BRANCH  41  42
ATOM     42  C   UNL     1       1.138   7.400  12.411  0.00  0.00    +0.171 C 
BRANCH  42  43
ATOM     43  O   UNL     1       2.452   7.753  12.848  0.00  0.00    -0.394 OA
ATOM     44  H   UNL     1       2.816   7.159  13.518  0.00  0.00    +0.209 HD
ENDBRANCH  42  43
ENDBRANCH  41  42
ENDBRANCH  38  41
ENDBRANCH  26  28
ENDBRANCH  13  26
TORSDOF 6
