REMARK  Name = CHEMBL199016
REMARK  11 active torsions:
REMARK  status: ('A' for Active; 'I' for Inactive)
REMARK    1  A    between atoms: C_1  and  C_2
REMARK    2  A    between atoms: C_2  and  C_3
REMARK    3  A    between atoms: C_2  and  O_4
REMARK    4  A    between atoms: O_4  and  C_5
REMARK    5  A    between atoms: C_7  and  O_25
REMARK    6  A    between atoms: C_20  and  O_22
REMARK    7  A    between atoms: O_22  and  C_23
REMARK    8  A    between atoms: O_25  and  C_26
REMARK    9  A    between atoms: C_26  and  C_27
REMARK   10  A    between atoms: C_27  and  N_28
REMARK   11  A    between atoms: C_34  and  C_36
REMARK                            x       y       z     vdW  Elec       q    Type
REMARK                         _______ _______ _______ _____ _____    ______ ____
ROOT
ATOM      1  C   UNL     1       2.284  -0.651  -1.232  0.00  0.00    +0.137 A 
ATOM      2  C   UNL     1       2.911  -0.398  -0.030  0.00  0.00    +0.092 A 
ATOM      3  C   UNL     1       4.294  -0.527   0.091  0.00  0.00    +0.126 A 
ATOM      4  C   UNL     1       5.066  -0.911  -0.987  0.00  0.00    +0.074 A 
ATOM      5  C   UNL     1       4.457  -1.175  -2.217  0.00  0.00    +0.083 A 
ATOM      6  C   UNL     1       3.050  -1.049  -2.341  0.00  0.00    +0.082 A 
ATOM      7  C   UNL     1       2.463  -1.327  -3.595  0.00  0.00    +0.139 A 
ATOM      8  N   UNL     1       3.256  -1.697  -4.592  0.00  0.00    -0.220 NA
ATOM      9  C   UNL     1       4.565  -1.807  -4.430  0.00  0.00    +0.223 A 
ATOM     10  N   UNL     1       5.167  -1.550  -3.293  0.00  0.00    -0.235 NA
ATOM     11  N   UNL     1       1.098  -1.217  -3.778  0.00  0.00    -0.282 N 
ATOM     12  C   UNL     1       0.526  -1.607  -4.981  0.00  0.00    +0.149 A 
ATOM     13  C   UNL     1      -0.853  -1.495  -5.180  0.00  0.00    +0.099 A 
ATOM     14  C   UNL     1      -1.377  -1.896  -6.394  0.00  0.00    +0.139 A 
ATOM     15  N   UNL     1      -0.563  -2.371  -7.326  0.00  0.00    -0.202 NA
ATOM     16  C   UNL     1       0.738  -2.465  -7.109  0.00  0.00    +0.319 A 
ATOM     17  N   UNL     1       1.281  -2.087  -5.963  0.00  0.00    -0.178 NA
ATOM     18 CL   UNL     1      -1.882  -0.868  -3.931  0.00  0.00    -0.078 Cl
ATOM     19  H   UNL     1       0.540  -0.868  -3.066  0.00  0.00    +0.155 HD
ENDROOT
BRANCH  16  20
ATOM     20  O   UNL     1       1.536  -2.956  -8.088  0.00  0.00    -0.466 OA
ATOM     21  C   UNL     1       0.903  -3.344  -9.308  0.00  0.00    +0.280 C 
ENDBRANCH  16  20
BRANCH   1  22
ATOM     22  O   UNL     1       0.938  -0.523  -1.342  0.00  0.00    -0.488 OA
BRANCH  22  24
ATOM     23  C   UNL     1       0.289   1.497  -0.183  0.00  0.00    +0.051 C 
ATOM     24  C   UNL     1       0.237  -0.033  -0.197  0.00  0.00    +0.167 C 
ATOM     25  C   UNL     1      -1.221  -0.493  -0.255  0.00  0.00    +0.051 C 
ENDBRANCH  22  24
ENDBRANCH   1  22
BRANCH   3  26
ATOM     26  O   UNL     1       4.889  -0.272   1.284  0.00  0.00    -0.494 OA
BRANCH  26  27
ATOM     27  C   UNL     1       6.309  -0.421   1.347  0.00  0.00    +0.210 C 
BRANCH  27  28
ATOM     28  C   UNL     1       6.795  -0.093   2.760  0.00  0.00    -0.037 C 
BRANCH  28  29
ATOM     29  N   UNL     1       6.211  -1.047   3.713  0.00  0.00    +0.384 N 
ATOM     30  C   UNL     1       6.555  -0.642   5.081  0.00  0.00    -0.059 C 
ATOM     31  C   UNL     1       5.852  -1.568   6.079  0.00  0.00    +0.089 C 
ATOM     32  N   UNL     1       6.202  -2.959   5.751  0.00  0.00    -0.305 N 
ATOM     33  C   UNL     1       6.042  -3.404   4.358  0.00  0.00    +0.089 C 
ATOM     34  C   UNL     1       6.736  -2.391   3.442  0.00  0.00    -0.059 C 
ATOM     35  C   UNL     1       6.658  -3.801   6.699  0.00  0.00    +0.212 C 
ATOM     36  O   UNL     1       6.699  -3.445   7.858  0.00  0.00    -0.276 OA
ATOM     37  C   UNL     1       7.115  -5.186   6.321  0.00  0.00    +0.109 C 
ATOM     38  H   UNL     1       5.207  -1.052   3.608  0.00  0.00    -0.082 HD
ENDBRANCH  28  29
ENDBRANCH  27  28
ENDBRANCH  26  27
ENDBRANCH   3  26
TORSDOF 7
