REMARK  Name = CHEMBL417208
REMARK  7 active torsions:
REMARK  status: ('A' for Active; 'I' for Inactive)
REMARK    1  A    between atoms: C_1  and  N_2
REMARK    2  A    between atoms: N_5  and  C_8
REMARK    3  A    between atoms: C_8  and  C_9
REMARK    4  A    between atoms: C_9  and  C_10
REMARK    5  A    between atoms: C_10  and  N_11
REMARK    6  A    between atoms: C_17  and  C_32
REMARK    7  A    between atoms: N_24  and  C_25
REMARK                            x       y       z     vdW  Elec       q    Type
REMARK                         _______ _______ _______ _____ _____    ______ ____
ROOT
ATOM      1  N   UNL     1       0.457  -6.597   3.636  0.00  0.00    -0.313 N 
ATOM      2  C   UNL     1       0.564  -7.956   3.865  0.00  0.00    +0.217 A 
ATOM      3  N   UNL     1       0.219  -8.796   2.892  0.00  0.00    -0.222 NA
ATOM      4  C   UNL     1       0.299 -10.102   3.052  0.00  0.00    +0.126 A 
ATOM      5  C   UNL     1       0.762 -10.599   4.282  0.00  0.00    +0.038 A 
ATOM      6  C   UNL     1       0.877 -11.977   4.529  0.00  0.00    +0.025 A 
ATOM      7  C   UNL     1       1.343 -12.378   5.771  0.00  0.00    +0.026 A 
ATOM      8  C   UNL     1       1.682 -11.402   6.733  0.00  0.00    +0.135 A 
ATOM      9  N   UNL     1       1.566 -10.114   6.477  0.00  0.00    -0.212 NA
ATOM     10  C   UNL     1       1.122  -9.675   5.297  0.00  0.00    +0.167 A 
ATOM     11  N   UNL     1       1.010  -8.367   5.037  0.00  0.00    -0.195 NA
ATOM     12  N   UNL     1       2.147 -11.806   7.974  0.00  0.00    -0.278 N 
ATOM     13  C   UNL     1       2.482 -10.867   8.923  0.00  0.00    +0.171 C 
ATOM     14  N   UNL     1       2.923 -11.251  10.099  0.00  0.00    -0.225 NA
ATOM     15  S   UNL     1       2.320  -9.151   8.560  0.00  0.00    -0.014 SA
ATOM     16  H   UNL     1       0.707  -5.967   4.330  0.00  0.00    +0.149 HD
ATOM     17  H   UNL     1       2.237 -12.751   8.174  0.00  0.00    +0.156 HD
ENDROOT
BRANCH   7  18
ATOM     18  C   UNL     1       1.484 -13.819   6.087  0.00  0.00    +0.022 A 
ATOM     19  C   UNL     1       0.417 -14.520   6.650  0.00  0.00    +0.050 A 
ATOM     20  C   UNL     1       0.554 -15.864   6.942  0.00  0.00    +0.021 A 
ATOM     21  C   UNL     1       1.746 -16.513   6.678  0.00  0.00    +0.003 A 
ATOM     22  C   UNL     1       2.808 -15.824   6.120  0.00  0.00    +0.021 A 
ATOM     23  C   UNL     1       2.681 -14.482   5.818  0.00  0.00    +0.050 A 
ATOM     24 CL   UNL     1       4.012 -13.620   5.112  0.00  0.00    -0.083 Cl
ATOM     25 CL   UNL     1      -1.080 -13.707   6.983  0.00  0.00    -0.083 Cl
ENDBRANCH   7  18
BRANCH  14  26
ATOM     26  C   UNL     1       3.257 -10.317  11.043  0.00  0.00    +0.067 A 
ATOM     27  C   UNL     1       4.012  -9.198  10.687  0.00  0.00    +0.028 A 
ATOM     28  C   UNL     1       4.344  -8.261  11.643  0.00  0.00    +0.002 A 
ATOM     29  C   UNL     1       3.930  -8.427  12.952  0.00  0.00    +0.000 A 
ATOM     30  C   UNL     1       3.182  -9.534  13.313  0.00  0.00    +0.002 A 
ATOM     31  C   UNL     1       2.838 -10.476  12.366  0.00  0.00    +0.028 A 
ENDBRANCH  14  26
BRANCH   1  32
ATOM     32  C   UNL     1      -0.034  -6.108   2.345  0.00  0.00    +0.105 C 
BRANCH  32  33
ATOM     33  C   UNL     1      -0.055  -4.578   2.354  0.00  0.00    +0.034 C 
BRANCH  33  34
ATOM     34  C   UNL     1      -0.568  -4.068   1.006  0.00  0.00    +0.086 C 
BRANCH  34  39
ATOM     35  C   UNL     1      -0.018   1.465   0.010  0.00  0.00    +0.105 C 
ATOM     36  N   UNL     1       0.002  -0.004   0.002  0.00  0.00    -0.303 NA
ATOM     37  C   UNL     1      -1.360  -0.549  -0.079  0.00  0.00    +0.099 C 
ATOM     38  C   UNL     1      -1.292  -2.075  -0.165  0.00  0.00    +0.100 C 
ATOM     39  N   UNL     1      -0.588  -2.599   1.014  0.00  0.00    -0.300 NA
ATOM     40  C   UNL     1       0.774  -2.054   1.095  0.00  0.00    +0.100 C 
ATOM     41  C   UNL     1       0.706  -0.528   1.181  0.00  0.00    +0.099 C 
ENDBRANCH  34  39
ENDBRANCH  33  34
ENDBRANCH  32  33
ENDBRANCH   1  32
TORSDOF 6
