REMARK  Name = CHEMBL567678
REMARK  9 active torsions:
REMARK  status: ('A' for Active; 'I' for Inactive)
REMARK    1  A    between atoms: C_1  and  N_2
REMARK    2  A    between atoms: N_5  and  C_8
REMARK    3  A    between atoms: C_8  and  C_9
REMARK    4  A    between atoms: C_12  and  C_15
REMARK    5  A    between atoms: C_21  and  N_27
REMARK    6  A    between atoms: C_22  and  C_25
REMARK    7  A    between atoms: N_27  and  C_28
REMARK    8  A    between atoms: C_30  and  O_36
REMARK    9  A    between atoms: O_36  and  C_37
REMARK                            x       y       z     vdW  Elec       q    Type
REMARK                         _______ _______ _______ _____ _____    ______ ____
ROOT
ATOM      1  C   UNL     1       1.239  -3.465  10.481  0.00  0.00    +0.001 A 
ATOM      2  C   UNL     1       2.602  -3.764  10.633  0.00  0.00    +0.012 A 
ATOM      3  C   UNL     1       3.062  -5.031  10.460  0.00  0.00    +0.029 A 
ATOM      4  C   UNL     1       2.172  -6.066  10.124  0.00  0.00    +0.073 A 
ATOM      5  C   UNL     1       0.795  -5.773   9.968  0.00  0.00    +0.023 A 
ATOM      6  C   UNL     1       0.336  -4.464  10.156  0.00  0.00    +0.022 A 
ATOM      7  C   UNL     1      -0.097  -6.819   9.630  0.00  0.00    +0.060 A 
ATOM      8  C   UNL     1       0.437  -8.105   9.464  0.00  0.00    +0.091 A 
ATOM      9  C   UNL     1       1.815  -8.304   9.638  0.00  0.00    +0.132 A 
ATOM     10  N   UNL     1       2.617  -7.318   9.951  0.00  0.00    -0.254 NA
ENDROOT
BRANCH   1  14
ATOM     11  C   UNL     1      -0.143   0.470  11.025  0.00  0.00    -0.015 A 
ATOM     12  C   UNL     1       1.214   0.222  11.180  0.00  0.00    +0.008 A 
ATOM     13  C   UNL     1       1.674  -1.071  11.002  0.00  0.00    +0.029 A 
ATOM     14  C   UNL     1       0.763  -2.075  10.675  0.00  0.00    +0.071 A 
ATOM     15  N   UNL     1      -0.527  -1.795  10.535  0.00  0.00    -0.255 NA
ATOM     16  C   UNL     1      -0.991  -0.574  10.705  0.00  0.00    +0.116 A 
BRANCH  11  17
ATOM     17  C   UNL     1      -0.687   1.863  11.209  0.00  0.00    +0.121 C 
BRANCH  17  22
ATOM     18  C   UNL     1      -1.431   3.606  16.515  0.00  0.00    -0.096 C 
ATOM     19  N   UNL     1      -1.030   3.454  15.110  0.00  0.00    +0.379 N 
ATOM     20  C   UNL     1      -2.226   3.453  14.258  0.00  0.00    -0.064 C 
ATOM     21  C   UNL     1      -1.808   3.313  12.792  0.00  0.00    +0.066 C 
ATOM     22  N   UNL     1      -1.058   2.062  12.617  0.00  0.00    -0.302 NA
ATOM     23  C   UNL     1       0.129   2.038  13.483  0.00  0.00    +0.066 C 
ATOM     24  C   UNL     1      -0.305   2.188  14.943  0.00  0.00    -0.064 C 
ATOM     25  H   UNL     1      -0.431   4.222  14.847  0.00  0.00    -0.082 HD
ENDBRANCH  17  22
ENDBRANCH  11  17
ENDBRANCH   1  14
BRANCH   8  26
ATOM     26  C   UNL     1      -0.415  -9.204   9.122  0.00  0.00    +0.103 C 
ATOM     27  N   UNL     1      -1.091 -10.076   8.850  0.00  0.00    -0.191 NA
ENDBRANCH   8  26
BRANCH   7  28
ATOM     28  N   UNL     1      -1.446  -6.580   9.469  0.00  0.00    -0.312 N 
ATOM     29  H   UNL     1      -1.812  -6.443   8.581  0.00  0.00    +0.152 HD
BRANCH  28  30
ATOM     30  C   UNL     1      -2.287  -6.537  10.585  0.00  0.00    +0.053 A 
ATOM     31  C   UNL     1      -1.749  -6.615  11.863  0.00  0.00    +0.071 A 
ATOM     32  C   UNL     1      -2.585  -6.571  12.967  0.00  0.00    +0.140 A 
ATOM     33  C   UNL     1      -3.958  -6.450  12.795  0.00  0.00    +0.084 A 
ATOM     34  C   UNL     1      -4.492  -6.373  11.522  0.00  0.00    +0.045 A 
ATOM     35  C   UNL     1      -3.661  -6.411  10.417  0.00  0.00    +0.064 A 
ATOM     36 CL   UNL     1      -4.334  -6.307   8.821  0.00  0.00    -0.082 Cl
ATOM     37 CL   UNL     1      -5.004  -6.395  14.179  0.00  0.00    -0.080 Cl
BRANCH  32  38
ATOM     38  O   UNL     1      -2.062  -6.647  14.220  0.00  0.00    -0.494 OA
ATOM     39  C   UNL     1      -0.637  -6.650  14.328  0.00  0.00    +0.277 C 
ENDBRANCH  32  38
ENDBRANCH  28  30
ENDBRANCH   7  28
TORSDOF 7
