REMARK  Name = CHEMBL216105
REMARK  7 active torsions:
REMARK  status: ('A' for Active; 'I' for Inactive)
REMARK    1  A    between atoms: C_1  and  N_2
REMARK    2  A    between atoms: C_5  and  C_8
REMARK    3  A    between atoms: C_8  and  O_9
REMARK    4  A    between atoms: O_9  and  C_10
REMARK    5  A    between atoms: C_14  and  O_16
REMARK    6  A    between atoms: O_16  and  C_17
REMARK    7  A    between atoms: N_27  and  C_28
REMARK                            x       y       z     vdW  Elec       q    Type
REMARK                         _______ _______ _______ _____ _____    ______ ____
ROOT
ATOM      1  C   UNL     1       1.347  -5.873   2.439  0.00  0.00    +0.126 A 
ATOM      2  C   UNL     1       1.654  -6.518   1.258  0.00  0.00    +0.074 A 
ATOM      3  C   UNL     1       1.681  -7.916   1.219  0.00  0.00    +0.083 A 
ATOM      4  C   UNL     1       1.394  -8.653   2.395  0.00  0.00    +0.082 A 
ATOM      5  C   UNL     1       1.084  -7.975   3.586  0.00  0.00    +0.137 A 
ATOM      6  C   UNL     1       1.069  -6.597   3.598  0.00  0.00    +0.092 A 
ATOM      7  C   UNL     1       1.430 -10.063   2.324  0.00  0.00    +0.138 A 
ATOM      8  N   UNL     1       1.732 -10.627   1.161  0.00  0.00    -0.220 NA
ATOM      9  C   UNL     1       1.994  -9.899   0.087  0.00  0.00    +0.223 A 
ATOM     10  N   UNL     1       1.975  -8.587   0.093  0.00  0.00    -0.235 NA
ATOM     11  N   UNL     1       1.160 -10.835   3.435  0.00  0.00    -0.295 N 
ATOM     12  H   UNL     1       0.859 -10.415   4.256  0.00  0.00    +0.154 HD
ENDROOT
BRANCH  11  13
ATOM     13  C   UNL     1       1.319 -12.226   3.378  0.00  0.00    +0.097 A 
ATOM     14  C   UNL     1       0.602 -12.970   2.450  0.00  0.00    +0.066 A 
ATOM     15  C   UNL     1       0.760 -14.343   2.394  0.00  0.00    +0.025 A 
ATOM     16  C   UNL     1       1.631 -14.979   3.259  0.00  0.00    +0.051 A 
ATOM     17  C   UNL     1       2.350 -14.243   4.189  0.00  0.00    +0.168 A 
ATOM     18  C   UNL     1       2.200 -12.862   4.247  0.00  0.00    +0.189 A 
ATOM     19  O   UNL     1       3.012 -12.374   5.230  0.00  0.00    -0.451 OA
ATOM     20  C   UNL     1       3.359 -13.512   6.041  0.00  0.00    +0.466 C 
ATOM     21  O   UNL     1       3.257 -14.624   5.136  0.00  0.00    -0.453 OA
ATOM     22 CL   UNL     1      -0.493 -12.178   1.361  0.00  0.00    -0.081 Cl
ENDBRANCH  11  13
BRANCH   1  23
ATOM     23  O   UNL     1       1.322  -4.516   2.474  0.00  0.00    -0.492 OA
BRANCH  23  24
ATOM     24  C   UNL     1       1.615  -3.830   1.255  0.00  0.00    +0.232 C 
BRANCH  24  29
ATOM     25  C   UNL     1       2.873   1.728   1.501  0.00  0.00    -0.096 C 
ATOM     26  N   UNL     1       2.827   0.270   1.323  0.00  0.00    +0.378 N 
ATOM     27  C   UNL     1       1.731  -0.076   0.410  0.00  0.00    -0.079 C 
ATOM     28  C   UNL     1       1.729  -1.585   0.158  0.00  0.00    -0.012 C 
ATOM     29  C   UNL     1       1.538  -2.319   1.488  0.00  0.00    +0.023 C 
ATOM     30  C   UNL     1       2.645  -1.894   2.458  0.00  0.00    -0.012 C 
ATOM     31  C   UNL     1       2.612  -0.373   2.625  0.00  0.00    -0.079 C 
ATOM     32  H   UNL     1       3.701  -0.048   0.932  0.00  0.00    -0.082 HD
ENDBRANCH  24  29
ENDBRANCH  23  24
ENDBRANCH   1  23
BRANCH   5  33
ATOM     33  O   UNL     1       0.807  -8.672   4.717  0.00  0.00    -0.488 OA
BRANCH  33  34
ATOM     34  C   UNL     1       0.580  -7.914   5.907  0.00  0.00    +0.178 C 
ATOM     35  C   UNL     1       1.923  -7.564   6.555  0.00  0.00    +0.072 C 
ATOM     36  C   UNL     1       1.668  -6.821   7.869  0.00  0.00    +0.163 C 
ATOM     37  O   UNL     1       0.866  -7.635   8.727  0.00  0.00    -0.380 OA
ATOM     38  C   UNL     1      -0.420  -7.955   8.193  0.00  0.00    +0.163 C 
ATOM     39  C   UNL     1      -0.249  -8.743   6.892  0.00  0.00    +0.072 C 
ENDBRANCH  33  34
ENDBRANCH   5  33
TORSDOF 6
