REMARK  Name = CHEMBL432708
REMARK  9 active torsions:
REMARK  status: ('A' for Active; 'I' for Inactive)
REMARK    1  A    between atoms: C_1  and  C_2
REMARK    2  A    between atoms: C_2  and  C_3
REMARK    3  A    between atoms: C_2  and  C_4
REMARK    4  A    between atoms: C_2  and  N_5
REMARK    5  A    between atoms: C_10  and  C_29
REMARK    6  A    between atoms: N_19  and  C_20
REMARK    7  A    between atoms: C_20  and  C_21
REMARK    8  A    between atoms: C_21  and  C_22
REMARK    9  A    between atoms: C_22  and  N_23
REMARK                            x       y       z     vdW  Elec       q    Type
REMARK                         _______ _______ _______ _____ _____    ______ ____
ROOT
ATOM      1  N   UNL     1       0.688  -0.476  -1.203  0.00  0.00    -0.294 N 
ATOM      2  C   UNL     1       1.972  -0.132  -1.427  0.00  0.00    +0.305 C 
ATOM      3  O   UNL     1       2.560   0.570  -0.629  0.00  0.00    -0.252 OA
ATOM      4  N   UNL     1       2.602  -0.567  -2.536  0.00  0.00    -0.254 N 
ATOM      5  C   UNL     1       3.924  -0.212  -2.766  0.00  0.00    +0.136 A 
ATOM      6  C   UNL     1       4.567  -0.671  -3.935  0.00  0.00    +0.026 A 
ATOM      7  C   UNL     1       5.887  -0.319  -4.169  0.00  0.00    +0.025 A 
ATOM      8  C   UNL     1       6.531   0.489  -3.218  0.00  0.00    +0.038 A 
ATOM      9  C   UNL     1       7.868   0.896  -3.373  0.00  0.00    +0.126 A 
ATOM     10  N   UNL     1       8.406   1.655  -2.440  0.00  0.00    -0.222 NA
ATOM     11  C   UNL     1       7.711   2.035  -1.370  0.00  0.00    +0.217 A 
ATOM     12  N   UNL     1       6.455   1.684  -1.173  0.00  0.00    -0.195 NA
ATOM     13  C   UNL     1       5.820   0.913  -2.066  0.00  0.00    +0.167 A 
ATOM     14  N   UNL     1       4.548   0.549  -1.891  0.00  0.00    -0.212 NA
ATOM     15  N   UNL     1       8.332   2.832  -0.426  0.00  0.00    -0.313 N 
ATOM     16  H   UNL     1       0.218  -1.037  -1.840  0.00  0.00    +0.151 HD
ATOM     17  H   UNL     1       2.132  -1.127  -3.173  0.00  0.00    +0.158 HD
ATOM     18  H   UNL     1       7.844   3.120   0.361  0.00  0.00    +0.149 HD
ENDROOT
BRANCH   6  19
ATOM     19  C   UNL     1       3.838  -1.524  -4.905  0.00  0.00    +0.022 A 
ATOM     20  C   UNL     1       3.130  -0.941  -5.956  0.00  0.00    +0.050 A 
ATOM     21  C   UNL     1       2.453  -1.740  -6.856  0.00  0.00    +0.021 A 
ATOM     22  C   UNL     1       2.476  -3.116  -6.716  0.00  0.00    +0.003 A 
ATOM     23  C   UNL     1       3.176  -3.700  -5.676  0.00  0.00    +0.021 A 
ATOM     24  C   UNL     1       3.862  -2.912  -4.773  0.00  0.00    +0.050 A 
ATOM     25 CL   UNL     1       4.745  -3.648  -3.472  0.00  0.00    -0.083 Cl
ATOM     26 CL   UNL     1       3.100   0.786  -6.132  0.00  0.00    -0.083 Cl
ENDBRANCH   6  19
BRANCH   1  28
ATOM     27  C   UNL     1      -0.019   1.526   0.010  0.00  0.00    +0.031 C 
ATOM     28  C   UNL     1       0.002  -0.004   0.002  0.00  0.00    +0.028 C 
ATOM     29  C   UNL     1       0.742  -0.511   1.242  0.00  0.00    +0.031 C 
ATOM     30  C   UNL     1      -1.433  -0.534   0.013  0.00  0.00    +0.031 C 
ENDBRANCH   1  28
BRANCH  15  31
ATOM     31  C   UNL     1       9.726   3.240  -0.614  0.00  0.00    +0.102 C 
BRANCH  31  32
ATOM     32  C   UNL     1      10.166   4.109   0.565  0.00  0.00    +0.000 C 
BRANCH  32  33
ATOM     33  C   UNL     1      11.623   4.535   0.368  0.00  0.00    -0.077 C 
BRANCH  33  34
ATOM     34  N   UNL     1      12.046   5.370   1.501  0.00  0.00    +0.383 N 
ATOM     35  C   UNL     1      11.273   6.620   1.503  0.00  0.00    -0.050 C 
ATOM     36  C   UNL     1      11.716   7.489   2.684  0.00  0.00    +0.141 C 
ATOM     37  O   UNL     1      13.120   7.739   2.584  0.00  0.00    -0.383 OA
ATOM     38  C   UNL     1      13.915   6.550   2.554  0.00  0.00    +0.141 C 
ATOM     39  C   UNL     1      13.476   5.681   1.373  0.00  0.00    -0.050 C 
ATOM     40  H   UNL     1      11.885   4.873   2.364  0.00  0.00    -0.082 HD
ENDBRANCH  33  34
ENDBRANCH  32  33
ENDBRANCH  31  32
ENDBRANCH  15  31
TORSDOF 6
