REMARK  Name = CHEMBL194352
REMARK  15 active torsions:
REMARK  status: ('A' for Active; 'I' for Inactive)
REMARK    1  A    between atoms: C_1  and  O_2
REMARK    2  A    between atoms: O_2  and  C_3
REMARK    3  A    between atoms: C_12  and  O_13
REMARK    4  A    between atoms: O_13  and  C_14
REMARK    5  A    between atoms: C_14  and  C_15
REMARK    6  A    between atoms: C_15  and  N_16
REMARK    7  A    between atoms: C_22  and  N_28
REMARK    8  A    between atoms: C_23  and  C_26
REMARK    9  A    between atoms: N_28  and  C_29
REMARK   10  A    between atoms: C_31  and  O_39
REMARK   11  A    between atoms: C_32  and  O_37
REMARK   12  A    between atoms: C_33  and  O_35
REMARK   13  A    between atoms: O_35  and  C_36
REMARK   14  A    between atoms: O_37  and  C_38
REMARK   15  A    between atoms: O_39  and  C_40
REMARK                            x       y       z     vdW  Elec       q    Type
REMARK                         _______ _______ _______ _____ _____    ______ ____
ROOT
ATOM      1  C   UNL     1      -5.847   0.810  -5.206  0.00  0.00    +0.162 A 
ATOM      2  C   UNL     1      -6.136   1.212  -3.937  0.00  0.00    +0.058 A 
ATOM      3  C   UNL     1      -6.407   0.248  -2.945  0.00  0.00    -0.012 A 
ATOM      4  C   UNL     1      -6.707   0.628  -1.636  0.00  0.00    +0.037 A 
ATOM      5  C   UNL     1      -6.971  -0.346  -0.677  0.00  0.00    +0.073 A 
ATOM      6  C   UNL     1      -6.934  -1.764  -1.046  0.00  0.00    +0.023 A 
ATOM      7  C   UNL     1      -6.636  -2.147  -2.349  0.00  0.00    +0.020 A 
ATOM      8  C   UNL     1      -6.371  -1.172  -3.311  0.00  0.00    -0.013 A 
ATOM      9  C   UNL     1      -6.066  -1.525  -4.642  0.00  0.00    +0.058 A 
ATOM     10  C   UNL     1      -5.818  -0.548  -5.557  0.00  0.00    +0.163 A 
ATOM     11  C   UNL     1      -7.209  -2.731  -0.044  0.00  0.00    +0.060 A 
ATOM     12  C   UNL     1      -7.501  -2.268   1.246  0.00  0.00    +0.091 A 
ATOM     13  C   UNL     1      -7.515  -0.888   1.510  0.00  0.00    +0.132 A 
ATOM     14  N   UNL     1      -7.262   0.003   0.590  0.00  0.00    -0.254 NA
ENDROOT
BRANCH   1  16
ATOM     15  C   UNL     1      -5.630   3.115  -5.746  0.00  0.00    +0.277 C 
ATOM     16  O   UNL     1      -5.587   1.747  -6.155  0.00  0.00    -0.491 OA
ENDBRANCH   1  16
BRANCH  12  17
ATOM     17  C   UNL     1      -7.787  -3.201   2.295  0.00  0.00    +0.103 C 
ATOM     18  N   UNL     1      -8.013  -3.941   3.126  0.00  0.00    -0.191 NA
ENDBRANCH  12  17
BRANCH  11  19
ATOM     19  N   UNL     1      -7.190  -4.079  -0.330  0.00  0.00    -0.313 N 
ATOM     20  H   UNL     1      -6.362  -4.578  -0.258  0.00  0.00    +0.152 HD
BRANCH  19  21
ATOM     21  C   UNL     1      -8.366  -4.727  -0.723  0.00  0.00    +0.039 A 
ATOM     22  C   UNL     1      -9.511  -3.988  -0.987  0.00  0.00    +0.072 A 
ATOM     23  C   UNL     1     -10.676  -4.630  -1.377  0.00  0.00    +0.167 A 
ATOM     24  C   UNL     1     -10.697  -6.013  -1.504  0.00  0.00    +0.204 A 
ATOM     25  C   UNL     1      -9.551  -6.753  -1.240  0.00  0.00    +0.167 A 
ATOM     26  C   UNL     1      -8.385  -6.109  -0.855  0.00  0.00    +0.072 A 
BRANCH  25  27
ATOM     27  O   UNL     1      -9.571  -8.107  -1.363  0.00  0.00    -0.491 OA
ATOM     28  C   UNL     1      -8.357  -8.803  -1.076  0.00  0.00    +0.277 C 
ENDBRANCH  25  27
BRANCH  24  29
ATOM     29  O   UNL     1     -11.842  -6.644  -1.887  0.00  0.00    -0.488 OA
ATOM     30  C   UNL     1     -12.038  -6.839  -3.289  0.00  0.00    +0.277 C 
ENDBRANCH  24  29
BRANCH  23  31
ATOM     31  O   UNL     1     -11.797  -3.905  -1.635  0.00  0.00    -0.491 OA
ATOM     32  C   UNL     1     -11.674  -2.482  -1.598  0.00  0.00    +0.277 C 
ENDBRANCH  23  31
ENDBRANCH  19  21
ENDBRANCH  11  19
BRANCH  10  33
ATOM     33  O   UNL     1      -5.530  -0.897  -6.839  0.00  0.00    -0.487 OA
BRANCH  33  34
ATOM     34  C   UNL     1      -5.513  -2.293  -7.143  0.00  0.00    +0.244 C 
BRANCH  34  35
ATOM     35  C   UNL     1      -5.173  -2.489  -8.622  0.00  0.00    +0.125 C 
BRANCH  35  36
ATOM     36  N   UNL     1      -3.856  -1.903  -8.903  0.00  0.00    -0.295 NA
ATOM     37  C   UNL     1      -3.668  -1.696 -10.347  0.00  0.00    +0.112 C 
ATOM     38  C   UNL     1      -2.311  -1.031 -10.589  0.00  0.00    +0.175 C 
ATOM     39  O   UNL     1      -1.280  -1.841 -10.020  0.00  0.00    -0.377 OA
ATOM     40  C   UNL     1      -1.431  -2.061  -8.615  0.00  0.00    +0.175 C 
ATOM     41  C   UNL     1      -2.779  -2.737  -8.352  0.00  0.00    +0.112 C 
ENDBRANCH  35  36
ENDBRANCH  34  35
ENDBRANCH  33  34
ENDBRANCH  10  33
TORSDOF 11
