REMARK  Name = CHEMBL303529
REMARK  8 active torsions:
REMARK  status: ('A' for Active; 'I' for Inactive)
REMARK    1  A    between atoms: C_1  and  O_2
REMARK    2  A    between atoms: O_2  and  C_3
REMARK    3  A    between atoms: C_5  and  N_11
REMARK    4  A    between atoms: N_11  and  C_12
REMARK    5  A    between atoms: C_16  and  C_24
REMARK    6  A    between atoms: C_21  and  C_22
REMARK    7  A    between atoms: C_28  and  C_29
REMARK    8  A    between atoms: C_29  and  N_30
REMARK                            x       y       z     vdW  Elec       q    Type
REMARK                         _______ _______ _______ _____ _____    ______ ____
ROOT
ATOM      1  C   UNL     1       2.794   0.675  -4.221  0.00  0.00    +0.060 A 
ATOM      2  C   UNL     1       3.047   1.704  -5.158  0.00  0.00    +0.023 A 
ATOM      3  C   UNL     1       3.102   1.431  -6.533  0.00  0.00    +0.012 A 
ATOM      4  C   UNL     1       3.346   2.435  -7.417  0.00  0.00    +0.009 A 
ATOM      5  C   UNL     1       3.545   3.750  -6.967  0.00  0.00    -0.015 A 
ATOM      6  C   UNL     1       3.497   4.047  -5.616  0.00  0.00    +0.037 A 
ATOM      7  C   UNL     1       3.246   3.026  -4.690  0.00  0.00    +0.073 A 
ATOM      8  N   UNL     1       3.194   3.292  -3.377  0.00  0.00    -0.254 NA
ATOM      9  C   UNL     1       2.961   2.360  -2.488  0.00  0.00    +0.132 A 
ATOM     10  C   UNL     1       2.747   1.024  -2.862  0.00  0.00    +0.091 A 
ENDROOT
BRANCH   5  11
ATOM     11  C   UNL     1       3.810   4.829  -7.948  0.00  0.00    -0.006 A 
ATOM     12  C   UNL     1       3.015   5.971  -7.984  0.00  0.00    +0.016 A 
ATOM     13  C   UNL     1       3.288   6.933  -8.893  0.00  0.00    +0.046 A 
ATOM     14  S   UNL     1       4.701   6.256  -9.748  0.00  0.00    -0.100 S 
ATOM     15  C   UNL     1       4.846   4.729  -8.836  0.00  0.00    +0.011 A 
BRANCH  15  16
ATOM     16  C   UNL     1       5.849   3.616  -9.002  0.00  0.00    +0.127 C 
BRANCH  16  17
ATOM     17  N   UNL     1       6.977   3.832  -8.086  0.00  0.00    -0.293 NA
ATOM     18  C   UNL     1       7.812   4.955  -8.535  0.00  0.00    +0.113 C 
ATOM     19  C   UNL     1       8.938   5.183  -7.523  0.00  0.00    +0.175 C 
ATOM     20  O   UNL     1       9.689   3.975  -7.373  0.00  0.00    -0.377 OA
ATOM     21  C   UNL     1       8.907   2.861  -6.937  0.00  0.00    +0.175 C 
ATOM     22  C   UNL     1       7.781   2.609  -7.943  0.00  0.00    +0.113 C 
ENDBRANCH  16  17
ENDBRANCH  15  16
ENDBRANCH   5  11
BRANCH   1  23
ATOM     23  N   UNL     1       2.594  -0.627  -4.629  0.00  0.00    -0.312 N 
ATOM     24  H   UNL     1       2.973  -0.937  -5.467  0.00  0.00    +0.152 HD
BRANCH  23  27
ATOM     25  C   UNL     1       1.707  -3.470  -2.467  0.00  0.00    +0.140 A 
ATOM     26  C   UNL     1       2.452  -2.605  -3.254  0.00  0.00    +0.071 A 
ATOM     27  C   UNL     1       1.845  -1.502  -3.836  0.00  0.00    +0.053 A 
ATOM     28  C   UNL     1       0.490  -1.266  -3.629  0.00  0.00    +0.064 A 
ATOM     29  C   UNL     1      -0.250  -2.130  -2.844  0.00  0.00    +0.045 A 
ATOM     30  C   UNL     1       0.353  -3.234  -2.268  0.00  0.00    +0.084 A 
ATOM     31 CL   UNL     1      -0.581  -4.321  -1.289  0.00  0.00    -0.080 Cl
ATOM     32 CL   UNL     1      -0.272   0.114  -4.356  0.00  0.00    -0.082 Cl
BRANCH  25  34
ATOM     33  C   UNL     1       3.715  -4.675  -2.054  0.00  0.00    +0.277 C 
ATOM     34  O   UNL     1       2.300  -4.551  -1.896  0.00  0.00    -0.494 OA
ENDBRANCH  25  34
ENDBRANCH  23  27
ENDBRANCH   1  23
BRANCH  10  35
ATOM     35  C   UNL     1       2.489   0.027  -1.868  0.00  0.00    +0.103 C 
ATOM     36  N   UNL     1       2.285  -0.764  -1.079  0.00  0.00    -0.191 NA
ENDBRANCH  10  35
TORSDOF 7
