REMARK  Name = CHEMBL1076433
REMARK  9 active torsions:
REMARK  status: ('A' for Active; 'I' for Inactive)
REMARK    1  A    between atoms: C_1  and  C_2
REMARK    2  A    between atoms: C_2  and  N_3
REMARK    3  A    between atoms: N_6  and  C_9
REMARK    4  A    between atoms: C_9  and  C_10
REMARK    5  A    between atoms: C_13  and  C_17
REMARK    6  A    between atoms: N_19  and  C_20
REMARK    7  A    between atoms: C_23  and  C_43
REMARK    8  A    between atoms: C_24  and  N_26
REMARK    9  A    between atoms: C_38  and  N_42
REMARK                            x       y       z     vdW  Elec       q    Type
REMARK                         _______ _______ _______ _____ _____    ______ ____
ROOT
ATOM      1  C   UNL     1       0.303 -10.019  -7.686  0.00  0.00    +0.035 A 
ATOM      2  C   UNL     1       1.379 -10.584  -8.359  0.00  0.00    +0.024 A 
ATOM      3  C   UNL     1       1.232 -11.795  -9.006  0.00  0.00    +0.007 A 
ATOM      4  C   UNL     1       0.015 -12.449  -8.986  0.00  0.00    -0.029 A 
ATOM      5  C   UNL     1      -1.065 -11.889  -8.315  0.00  0.00    +0.038 A 
ATOM      6  C   UNL     1      -0.919 -10.675  -7.659  0.00  0.00    +0.047 A 
ATOM      7  C   UNL     1      -0.141 -13.771  -9.694  0.00  0.00    +0.045 C 
ENDROOT
BRANCH   5   8
ATOM      8  N   UNL     1      -2.297 -12.551  -8.296  0.00  0.00    -0.284 N 
ATOM      9  C   UNL     1      -3.424 -11.898  -7.841  0.00  0.00    +0.207 A 
ATOM     10  N   UNL     1      -3.481 -10.631  -7.519  0.00  0.00    -0.214 NA
ATOM     11  C   UNL     1      -4.740 -10.317  -7.113  0.00  0.00    +0.091 A 
ATOM     12  C   UNL     1      -5.337  -9.135  -6.669  0.00  0.00    +0.030 A 
ATOM     13  C   UNL     1      -6.669  -9.131  -6.319  0.00  0.00    +0.002 A 
ATOM     14  C   UNL     1      -7.422 -10.293  -6.404  0.00  0.00    +0.002 A 
ATOM     15  C   UNL     1      -6.846 -11.469  -6.841  0.00  0.00    +0.028 A 
ATOM     16  C   UNL     1      -5.507 -11.490  -7.197  0.00  0.00    +0.077 A 
ATOM     17  N   UNL     1      -4.653 -12.477  -7.666  0.00  0.00    -0.264 N 
ATOM     18  C   UNL     1      -4.982 -13.809  -7.911  0.00  0.00    +0.145 A 
ATOM     19  C   UNL     1      -4.176 -14.835  -7.431  0.00  0.00    +0.090 A 
ATOM     20  C   UNL     1      -4.548 -16.149  -7.702  0.00  0.00    +0.121 A 
ATOM     21  N   UNL     1      -5.655 -16.374  -8.407  0.00  0.00    -0.221 NA
ATOM     22  C   UNL     1      -6.393 -15.374  -8.844  0.00  0.00    +0.225 A 
ATOM     23  N   UNL     1      -6.076 -14.118  -8.603  0.00  0.00    -0.218 NA
ATOM     24  H   UNL     1      -2.358 -13.470  -8.602  0.00  0.00    +0.155 HD
BRANCH  20  25
ATOM     25  N   UNL     1      -3.777 -17.207  -7.246  0.00  0.00    -0.343 N 
ATOM     26  H   UNL     1      -2.972 -17.034  -6.734  0.00  0.00    +0.144 HD
ATOM     27  H   UNL     1      -4.043 -18.119  -7.440  0.00  0.00    +0.144 HD
ENDBRANCH  20  25
ENDBRANCH   5   8
BRANCH   1  30
ATOM     28  C   UNL     1       1.243  -7.837  -7.561  0.00  0.00    +0.248 C 
ATOM     29  O   UNL     1       1.880  -8.067  -8.570  0.00  0.00    -0.270 OA
ATOM     30  N   UNL     1       0.453  -8.792  -7.031  0.00  0.00    -0.281 N 
ATOM     31  H   UNL     1      -0.011  -8.629  -6.195  0.00  0.00    +0.155 HD
BRANCH  28  35
ATOM     32  C   UNL     1       1.505  -4.024  -5.706  0.00  0.00    -0.015 A 
ATOM     33  C   UNL     1       2.232  -4.284  -6.854  0.00  0.00    +0.007 A 
ATOM     34  C   UNL     1       2.151  -5.520  -7.462  0.00  0.00    +0.013 A 
ATOM     35  C   UNL     1       1.334  -6.511  -6.915  0.00  0.00    +0.038 A 
ATOM     36  C   UNL     1       0.603  -6.244  -5.756  0.00  0.00    +0.033 A 
ATOM     37  C   UNL     1       0.697  -5.004  -5.155  0.00  0.00    +0.046 A 
ATOM     38 CL   UNL     1      -0.206  -4.671  -3.710  0.00  0.00    -0.083 Cl
BRANCH  32  39
ATOM     39  C   UNL     1       1.598  -2.671  -5.049  0.00  0.00    +0.120 C 
BRANCH  39  43
ATOM     40  N   UNL     1       4.766  -1.888  -2.361  0.00  0.00    +0.381 N 
ATOM     41  C   UNL     1       3.392  -1.656  -1.895  0.00  0.00    -0.063 C 
ATOM     42  C   UNL     1       2.461  -1.517  -3.102  0.00  0.00    +0.066 C 
ATOM     43  N   UNL     1       2.523  -2.744  -3.909  0.00  0.00    -0.302 NA
ATOM     44  C   UNL     1       3.897  -3.002  -4.361  0.00  0.00    +0.066 C 
ATOM     45  C   UNL     1       4.816  -3.130  -3.144  0.00  0.00    -0.063 C 
ATOM     46  H   UNL     1       5.060  -1.114  -2.938  0.00  0.00    -0.082 HD
BRANCH  40  48
ATOM     47  C   UNL     1       5.705  -0.669  -0.456  0.00  0.00    -0.017 C 
ATOM     48  C   UNL     1       5.662  -2.004  -1.202  0.00  0.00    -0.082 C 
ENDBRANCH  40  48
ENDBRANCH  39  43
ENDBRANCH  32  39
ENDBRANCH  28  35
ENDBRANCH   1  30
TORSDOF 7
