REMARK  Name = CHEMBL47787
REMARK  11 active torsions:
REMARK  status: ('A' for Active; 'I' for Inactive)
REMARK    1  A    between atoms: C_1  and  N_2
REMARK    2  A    between atoms: N_5  and  C_8
REMARK    3  A    between atoms: C_11  and  N_14
REMARK    4  A    between atoms: C_17  and  C_19
REMARK    5  A    between atoms: C_22  and  N_27
REMARK    6  A    between atoms: C_23  and  O_25
REMARK    7  A    between atoms: O_25  and  C_26
REMARK    8  A    between atoms: C_28  and  O_30
REMARK    9  A    between atoms: O_30  and  C_31
REMARK   10  A    between atoms: C_31  and  C_32
REMARK   11  A    between atoms: C_38  and  N_42
REMARK                            x       y       z     vdW  Elec       q    Type
REMARK                         _______ _______ _______ _____ _____    ______ ____
ROOT
ATOM      1  N   UNL     1      -2.584  -8.088   2.607  0.00  0.00    -0.243 N 
ATOM      2  C   UNL     1      -2.873  -8.876   3.681  0.00  0.00    +0.164 A 
ATOM      3  C   UNL     1      -2.606 -10.204   3.298  0.00  0.00    +0.086 A 
ATOM      4  C   UNL     1      -2.135 -10.149   1.914  0.00  0.00    +0.105 A 
ATOM      5  N   UNL     1      -2.144  -8.889   1.547  0.00  0.00    -0.168 NA
ATOM      6  C   UNL     1      -2.823 -11.229   4.232  0.00  0.00    +0.131 A 
ATOM      7  N   UNL     1      -3.273 -10.898   5.439  0.00  0.00    -0.220 NA
ATOM      8  C   UNL     1      -3.511  -9.638   5.756  0.00  0.00    +0.225 A 
ATOM      9  N   UNL     1      -3.322  -8.646   4.914  0.00  0.00    -0.216 NA
ENDROOT
BRANCH   1  13
ATOM     10  C   UNL     1      -2.494  -4.087   1.129  0.00  0.00    +0.057 C 
ATOM     11  C   UNL     1      -3.856  -4.718   1.427  0.00  0.00    +0.021 C 
ATOM     12  C   UNL     1      -3.714  -6.241   1.469  0.00  0.00    +0.028 C 
ATOM     13  C   UNL     1      -2.720  -6.630   2.566  0.00  0.00    +0.110 C 
ATOM     14  C   UNL     1      -1.359  -5.999   2.268  0.00  0.00    +0.028 C 
ATOM     15  C   UNL     1      -1.501  -4.476   2.225  0.00  0.00    +0.021 C 
BRANCH  10  20
ATOM     16  C   UNL     1      -2.588   1.402  -0.140  0.00  0.00    -0.096 C 
ATOM     17  N   UNL     1      -2.432  -0.059  -0.151  0.00  0.00    +0.379 N 
ATOM     18  C   UNL     1      -3.738  -0.692   0.073  0.00  0.00    -0.064 C 
ATOM     19  C   UNL     1      -3.580  -2.214   0.044  0.00  0.00    +0.066 C 
ATOM     20  N   UNL     1      -2.631  -2.625   1.088  0.00  0.00    -0.303 NA
ATOM     21  C   UNL     1      -1.325  -1.980   0.890  0.00  0.00    +0.066 C 
ATOM     22  C   UNL     1      -1.502  -0.460   0.913  0.00  0.00    -0.064 C 
ATOM     23  H   UNL     1      -2.066  -0.351  -1.045  0.00  0.00    -0.082 HD
ENDBRANCH  10  20
ENDBRANCH   1  13
BRANCH   4  24
ATOM     24  C   UNL     1      -1.729 -11.303   1.078  0.00  0.00    +0.006 A 
ATOM     25  C   UNL     1      -2.502 -12.464   1.067  0.00  0.00    +0.012 A 
ATOM     26  C   UNL     1      -2.125 -13.538   0.289  0.00  0.00    +0.028 A 
ATOM     27  C   UNL     1      -0.974 -13.467  -0.485  0.00  0.00    +0.078 A 
ATOM     28  C   UNL     1      -0.197 -12.310  -0.477  0.00  0.00    +0.142 A 
ATOM     29  C   UNL     1      -0.577 -11.229   0.296  0.00  0.00    +0.057 A 
BRANCH  27  30
ATOM     30  N   UNL     1      -0.593 -14.561  -1.273  0.00  0.00    -0.248 N 
ATOM     31  C   UNL     1      -1.500 -15.501  -1.604  0.00  0.00    +0.405 C 
ATOM     32  O   UNL     1      -2.669 -15.349  -1.309  0.00  0.00    -0.226 OA
ATOM     33  H   UNL     1       0.323 -14.641  -1.581  0.00  0.00    +0.158 HD
BRANCH  31  34
ATOM     34  O   UNL     1      -1.110 -16.610  -2.261  0.00  0.00    -0.445 OA
BRANCH  34  35
ATOM     35  C   UNL     1      -2.124 -17.565  -2.580  0.00  0.00    +0.269 C 
BRANCH  35  36
ATOM     36  C   UNL     1      -1.506 -18.730  -3.309  0.00  0.00    -0.010 A 
ATOM     37  C   UNL     1      -1.408 -18.710  -4.688  0.00  0.00    +0.007 A 
ATOM     38  C   UNL     1      -0.841 -19.779  -5.356  0.00  0.00    +0.000 A 
ATOM     39  C   UNL     1      -0.370 -20.867  -4.646  0.00  0.00    +0.000 A 
ATOM     40  C   UNL     1      -0.467 -20.887  -3.267  0.00  0.00    +0.000 A 
ATOM     41  C   UNL     1      -1.030 -19.817  -2.598  0.00  0.00    +0.007 A 
ENDBRANCH  35  36
ENDBRANCH  34  35
ENDBRANCH  31  34
ENDBRANCH  27  30
BRANCH  28  42
ATOM     42  O   UNL     1       0.930 -12.242  -1.235  0.00  0.00    -0.493 OA
ATOM     43  C   UNL     1       1.677 -11.026  -1.179  0.00  0.00    +0.277 C 
ENDBRANCH  28  42
ENDBRANCH   4  24
BRANCH   6  44
ATOM     44  N   UNL     1      -2.576 -12.549   3.906  0.00  0.00    -0.342 N 
ATOM     45  H   UNL     1      -2.113 -12.766   3.082  0.00  0.00    +0.144 HD
ATOM     46  H   UNL     1      -2.867 -13.258   4.501  0.00  0.00    +0.144 HD
ENDBRANCH   6  44
TORSDOF 9
