REMARK  Name = CHEMBL413418
REMARK  7 active torsions:
REMARK  status: ('A' for Active; 'I' for Inactive)
REMARK    1  A    between atoms: C_1  and  N_2
REMARK    2  A    between atoms: N_5  and  C_8
REMARK    3  A    between atoms: C_8  and  C_9
REMARK    4  A    between atoms: C_12  and  C_15
REMARK    5  A    between atoms: C_20  and  O_26
REMARK    6  A    between atoms: C_21  and  C_24
REMARK    7  A    between atoms: O_26  and  C_27
REMARK                            x       y       z     vdW  Elec       q    Type
REMARK                         _______ _______ _______ _____ _____    ______ ____
ROOT
ATOM      1  C   UNL     1       1.688  -6.087   5.890  0.00  0.00    +0.022 A 
ATOM      2  C   UNL     1       1.046  -6.444   7.034  0.00  0.00    +0.044 A 
ATOM      3  C   UNL     1       1.780  -6.923   8.132  0.00  0.00    +0.082 A 
ATOM      4  C   UNL     1       3.178  -6.994   7.938  0.00  0.00    +0.082 A 
ATOM      5  S   UNL     1       3.399  -6.411   6.277  0.00  0.00    -0.083 S 
ATOM      6  C   UNL     1       4.032  -7.445   8.926  0.00  0.00    +0.163 A 
ATOM      7  C   UNL     1       3.465  -7.841  10.154  0.00  0.00    +0.113 A 
ATOM      8  C   UNL     1       2.074  -7.753  10.297  0.00  0.00    +0.134 A 
ATOM      9  N   UNL     1       1.304  -7.320   9.337  0.00  0.00    -0.253 NA
ENDROOT
BRANCH   1  13
ATOM     10  C   UNL     1       0.027  -4.587   2.279  0.00  0.00    -0.064 A 
ATOM     11  C   UNL     1       1.394  -4.771   2.384  0.00  0.00    +0.002 A 
ATOM     12  C   UNL     1       1.940  -5.257   3.554  0.00  0.00    +0.009 A 
ATOM     13  C   UNL     1       1.110  -5.564   4.633  0.00  0.00    -0.011 A 
ATOM     14  C   UNL     1      -0.269  -5.377   4.520  0.00  0.00    +0.009 A 
ATOM     15  C   UNL     1      -0.801  -4.885   3.346  0.00  0.00    +0.002 A 
BRANCH  10  16
ATOM     16  C   UNL     1      -0.562  -4.056   0.998  0.00  0.00    -0.043 C 
BRANCH  16  21
ATOM     17  C   UNL     1      -0.018   1.465   0.010  0.00  0.00    +0.104 C 
ATOM     18  N   UNL     1       0.002  -0.004   0.002  0.00  0.00    -0.309 NA
ATOM     19  C   UNL     1      -1.361  -0.549  -0.076  0.00  0.00    +0.065 C 
ATOM     20  C   UNL     1      -1.293  -2.076  -0.143  0.00  0.00    -0.063 C 
ATOM     21  N   UNL     1      -0.611  -2.589   1.053  0.00  0.00    +0.384 N 
ATOM     22  C   UNL     1       0.757  -2.055   1.104  0.00  0.00    -0.063 C 
ATOM     23  C   UNL     1       0.707  -0.528   1.181  0.00  0.00    +0.065 C 
ATOM     24  H   UNL     1      -1.115  -2.300   1.878  0.00  0.00    -0.081 HD
ENDBRANCH  16  21
ENDBRANCH  10  16
ENDBRANCH   1  13
BRANCH   7  25
ATOM     25  C   UNL     1       4.287  -8.321  11.224  0.00  0.00    +0.104 C 
ATOM     26  N   UNL     1       4.939  -8.701  12.073  0.00  0.00    -0.191 NA
ENDBRANCH   7  25
BRANCH   6  27
ATOM     27  O   UNL     1       5.370  -7.506   8.720  0.00  0.00    -0.452 OA
BRANCH  27  28
ATOM     28  C   UNL     1       6.115  -6.414   9.037  0.00  0.00    +0.147 A 
ATOM     29  C   UNL     1       5.503  -5.284   9.559  0.00  0.00    +0.049 A 
ATOM     30  C   UNL     1       6.261  -4.174   9.880  0.00  0.00    +0.023 A 
ATOM     31  C   UNL     1       7.630  -4.189   9.682  0.00  0.00    +0.043 A 
ATOM     32  C   UNL     1       8.243  -5.315   9.161  0.00  0.00    +0.043 A 
ATOM     33  C   UNL     1       7.489  -6.429   8.844  0.00  0.00    +0.085 A 
ATOM     34 CL   UNL     1       8.260  -7.844   8.197  0.00  0.00    -0.080 Cl
ATOM     35 CL   UNL     1       8.580  -2.794  10.086  0.00  0.00    -0.083 Cl
ENDBRANCH  27  28
ENDBRANCH   6  27
TORSDOF 6
