REMARK  Name = CHEMBL266188
REMARK  7 active torsions:
REMARK  status: ('A' for Active; 'I' for Inactive)
REMARK    1  A    between atoms: C_3  and  N_11
REMARK    2  A    between atoms: C_16  and  O_26
REMARK    3  A    between atoms: C_18  and  O_19
REMARK    4  A    between atoms: O_19  and  C_20
REMARK    5  A    between atoms: O_26  and  C_27
REMARK    6  A    between atoms: C_27  and  C_28
REMARK    7  A    between atoms: C_28  and  N_29
REMARK                            x       y       z     vdW  Elec       q    Type
REMARK                         _______ _______ _______ _____ _____    ______ ____
ROOT
ATOM      1  N   UNL     1       3.595   2.183   0.133  0.00  0.00    -0.296 N 
ATOM      2  C   UNL     1       3.573   3.537  -0.130  0.00  0.00    +0.138 A 
ATOM      3  C   UNL     1       4.766   4.241  -0.409  0.00  0.00    +0.082 A 
ATOM      4  C   UNL     1       4.678   5.631  -0.671  0.00  0.00    +0.083 A 
ATOM      5  C   UNL     1       5.842   6.354  -0.949  0.00  0.00    +0.074 A 
ATOM      6  C   UNL     1       7.062   5.709  -0.966  0.00  0.00    +0.126 A 
ATOM      7  C   UNL     1       7.150   4.340  -0.708  0.00  0.00    +0.092 A 
ATOM      8  C   UNL     1       6.018   3.604  -0.430  0.00  0.00    +0.137 A 
ATOM      9  N   UNL     1       3.470   6.217  -0.644  0.00  0.00    -0.235 NA
ATOM     10  C   UNL     1       2.396   5.512  -0.379  0.00  0.00    +0.223 A 
ATOM     11  N   UNL     1       2.430   4.212  -0.133  0.00  0.00    -0.220 NA
ATOM     12  H   UNL     1       4.443   1.722   0.231  0.00  0.00    +0.154 HD
ENDROOT
BRANCH   1  15
ATOM     13  C   UNL     1       0.013   1.359  -0.017  0.00  0.00    +0.006 A 
ATOM     14  C   UNL     1       1.199   2.058  -0.139  0.00  0.00    +0.027 A 
ATOM     15  C   UNL     1       2.394   1.475   0.258  0.00  0.00    +0.078 A 
ATOM     16  C   UNL     1       2.397   0.183   0.779  0.00  0.00    +0.183 A 
ATOM     17  C   UNL     1       1.204  -0.514   0.902  0.00  0.00    +0.164 A 
ATOM     18  C   UNL     1       0.013   0.077   0.501  0.00  0.00    +0.049 A 
ATOM     19  O   UNL     1       1.183  -1.774   1.416  0.00  0.00    -0.485 OA
ATOM     20  C   UNL     1       2.432  -2.473   1.460  0.00  0.00    +0.270 C 
ATOM     21  C   UNL     1       3.496  -1.521   2.023  0.00  0.00    +0.270 C 
ATOM     22  O   UNL     1       3.577  -0.380   1.161  0.00  0.00    -0.483 OA
ENDBRANCH   1  15
BRANCH   8  23
ATOM     23  O   UNL     1       6.113   2.273  -0.180  0.00  0.00    -0.488 OA
BRANCH  23  24
ATOM     24  C   UNL     1       7.428   1.719  -0.105  0.00  0.00    +0.178 C 
ATOM     25  C   UNL     1       7.888   1.300  -1.505  0.00  0.00    +0.072 C 
ATOM     26  C   UNL     1       9.263   0.636  -1.404  0.00  0.00    +0.163 C 
ATOM     27  O   UNL     1       9.187  -0.483  -0.519  0.00  0.00    -0.380 OA
ATOM     28  C   UNL     1       8.808  -0.145   0.817  0.00  0.00    +0.163 C 
ATOM     29  C   UNL     1       7.413   0.487   0.805  0.00  0.00    +0.072 C 
ENDBRANCH  23  24
ENDBRANCH   8  23
BRANCH   6  30
ATOM     30  O   UNL     1       8.190   6.414  -1.236  0.00  0.00    -0.494 OA
BRANCH  30  31
ATOM     31  C   UNL     1       8.036   7.811  -1.492  0.00  0.00    +0.210 C 
BRANCH  31  32
ATOM     32  C   UNL     1       9.406   8.432  -1.775  0.00  0.00    -0.037 C 
BRANCH  32  33
ATOM     33  N   UNL     1       9.953   7.867  -3.016  0.00  0.00    +0.382 N 
ATOM     34  C   UNL     1       9.158   8.330  -4.183  0.00  0.00    -0.079 C 
ATOM     35  C   UNL     1      10.135   8.149  -5.371  0.00  0.00    -0.020 C 
ATOM     36  C   UNL     1      11.499   8.545  -4.761  0.00  0.00    -0.020 C 
ATOM     37  C   UNL     1      11.327   8.366  -3.241  0.00  0.00    -0.079 C 
ATOM     38  H   UNL     1       9.951   6.860  -2.970  0.00  0.00    -0.082 HD
ENDBRANCH  32  33
ENDBRANCH  31  32
ENDBRANCH  30  31
ENDBRANCH   6  30
TORSDOF 7
