REMARK  Name = CHEMBL218549
REMARK  9 active torsions:
REMARK  status: ('A' for Active; 'I' for Inactive)
REMARK    1  A    between atoms: C_1  and  C_2
REMARK    2  A    between atoms: C_6  and  C_34
REMARK    3  A    between atoms: C_7  and  C_8
REMARK    4  A    between atoms: C_10  and  C_33
REMARK    5  A    between atoms: N_18  and  C_19
REMARK    6  A    between atoms: C_23  and  O_25
REMARK    7  A    between atoms: O_25  and  C_26
REMARK    8  A    between atoms: C_26  and  C_27
REMARK    9  A    between atoms: C_27  and  N_28
REMARK                            x       y       z     vdW  Elec       q    Type
REMARK                         _______ _______ _______ _____ _____    ______ ____
ROOT
ATOM      1  C   UNL     1       0.086   0.117   2.446  0.00  0.00    -0.015 A 
ATOM      2  C   UNL     1       1.050  -0.204   3.415  0.00  0.00    +0.014 A 
ATOM      3  C   UNL     1       1.034   0.388   4.638  0.00  0.00    -0.022 A 
ATOM      4  C   UNL     1       0.042   1.334   4.945  0.00  0.00    +0.097 A 
ATOM      5  C   UNL     1      -0.939   1.666   3.973  0.00  0.00    +0.112 A 
ATOM      6  C   UNL     1      -0.900   1.048   2.715  0.00  0.00    +0.040 A 
ATOM      7  N   UNL     1      -1.876   2.570   4.282  0.00  0.00    -0.144 NA
ATOM      8  N   UNL     1      -1.875   3.121   5.447  0.00  0.00    -0.112 NA
ATOM      9  C   UNL     1      -0.961   2.820   6.372  0.00  0.00    +0.240 A 
ATOM     10  N   UNL     1      -0.006   1.938   6.138  0.00  0.00    -0.211 NA
ATOM     11  N   UNL     1      -1.015   3.448   7.605  0.00  0.00    -0.282 N 
ATOM     12  C   UNL     1       2.078   0.029   5.663  0.00  0.00    +0.046 C 
ATOM     13  H   UNL     1      -0.311   3.299   8.256  0.00  0.00    +0.155 HD
ENDROOT
BRANCH   1  20
ATOM     14  C   UNL     1       0.625   1.688   0.077  0.00  0.00    +0.044 C 
ATOM     15  C   UNL     1       0.387   0.204  -0.028  0.00  0.00    -0.042 A 
ATOM     16  C   UNL     1       0.431  -0.418  -1.260  0.00  0.00    +0.004 A 
ATOM     17  C   UNL     1       0.213  -1.780  -1.358  0.00  0.00    +0.001 A 
ATOM     18  C   UNL     1      -0.049  -2.527  -0.224  0.00  0.00    +0.004 A 
ATOM     19  C   UNL     1      -0.095  -1.916   1.013  0.00  0.00    -0.042 A 
ATOM     20  C   UNL     1       0.129  -0.545   1.119  0.00  0.00    -0.012 A 
ATOM     21  C   UNL     1      -0.382  -2.731   2.248  0.00  0.00    +0.044 C 
ENDBRANCH   1  20
BRANCH  11  22
ATOM     22  C   UNL     1      -2.083   4.296   7.912  0.00  0.00    +0.037 A 
ATOM     23  C   UNL     1      -3.370   3.969   7.505  0.00  0.00    +0.023 A 
ATOM     24  C   UNL     1      -4.425   4.807   7.808  0.00  0.00    +0.005 A 
ATOM     25  C   UNL     1      -4.203   5.973   8.516  0.00  0.00    +0.046 A 
ATOM     26  C   UNL     1      -2.920   6.305   8.925  0.00  0.00    +0.122 A 
ATOM     27  C   UNL     1      -1.859   5.464   8.627  0.00  0.00    +0.069 A 
BRANCH  26  28
ATOM     28  O   UNL     1      -2.703   7.452   9.621  0.00  0.00    -0.494 OA
BRANCH  28  29
ATOM     29  C   UNL     1      -3.843   8.269   9.896  0.00  0.00    +0.210 C 
BRANCH  29  30
ATOM     30  C   UNL     1      -3.405   9.507  10.682  0.00  0.00    -0.037 C 
BRANCH  30  31
ATOM     31  N   UNL     1      -2.528  10.334   9.843  0.00  0.00    +0.382 N 
ATOM     32  C   UNL     1      -3.304  10.935   8.728  0.00  0.00    -0.079 C 
ATOM     33  C   UNL     1      -2.443  12.155   8.314  0.00  0.00    -0.020 C 
ATOM     34  C   UNL     1      -1.907  12.675   9.668  0.00  0.00    -0.020 C 
ATOM     35  C   UNL     1      -2.000  11.473  10.626  0.00  0.00    -0.079 C 
ATOM     36  H   UNL     1      -1.768   9.779   9.480  0.00  0.00    -0.082 HD
ENDBRANCH  30  31
ENDBRANCH  29  30
ENDBRANCH  28  29
ENDBRANCH  26  28
ENDBRANCH  11  22
TORSDOF 6
