REMARK  Name = CHEMBL106992
REMARK  5 active torsions:
REMARK  status: ('A' for Active; 'I' for Inactive)
REMARK    1  A    between atoms: C_1  and  N_2
REMARK    2  A    between atoms: C_5  and  N_21
REMARK    3  A    between atoms: C_10  and  C_13
REMARK    4  A    between atoms: N_21  and  C_22
REMARK    5  A    between atoms: C_25  and  N_28
REMARK                            x       y       z     vdW  Elec       q    Type
REMARK                         _______ _______ _______ _____ _____    ______ ____
ROOT
ATOM      1  C   UNL     1      -0.030   1.388   0.612  0.00  0.00    +0.152 C 
ATOM      2  N   UNL     1      -0.004  -0.039   0.281  0.00  0.00    -0.311 N 
ATOM      3  C   UNL     1      -1.185  -0.712   0.066  0.00  0.00    +0.056 A 
ATOM      4  C   UNL     1      -2.409  -0.059   0.159  0.00  0.00    +0.070 A 
ATOM      5  C   UNL     1      -3.572  -0.782  -0.067  0.00  0.00    +0.125 A 
ATOM      6  N   UNL     1      -3.534  -2.076  -0.367  0.00  0.00    -0.239 NA
ATOM      7  C   UNL     1      -2.402  -2.739  -0.466  0.00  0.00    +0.122 A 
ATOM      8  C   UNL     1      -1.181  -2.087  -0.255  0.00  0.00    +0.018 A 
ATOM      9  C   UNL     1       0.046  -2.784  -0.357  0.00  0.00    +0.025 A 
ATOM     10  C   UNL     1       1.216  -2.109  -0.141  0.00  0.00    +0.050 A 
ATOM     11  C   UNL     1       1.177  -0.681   0.182  0.00  0.00    +0.259 A 
ATOM     12  O   UNL     1       2.216  -0.072   0.369  0.00  0.00    -0.267 OA
ENDROOT
BRANCH  10  13
ATOM     13  C   UNL     1       2.514  -2.815  -0.242  0.00  0.00    +0.024 A 
ATOM     14  C   UNL     1       3.068  -3.428   0.883  0.00  0.00    +0.050 A 
ATOM     15  C   UNL     1       4.278  -4.085   0.783  0.00  0.00    +0.021 A 
ATOM     16  C   UNL     1       4.943  -4.136  -0.430  0.00  0.00    +0.003 A 
ATOM     17  C   UNL     1       4.400  -3.530  -1.549  0.00  0.00    +0.021 A 
ATOM     18  C   UNL     1       3.187  -2.876  -1.463  0.00  0.00    +0.050 A 
ATOM     19 CL   UNL     1       2.503  -2.123  -2.871  0.00  0.00    -0.083 Cl
ATOM     20 CL   UNL     1       2.236  -3.364   2.406  0.00  0.00    -0.083 Cl
ENDBRANCH  10  13
BRANCH   5  21
ATOM     21  N   UNL     1      -4.800  -0.141   0.024  0.00  0.00    -0.299 N 
ATOM     22  H   UNL     1      -4.837   0.819   0.159  0.00  0.00    +0.154 HD
BRANCH  21  23
ATOM     23  C   UNL     1      -5.982  -0.877  -0.081  0.00  0.00    +0.032 A 
ATOM     24  C   UNL     1      -7.068  -0.357  -0.774  0.00  0.00    +0.025 A 
ATOM     25  C   UNL     1      -8.235  -1.088  -0.875  0.00  0.00    +0.023 A 
ATOM     26  C   UNL     1      -8.324  -2.337  -0.287  0.00  0.00    +0.014 A 
ATOM     27  C   UNL     1      -7.246  -2.857   0.404  0.00  0.00    +0.023 A 
ATOM     28  C   UNL     1      -6.073  -2.134   0.504  0.00  0.00    +0.025 A 
BRANCH  26  29
ATOM     29  N   UNL     1      -9.508  -3.074  -0.390  0.00  0.00    -0.390 NA
ATOM     30  C   UNL     1     -10.039  -3.339   0.954  0.00  0.00    +0.113 C 
ATOM     31  C   UNL     1     -11.335  -4.145   0.838  0.00  0.00    +0.177 C 
ATOM     32  O   UNL     1     -11.073  -5.359   0.128  0.00  0.00    -0.377 OA
ATOM     33  C   UNL     1     -10.531  -5.153  -1.180  0.00  0.00    +0.177 C 
ATOM     34  C   UNL     1      -9.234  -4.348  -1.067  0.00  0.00    +0.113 C 
ATOM     35  H   UNL     1     -10.186  -2.549  -0.922  0.00  0.00    +0.127 HD
ENDBRANCH  26  29
ENDBRANCH  21  23
ENDBRANCH   5  21
TORSDOF 4
