REMARK  Name = CHEMBL425872
REMARK  7 active torsions:
REMARK  status: ('A' for Active; 'I' for Inactive)
REMARK    1  A    between atoms: C_1  and  O_2
REMARK    2  A    between atoms: O_2  and  C_3
REMARK    3  A    between atoms: C_5  and  N_11
REMARK    4  A    between atoms: N_11  and  C_12
REMARK    5  A    between atoms: C_15  and  C_24
REMARK    6  A    between atoms: C_21  and  C_22
REMARK    7  A    between atoms: C_25  and  C_26
REMARK                            x       y       z     vdW  Elec       q    Type
REMARK                         _______ _______ _______ _____ _____    ______ ____
ROOT
ATOM      1  C   UNL     1       0.727  -4.781   1.267  0.00  0.00    +0.060 A 
ATOM      2  C   UNL     1       0.407  -6.139   1.511  0.00  0.00    +0.024 A 
ATOM      3  C   UNL     1       0.750  -6.755   2.719  0.00  0.00    +0.028 A 
ATOM      4  C   UNL     1       0.420  -8.088   2.924  0.00  0.00    +0.026 A 
ATOM      5  C   UNL     1      -0.254  -8.813   1.924  0.00  0.00    +0.019 A 
ATOM      6  C   UNL     1      -0.592  -8.226   0.747  0.00  0.00    +0.029 A 
ATOM      7  C   UNL     1      -0.272  -6.877   0.510  0.00  0.00    +0.073 A 
ATOM      8  N   UNL     1      -0.604  -6.292  -0.648  0.00  0.00    -0.254 NA
ATOM      9  C   UNL     1      -0.321  -5.040  -0.901  0.00  0.00    +0.132 A 
ATOM     10  C   UNL     1       0.345  -4.231   0.034  0.00  0.00    +0.091 A 
ENDROOT
BRANCH   1  11
ATOM     11  N   UNL     1       1.386  -4.023   2.212  0.00  0.00    -0.312 N 
ATOM     12  H   UNL     1       2.355  -4.038   2.256  0.00  0.00    +0.152 HD
BRANCH  11  15
ATOM     13  C   UNL     1      -1.437  -2.335   3.860  0.00  0.00    +0.123 A 
ATOM     14  C   UNL     1      -0.718  -3.119   2.971  0.00  0.00    +0.070 A 
ATOM     15  C   UNL     1       0.659  -3.233   3.106  0.00  0.00    +0.055 A 
ATOM     16  C   UNL     1       1.313  -2.559   4.131  0.00  0.00    +0.081 A 
ATOM     17  C   UNL     1       0.592  -1.778   5.016  0.00  0.00    +0.065 A 
ATOM     18  C   UNL     1      -0.780  -1.661   4.879  0.00  0.00    +0.067 A 
ATOM     19 CL   UNL     1       1.410  -0.939   6.297  0.00  0.00    -0.082 Cl
ATOM     20 CL   UNL     1       3.035  -2.700   4.302  0.00  0.00    -0.080 Cl
BRANCH  13  22
ATOM     21  C   UNL     1      -3.462  -1.393   4.678  0.00  0.00    +0.277 C 
ATOM     22  O   UNL     1      -2.785  -2.223   3.730  0.00  0.00    -0.495 OA
ENDBRANCH  13  22
ENDBRANCH  11  15
ENDBRANCH   1  11
BRANCH  10  23
ATOM     23  C   UNL     1       0.635  -2.862  -0.269  0.00  0.00    +0.103 C 
ATOM     24  N   UNL     1       0.865  -1.776  -0.509  0.00  0.00    -0.191 NA
ENDBRANCH  10  23
BRANCH   4  25
ATOM     25  C   UNL     1       0.766  -8.728   4.157  0.00  0.00    -0.061 C 
ATOM     26  C   UNL     1       1.051  -9.253   5.168  0.00  0.00    -0.060 C 
BRANCH  26  27
ATOM     27  C   UNL     1       1.397  -9.893   6.401  0.00  0.00    +0.043 A 
ATOM     28  C   UNL     1       2.064  -9.183   7.410  0.00  0.00    +0.020 A 
ATOM     29  C   UNL     1       2.376  -9.848   8.582  0.00  0.00    +0.021 A 
ATOM     30  C   UNL     1       2.024 -11.179   8.721  0.00  0.00    +0.111 A 
ATOM     31  N   UNL     1       1.397 -11.822   7.754  0.00  0.00    -0.262 NA
ATOM     32  C   UNL     1       1.072 -11.233   6.622  0.00  0.00    +0.127 A 
ENDBRANCH  26  27
ENDBRANCH   4  25
TORSDOF 6
