REMARK  Name = CHEMBL216703
REMARK  10 active torsions:
REMARK  status: ('A' for Active; 'I' for Inactive)
REMARK    1  A    between atoms: C_1  and  O_2
REMARK    2  A    between atoms: O_2  and  C_3
REMARK    3  A    between atoms: C_7  and  N_9
REMARK    4  A    between atoms: C_14  and  O_23
REMARK    5  A    between atoms: C_16  and  O_17
REMARK    6  A    between atoms: O_17  and  C_18
REMARK    7  A    between atoms: O_23  and  C_24
REMARK    8  A    between atoms: C_24  and  C_25
REMARK    9  A    between atoms: C_25  and  C_26
REMARK   10  A    between atoms: C_26  and  N_27
REMARK                            x       y       z     vdW  Elec       q    Type
REMARK                         _______ _______ _______ _____ _____    ______ ____
ROOT
ATOM      1  N   UNL     1      -2.532  -4.074   0.077  0.00  0.00    -0.298 N 
ATOM      2  C   UNL     1      -1.377  -4.811  -0.089  0.00  0.00    +0.137 A 
ATOM      3  C   UNL     1      -1.429  -6.213  -0.256  0.00  0.00    +0.082 A 
ATOM      4  C   UNL     1      -0.209  -6.914  -0.421  0.00  0.00    +0.083 A 
ATOM      5  C   UNL     1      -0.229  -8.302  -0.588  0.00  0.00    +0.074 A 
ATOM      6  C   UNL     1      -1.435  -8.974  -0.591  0.00  0.00    +0.126 A 
ATOM      7  C   UNL     1      -2.637  -8.285  -0.428  0.00  0.00    +0.092 A 
ATOM      8  C   UNL     1      -2.646  -6.917  -0.261  0.00  0.00    +0.137 A 
ATOM      9  N   UNL     1       0.940  -6.219  -0.412  0.00  0.00    -0.235 NA
ATOM     10  C   UNL     1       0.928  -4.917  -0.253  0.00  0.00    +0.223 A 
ATOM     11  N   UNL     1      -0.188  -4.221  -0.101  0.00  0.00    -0.220 NA
ATOM     12  H   UNL     1      -3.386  -4.525   0.166  0.00  0.00    +0.154 HD
ENDROOT
BRANCH   1  17
ATOM     13  C   UNL     1      -1.257  -0.637  -0.243  0.00  0.00    +0.122 A 
ATOM     14  C   UNL     1      -2.354   0.090   0.198  0.00  0.00    +0.047 A 
ATOM     15  C   UNL     1      -3.504  -0.564   0.595  0.00  0.00    +0.025 A 
ATOM     16  C   UNL     1      -3.566  -1.945   0.556  0.00  0.00    +0.062 A 
ATOM     17  C   UNL     1      -2.470  -2.678   0.116  0.00  0.00    +0.054 A 
ATOM     18  C   UNL     1      -1.316  -2.021  -0.290  0.00  0.00    +0.070 A 
ATOM     19 CL   UNL     1      -5.012  -2.763   1.058  0.00  0.00    -0.082 Cl
BRANCH  13  21
ATOM     20  C   UNL     1      -0.135   1.435  -0.559  0.00  0.00    +0.277 C 
ATOM     21  O   UNL     1      -0.126   0.008  -0.634  0.00  0.00    -0.495 OA
ENDBRANCH  13  21
ENDBRANCH   1  17
BRANCH   8  22
ATOM     22  O   UNL     1      -3.820  -6.254  -0.103  0.00  0.00    -0.486 OA
BRANCH  22  23
ATOM     23  C   UNL     1      -5.004  -7.047  -0.002  0.00  0.00    +0.201 C 
ATOM     24  C   UNL     1      -6.098  -6.305   0.812  0.00  0.00    +0.075 C 
ATOM     25  C   UNL     1      -7.384  -6.920   0.204  0.00  0.00    +0.163 C 
ATOM     26  O   UNL     1      -7.091  -7.099  -1.191  0.00  0.00    -0.376 OA
ATOM     27  C   UNL     1      -5.676  -7.210  -1.383  0.00  0.00    +0.204 C 
ENDBRANCH  22  23
ENDBRANCH   8  22
BRANCH   6  28
ATOM     28  O   UNL     1      -1.451 -10.322  -0.753  0.00  0.00    -0.492 OA
BRANCH  28  29
ATOM     29  C   UNL     1      -0.189 -10.971  -0.916  0.00  0.00    +0.227 C 
BRANCH  29  30
ATOM     30  C   UNL     1      -0.407 -12.476  -1.084  0.00  0.00    +0.022 C 
BRANCH  30  31
ATOM     31  C   UNL     1       0.945 -13.171  -1.258  0.00  0.00    -0.075 C 
BRANCH  31  32
ATOM     32  N   UNL     1       0.735 -14.616  -1.420  0.00  0.00    +0.383 N 
ATOM     33  C   UNL     1       0.170 -15.171  -0.182  0.00  0.00    -0.050 C 
ATOM     34  C   UNL     1      -0.048 -16.676  -0.354  0.00  0.00    +0.141 C 
ATOM     35  O   UNL     1       1.196 -17.298  -0.688  0.00  0.00    -0.383 OA
ATOM     36  C   UNL     1       1.799 -16.774  -1.875  0.00  0.00    +0.141 C 
ATOM     37  C   UNL     1       2.020 -15.269  -1.706  0.00  0.00    -0.050 C 
ATOM     38  H   UNL     1       0.097 -14.780  -2.184  0.00  0.00    -0.082 HD
ENDBRANCH  31  32
ENDBRANCH  30  31
ENDBRANCH  29  30
ENDBRANCH  28  29
ENDBRANCH   6  28
TORSDOF 9
