REMARK  Name = CHEMBL352992
REMARK  9 active torsions:
REMARK  status: ('A' for Active; 'I' for Inactive)
REMARK    1  A    between atoms: C_1  and  N_2
REMARK    2  A    between atoms: N_5  and  C_8
REMARK    3  A    between atoms: C_8  and  O_9
REMARK    4  A    between atoms: O_9  and  C_10
REMARK    5  A    between atoms: C_15  and  O_16
REMARK    6  A    between atoms: O_16  and  C_17
REMARK    7  A    between atoms: N_22  and  C_23
REMARK    8  A    between atoms: C_25  and  O_30
REMARK    9  A    between atoms: O_30  and  C_31
REMARK                            x       y       z     vdW  Elec       q    Type
REMARK                         _______ _______ _______ _____ _____    ______ ____
ROOT
ATOM      1  C   UNL     1      -1.812  -5.387   3.169  0.00  0.00    +0.166 A 
ATOM      2  C   UNL     1      -3.016  -4.957   2.655  0.00  0.00    +0.078 A 
ATOM      3  C   UNL     1      -4.083  -4.698   3.523  0.00  0.00    +0.080 A 
ATOM      4  C   UNL     1      -3.908  -4.882   4.918  0.00  0.00    +0.044 A 
ATOM      5  C   UNL     1      -2.674  -5.319   5.414  0.00  0.00    +0.062 A 
ATOM      6  C   UNL     1      -1.648  -5.572   4.549  0.00  0.00    +0.162 A 
ATOM      7  C   UNL     1      -5.005  -4.612   5.770  0.00  0.00    +0.134 A 
ATOM      8  N   UNL     1      -6.140  -4.201   5.220  0.00  0.00    -0.220 NA
ATOM      9  C   UNL     1      -6.258  -4.044   3.911  0.00  0.00    +0.223 A 
ATOM     10  N   UNL     1      -5.276  -4.278   3.073  0.00  0.00    -0.235 NA
ATOM     11  N   UNL     1      -4.896  -4.772   7.137  0.00  0.00    -0.298 N 
ATOM     12  H   UNL     1      -4.036  -4.979   7.534  0.00  0.00    +0.154 HD
ENDROOT
BRANCH  11  13
ATOM     13  C   UNL     1      -6.027  -4.637   7.948  0.00  0.00    +0.054 A 
ATOM     14  C   UNL     1      -7.294  -4.818   7.411  0.00  0.00    +0.070 A 
ATOM     15  C   UNL     1      -8.412  -4.683   8.218  0.00  0.00    +0.122 A 
ATOM     16  C   UNL     1      -8.264  -4.367   9.562  0.00  0.00    +0.047 A 
ATOM     17  C   UNL     1      -7.002  -4.186  10.096  0.00  0.00    +0.025 A 
ATOM     18  C   UNL     1      -5.884  -4.326   9.296  0.00  0.00    +0.062 A 
ATOM     19 CL   UNL     1      -4.300  -4.106   9.972  0.00  0.00    -0.082 Cl
BRANCH  15  20
ATOM     20  O   UNL     1      -9.654  -4.859   7.695  0.00  0.00    -0.495 OA
ATOM     21  C   UNL     1     -10.761  -4.705   8.585  0.00  0.00    +0.277 C 
ENDBRANCH  15  20
ENDBRANCH  11  13
BRANCH   6  22
ATOM     22  O   UNL     1      -0.451  -6.002   5.032  0.00  0.00    -0.491 OA
ATOM     23  C   UNL     1      -0.346  -6.171   6.447  0.00  0.00    +0.277 C 
ENDBRANCH   6  22
BRANCH   1  24
ATOM     24  O   UNL     1      -0.775  -5.639   2.329  0.00  0.00    -0.473 OA
BRANCH  24  25
ATOM     25  C   UNL     1      -1.004  -5.432   0.934  0.00  0.00    +0.318 C 
BRANCH  25  30
ATOM     26  C   UNL     1      -0.079  -0.326  -1.260  0.00  0.00    -0.096 C 
ATOM     27  N   UNL     1      -0.166  -1.769  -1.002  0.00  0.00    +0.379 N 
ATOM     28  C   UNL     1      -1.574  -2.151  -0.826  0.00  0.00    -0.063 C 
ATOM     29  C   UNL     1      -1.666  -3.658  -0.576  0.00  0.00    +0.069 C 
ATOM     30  N   UNL     1      -0.894  -4.000   0.627  0.00  0.00    -0.274 NA
ATOM     31  C   UNL     1       0.513  -3.601   0.475  0.00  0.00    +0.069 C 
ATOM     32  C   UNL     1       0.587  -2.094   0.216  0.00  0.00    -0.063 C 
ATOM     33  H   UNL     1       0.224  -2.275  -1.784  0.00  0.00    -0.082 HD
ENDBRANCH  25  30
ENDBRANCH  24  25
ENDBRANCH   1  24
TORSDOF 6
