REMARK  Name = CHEMBL484311
REMARK  8 active torsions:
REMARK  status: ('A' for Active; 'I' for Inactive)
REMARK    1  A    between atoms: C_1  and  C_2
REMARK    2  A    between atoms: C_7  and  O_8
REMARK    3  A    between atoms: O_8  and  C_9
REMARK    4  A    between atoms: C_9  and  C_10
REMARK    5  A    between atoms: C_10  and  C_11
REMARK    6  A    between atoms: C_11  and  N_12
REMARK    7  A    between atoms: C_20  and  C_32
REMARK    8  A    between atoms: C_21  and  N_22
REMARK                            x       y       z     vdW  Elec       q    Type
REMARK                         _______ _______ _______ _____ _____    ______ ____
ROOT
ATOM      1  C   UNL     1      -4.785  -0.976  -2.176  0.00  0.00    +0.047 C 
ATOM      2  C   UNL     1      -3.652  -1.776  -1.588  0.00  0.00    -0.008 A 
ATOM      3  C   UNL     1      -2.476  -1.878  -2.267  0.00  0.00    +0.018 A 
ATOM      4  C   UNL     1      -1.418  -2.622  -1.724  0.00  0.00    +0.021 A 
ATOM      5  C   UNL     1      -1.576  -3.264  -0.472  0.00  0.00    +0.052 A 
ATOM      6  C   UNL     1      -2.798  -3.144   0.206  0.00  0.00    +0.072 A 
ATOM      7  C   UNL     1      -3.817  -2.402  -0.349  0.00  0.00    +0.125 A 
ATOM      8  N   UNL     1      -0.569  -3.976   0.054  0.00  0.00    -0.359 N 
ATOM      9  C   UNL     1       0.581  -4.105  -0.556  0.00  0.00    +0.103 A 
ATOM     10  C   UNL     1       0.826  -3.502  -1.801  0.00  0.00    +0.089 A 
ATOM     11  C   UNL     1      -0.186  -2.744  -2.408  0.00  0.00    +0.061 A 
ATOM     12  H   UNL     1      -0.697  -4.409   0.912  0.00  0.00    +0.165 HD
ENDROOT
BRANCH  11  13
ATOM     13  N   UNL     1       0.014  -2.135  -3.632  0.00  0.00    -0.292 N 
ATOM     14  C   UNL     1      -0.189  -2.847  -4.799  0.00  0.00    +0.163 A 
ATOM     15  N   UNL     1      -0.477  -4.120  -4.948  0.00  0.00    -0.225 NA
ATOM     16  C   UNL     1      -0.650  -4.687  -6.162  0.00  0.00    +0.080 A 
ATOM     17  C   UNL     1      -0.960  -6.035  -6.459  0.00  0.00    +0.029 A 
ATOM     18  C   UNL     1      -1.102  -6.450  -7.757  0.00  0.00    +0.002 A 
ATOM     19  C   UNL     1      -0.949  -5.572  -8.820  0.00  0.00    +0.001 A 
ATOM     20  C   UNL     1      -0.645  -4.247  -8.566  0.00  0.00    +0.017 A 
ATOM     21  C   UNL     1      -0.501  -3.822  -7.269  0.00  0.00    +0.041 A 
ATOM     22  S   UNL     1      -0.134  -2.268  -6.489  0.00  0.00    -0.052 S 
ATOM     23  H   UNL     1       0.297  -1.208  -3.672  0.00  0.00    +0.154 HD
ENDBRANCH  11  13
BRANCH  10  24
ATOM     24  C   UNL     1       2.095  -3.660  -2.444  0.00  0.00    +0.102 C 
ATOM     25  N   UNL     1       3.103  -3.785  -2.954  0.00  0.00    -0.191 NA
ENDBRANCH  10  24
BRANCH   7  26
ATOM     26  O   UNL     1      -4.997  -2.281   0.311  0.00  0.00    -0.492 OA
BRANCH  26  27
ATOM     27  C   UNL     1      -5.105  -2.943   1.573  0.00  0.00    +0.230 C 
BRANCH  27  28
ATOM     28  C   UNL     1      -6.495  -2.695   2.162  0.00  0.00    +0.056 C 
BRANCH  28  29
ATOM     29  C   UNL     1      -6.610  -3.404   3.513  0.00  0.00    +0.088 C 
BRANCH  29  30
ATOM     30  N   UNL     1      -7.945  -3.166   4.079  0.00  0.00    -0.298 NA
ATOM     31  C   UNL     1      -8.127  -1.747   4.419  0.00  0.00    +0.112 C 
ATOM     32  C   UNL     1      -9.548  -1.534   4.948  0.00  0.00    +0.175 C 
ATOM     33  O   UNL     1      -9.768  -2.392   6.071  0.00  0.00    -0.377 OA
ATOM     34  C   UNL     1      -9.599  -3.781   5.775  0.00  0.00    +0.175 C 
ATOM     35  C   UNL     1      -8.178  -4.018   5.254  0.00  0.00    +0.112 C 
ENDBRANCH  29  30
ENDBRANCH  28  29
ENDBRANCH  27  28
ENDBRANCH  26  27
ENDBRANCH   7  26
TORSDOF 7
