REMARK  Name = CHEMBL501458
REMARK  12 active torsions:
REMARK  status: ('A' for Active; 'I' for Inactive)
REMARK    1  A    between atoms: C_1  and  C_2
REMARK    2  A    between atoms: C_7  and  O_8
REMARK    3  A    between atoms: O_8  and  C_9
REMARK    4  A    between atoms: C_9  and  C_10
REMARK    5  A    between atoms: C_10  and  C_11
REMARK    6  A    between atoms: C_11  and  N_12
REMARK    7  A    between atoms: N_15  and  C_18
REMARK    8  A    between atoms: C_21  and  C_39
REMARK    9  A    between atoms: C_22  and  N_23
REMARK   10  A    between atoms: C_29  and  O_33
REMARK   11  A    between atoms: O_33  and  C_34
REMARK   12  A    between atoms: C_34  and  C_35
REMARK                            x       y       z     vdW  Elec       q    Type
REMARK                         _______ _______ _______ _____ _____    ______ ____
ROOT
ATOM      1  C   UNL     1      -4.786  -0.974  -2.178  0.00  0.00    +0.047 C 
ATOM      2  C   UNL     1      -3.653  -1.775  -1.590  0.00  0.00    -0.008 A 
ATOM      3  C   UNL     1      -2.477  -1.877  -2.268  0.00  0.00    +0.018 A 
ATOM      4  C   UNL     1      -1.420  -2.621  -1.725  0.00  0.00    +0.021 A 
ATOM      5  C   UNL     1      -1.579  -3.263  -0.473  0.00  0.00    +0.052 A 
ATOM      6  C   UNL     1      -2.800  -3.143   0.205  0.00  0.00    +0.072 A 
ATOM      7  C   UNL     1      -3.819  -2.400  -0.351  0.00  0.00    +0.125 A 
ATOM      8  N   UNL     1      -0.572  -3.975   0.054  0.00  0.00    -0.359 N 
ATOM      9  C   UNL     1       0.579  -4.105  -0.556  0.00  0.00    +0.103 A 
ATOM     10  C   UNL     1       0.824  -3.502  -1.800  0.00  0.00    +0.089 A 
ATOM     11  C   UNL     1      -0.187  -2.744  -2.408  0.00  0.00    +0.061 A 
ATOM     12  H   UNL     1      -0.700  -4.408   0.912  0.00  0.00    +0.165 HD
ENDROOT
BRANCH  11  13
ATOM     13  N   UNL     1       0.014  -2.135  -3.631  0.00  0.00    -0.292 N 
ATOM     14  C   UNL     1      -0.190  -2.848  -4.800  0.00  0.00    +0.163 A 
ATOM     15  N   UNL     1      -0.478  -4.119  -4.948  0.00  0.00    -0.225 NA
ATOM     16  C   UNL     1      -0.651  -4.687  -6.163  0.00  0.00    +0.081 A 
ATOM     17  C   UNL     1      -0.961  -6.035  -6.459  0.00  0.00    +0.032 A 
ATOM     18  C   UNL     1      -1.103  -6.453  -7.756  0.00  0.00    +0.048 A 
ATOM     19  C   UNL     1      -0.949  -5.574  -8.824  0.00  0.00    +0.122 A 
ATOM     20  C   UNL     1      -0.645  -4.245  -8.568  0.00  0.00    +0.063 A 
ATOM     21  C   UNL     1      -0.501  -3.822  -7.270  0.00  0.00    +0.044 A 
ATOM     22  S   UNL     1      -0.134  -2.268  -6.489  0.00  0.00    -0.052 S 
ATOM     23  H   UNL     1       0.298  -1.209  -3.672  0.00  0.00    +0.154 HD
BRANCH  19  24
ATOM     24  O   UNL     1      -1.095  -6.013 -10.102  0.00  0.00    -0.483 OA
BRANCH  24  25
ATOM     25  C   UNL     1      -1.408  -7.396 -10.283  0.00  0.00    +0.342 C 
BRANCH  25  26
ATOM     26  C   UNL     1      -1.532  -7.700 -11.777  0.00  0.00    +0.424 C 
ATOM     27  F   UNL     1      -0.321  -7.409 -12.414  0.00  0.00    -0.167 F 
ATOM     28  F   UNL     1      -1.838  -9.054 -11.953  0.00  0.00    -0.167 F 
ATOM     29  F   UNL     1      -2.550  -6.916 -12.329  0.00  0.00    -0.167 F 
ENDBRANCH  25  26
ENDBRANCH  24  25
ENDBRANCH  19  24
ENDBRANCH  11  13
BRANCH  10  30
ATOM     30  C   UNL     1       2.094  -3.660  -2.443  0.00  0.00    +0.102 C 
ATOM     31  N   UNL     1       3.102  -3.785  -2.952  0.00  0.00    -0.191 NA
ENDBRANCH  10  30
BRANCH   7  32
ATOM     32  O   UNL     1      -4.999  -2.279   0.309  0.00  0.00    -0.492 OA
BRANCH  32  33
ATOM     33  C   UNL     1      -5.107  -2.940   1.571  0.00  0.00    +0.230 C 
BRANCH  33  34
ATOM     34  C   UNL     1      -6.498  -2.692   2.160  0.00  0.00    +0.056 C 
BRANCH  34  35
ATOM     35  C   UNL     1      -6.614  -3.400   3.511  0.00  0.00    +0.087 C 
BRANCH  35  36
ATOM     36  N   UNL     1      -7.949  -3.161   4.076  0.00  0.00    -0.306 NA
ATOM     37  C   UNL     1      -8.131  -1.743   4.414  0.00  0.00    +0.066 C 
ATOM     38  C   UNL     1      -9.551  -1.526   4.942  0.00  0.00    -0.064 C 
ATOM     39  N   UNL     1      -9.764  -2.362   6.131  0.00  0.00    +0.379 N 
ATOM     40  C   UNL     1      -9.602  -3.777   5.772  0.00  0.00    -0.064 C 
ATOM     41  C   UNL     1      -8.183  -4.013   5.251  0.00  0.00    +0.066 C 
ATOM     42  C   UNL     1     -11.121  -2.141   6.649  0.00  0.00    -0.096 C 
ATOM     43  H   UNL     1      -9.090  -2.116   6.840  0.00  0.00    -0.082 HD
ENDBRANCH  35  36
ENDBRANCH  34  35
ENDBRANCH  33  34
ENDBRANCH  32  33
ENDBRANCH   7  32
TORSDOF 10
