REMARK  Name = CHEMBL472037
REMARK  9 active torsions:
REMARK  status: ('A' for Active; 'I' for Inactive)
REMARK    1  A    between atoms: C_1  and  C_2
REMARK    2  A    between atoms: C_7  and  O_8
REMARK    3  A    between atoms: O_8  and  C_9
REMARK    4  A    between atoms: C_9  and  C_10
REMARK    5  A    between atoms: C_10  and  C_11
REMARK    6  A    between atoms: C_11  and  N_12
REMARK    7  A    between atoms: C_19  and  C_32
REMARK    8  A    between atoms: C_20  and  N_21
REMARK    9  A    between atoms: N_21  and  C_22
REMARK                            x       y       z     vdW  Elec       q    Type
REMARK                         _______ _______ _______ _____ _____    ______ ____
ROOT
ATOM      1  C   UNL     1      -4.854  -2.541  -2.008  0.00  0.00    +0.047 C 
ATOM      2  C   UNL     1      -3.509  -2.961  -1.474  0.00  0.00    -0.008 A 
ATOM      3  C   UNL     1      -2.384  -2.683  -2.190  0.00  0.00    +0.018 A 
ATOM      4  C   UNL     1      -1.130  -3.071  -1.697  0.00  0.00    +0.023 A 
ATOM      5  C   UNL     1      -1.037  -3.750  -0.458  0.00  0.00    +0.076 A 
ATOM      6  C   UNL     1      -2.211  -4.024   0.259  0.00  0.00    +0.074 A 
ATOM      7  C   UNL     1      -3.429  -3.625  -0.248  0.00  0.00    +0.125 A 
ATOM      8  N   UNL     1       0.159  -4.123   0.020  0.00  0.00    -0.253 NA
ATOM      9  C   UNL     1       1.270  -3.881  -0.626  0.00  0.00    +0.132 A 
ATOM     10  C   UNL     1       1.273  -3.213  -1.861  0.00  0.00    +0.091 A 
ATOM     11  C   UNL     1       0.055  -2.795  -2.419  0.00  0.00    +0.060 A 
ENDROOT
BRANCH  11  12
ATOM     12  N   UNL     1       0.014  -2.136  -3.630  0.00  0.00    -0.313 N 
ATOM     13  H   UNL     1       0.128  -1.174  -3.663  0.00  0.00    +0.152 HD
BRANCH  12  14
ATOM     14  C   UNL     1      -0.192  -2.857  -4.812  0.00  0.00    +0.034 A 
ATOM     15  C   UNL     1      -0.490  -4.217  -4.752  0.00  0.00    +0.025 A 
ATOM     16  C   UNL     1      -0.695  -4.937  -5.909  0.00  0.00    +0.029 A 
ATOM     17  C   UNL     1      -0.605  -4.308  -7.142  0.00  0.00    +0.068 A 
ATOM     18  C   UNL     1      -0.304  -2.938  -7.212  0.00  0.00    +0.092 A 
ATOM     19  C   UNL     1      -0.103  -2.215  -6.034  0.00  0.00    +0.053 A 
ATOM     20  N   UNL     1      -0.282  -2.600  -8.529  0.00  0.00    -0.215 NA
ATOM     21  C   UNL     1      -0.544  -3.656  -9.258  0.00  0.00    +0.191 A 
ATOM     22  N   UNL     1      -0.752  -4.738  -8.452  0.00  0.00    -0.326 N 
ATOM     23  N   UNL     1      -0.603  -3.672 -10.636  0.00  0.00    -0.329 N 
ATOM     24  H   UNL     1      -0.442  -2.857 -11.138  0.00  0.00    +0.145 HD
ATOM     25  H   UNL     1      -0.804  -4.498 -11.104  0.00  0.00    +0.145 HD
ATOM     26  H   UNL     1      -0.962  -5.639  -8.742  0.00  0.00    +0.169 HD
ENDBRANCH  12  14
ENDBRANCH  11  12
BRANCH  10  27
ATOM     27  C   UNL     1       2.506  -2.961  -2.545  0.00  0.00    +0.103 C 
ATOM     28  N   UNL     1       3.484  -2.761  -3.088  0.00  0.00    -0.191 NA
ENDBRANCH  10  27
BRANCH   7  29
ATOM     29  O   UNL     1      -4.564  -3.886   0.450  0.00  0.00    -0.492 OA
BRANCH  29  30
ATOM     30  C   UNL     1      -4.417  -4.569   1.696  0.00  0.00    +0.227 C 
BRANCH  30  31
ATOM     31  C   UNL     1      -5.794  -4.773   2.332  0.00  0.00    +0.022 C 
BRANCH  31  32
ATOM     32  C   UNL     1      -5.637  -5.503   3.667  0.00  0.00    -0.076 C 
BRANCH  32  33
ATOM     33  N   UNL     1      -6.959  -5.699   4.277  0.00  0.00    +0.380 N 
ATOM     34  C   UNL     1      -7.750  -6.674   3.483  0.00  0.00    -0.079 C 
ATOM     35  C   UNL     1      -8.803  -7.185   4.497  0.00  0.00    -0.020 C 
ATOM     36  C   UNL     1      -8.005  -7.255   5.819  0.00  0.00    -0.020 C 
ATOM     37  C   UNL     1      -6.816  -6.296   5.622  0.00  0.00    -0.079 C 
ATOM     38  H   UNL     1      -7.448  -4.819   4.337  0.00  0.00    -0.082 HD
ENDBRANCH  32  33
ENDBRANCH  31  32
ENDBRANCH  30  31
ENDBRANCH  29  30
ENDBRANCH   7  29
TORSDOF 8
