REMARK  Name = CHEMBL375433
REMARK  11 active torsions:
REMARK  status: ('A' for Active; 'I' for Inactive)
REMARK    1  A    between atoms: C_1  and  C_2
REMARK    2  A    between atoms: C_2  and  C_3
REMARK    3  A    between atoms: C_3  and  O_4
REMARK    4  A    between atoms: O_4  and  C_5
REMARK    5  A    between atoms: N_7  and  C_37
REMARK    6  A    between atoms: N_10  and  C_11
REMARK    7  A    between atoms: C_15  and  N_17
REMARK    8  A    between atoms: C_21  and  C_36
REMARK    9  A    between atoms: C_23  and  C_28
REMARK   10  A    between atoms: C_29  and  C_35
REMARK   11  A    between atoms: C_33  and  C_34
REMARK                            x       y       z     vdW  Elec       q    Type
REMARK                         _______ _______ _______ _____ _____    ______ ____
ROOT
ATOM      1  N   UNL     1       6.996  -0.234  -3.521  0.00  0.00    -0.282 N 
ATOM      2  C   UNL     1       7.804   0.158  -4.575  0.00  0.00    +0.240 A 
ATOM      3  N   UNL     1       9.110   0.243  -4.389  0.00  0.00    -0.211 NA
ATOM      4  C   UNL     1       9.887   0.623  -5.410  0.00  0.00    +0.097 A 
ATOM      5  C   UNL     1      11.281   0.732  -5.274  0.00  0.00    -0.022 A 
ATOM      6  C   UNL     1      12.037   1.120  -6.334  0.00  0.00    +0.014 A 
ATOM      7  C   UNL     1      11.445   1.417  -7.572  0.00  0.00    -0.015 A 
ATOM      8  C   UNL     1      10.076   1.320  -7.739  0.00  0.00    +0.040 A 
ATOM      9  C   UNL     1       9.277   0.920  -6.657  0.00  0.00    +0.112 A 
ATOM     10  N   UNL     1       7.948   0.811  -6.770  0.00  0.00    -0.144 NA
ATOM     11  N   UNL     1       7.247   0.436  -5.755  0.00  0.00    -0.112 NA
ATOM     12  C   UNL     1      11.937   0.418  -3.954  0.00  0.00    +0.046 C 
ATOM     13  H   UNL     1       7.390  -0.448  -2.661  0.00  0.00    +0.155 HD
ENDROOT
BRANCH   7  14
ATOM     14  C   UNL     1      12.295   1.839  -8.712  0.00  0.00    -0.012 A 
ATOM     15  C   UNL     1      13.004   3.038  -8.649  0.00  0.00    -0.042 A 
ATOM     16  C   UNL     1      13.793   3.425  -9.713  0.00  0.00    +0.004 A 
ATOM     17  C   UNL     1      13.883   2.627 -10.839  0.00  0.00    +0.001 A 
ATOM     18  C   UNL     1      13.181   1.437 -10.906  0.00  0.00    +0.004 A 
ATOM     19  C   UNL     1      12.394   1.036  -9.846  0.00  0.00    -0.042 A 
ATOM     20  C   UNL     1      11.636  -0.265  -9.918  0.00  0.00    +0.044 C 
ATOM     21  C   UNL     1      12.907   3.909  -7.424  0.00  0.00    +0.044 C 
ENDBRANCH   7  14
BRANCH   1  26
ATOM     22  C   UNL     1       3.518  -1.399  -3.226  0.00  0.00    +0.033 A 
ATOM     23  C   UNL     1       2.869  -0.491  -4.054  0.00  0.00    +0.023 A 
ATOM     24  C   UNL     1       3.589   0.495  -4.699  0.00  0.00    +0.004 A 
ATOM     25  C   UNL     1       4.957   0.582  -4.523  0.00  0.00    +0.023 A 
ATOM     26  C   UNL     1       5.612  -0.323  -3.697  0.00  0.00    +0.035 A 
ATOM     27  C   UNL     1       4.890  -1.311  -3.043  0.00  0.00    +0.046 A 
BRANCH  22  33
ATOM     28  C   UNL     1       3.467  -3.433  -1.782  0.00  0.00    +0.220 C 
ATOM     29  C   UNL     1       2.814  -3.495  -0.398  0.00  0.00    +0.135 C 
ATOM     30  N   UNL     1       1.365  -3.681  -0.552  0.00  0.00    -0.300 NA
ATOM     31  C   UNL     1       0.751  -2.538  -1.242  0.00  0.00    +0.103 C 
ATOM     32  C   UNL     1       1.321  -2.437  -2.661  0.00  0.00    +0.123 C 
ATOM     33  N   UNL     1       2.788  -2.396  -2.574  0.00  0.00    -0.302 N 
ATOM     34  C   UNL     1       0.723  -3.917   0.748  0.00  0.00    +0.105 C 
BRANCH  28  35
ATOM     35  O   UNL     1       3.334  -4.699  -2.433  0.00  0.00    -0.357 OA
BRANCH  35  36
ATOM     36  C   UNL     1       4.170  -4.853  -3.582  0.00  0.00    +0.162 C 
BRANCH  36  38
ATOM     37  C   UNL     1       4.841  -6.401  -5.424  0.00  0.00    +0.006 C 
ATOM     38  C   UNL     1       3.945  -6.236  -4.195  0.00  0.00    +0.025 C 
ENDBRANCH  36  38
ENDBRANCH  35  36
ENDBRANCH  28  35
ENDBRANCH  22  33
ENDBRANCH   1  26
TORSDOF 6
