REMARK  Name = CHEMBL214376
REMARK  10 active torsions:
REMARK  status: ('A' for Active; 'I' for Inactive)
REMARK    1  A    between atoms: C_1  and  C_2
REMARK    2  A    between atoms: C_2  and  C_3
REMARK    3  A    between atoms: C_2  and  O_4
REMARK    4  A    between atoms: O_4  and  C_5
REMARK    5  A    between atoms: C_7  and  O_26
REMARK    6  A    between atoms: N_15  and  C_16
REMARK    7  A    between atoms: O_26  and  C_27
REMARK    8  A    between atoms: C_27  and  C_28
REMARK    9  A    between atoms: C_28  and  C_29
REMARK   10  A    between atoms: C_29  and  N_30
REMARK                            x       y       z     vdW  Elec       q    Type
REMARK                         _______ _______ _______ _____ _____    ______ ____
ROOT
ATOM      1  C   UNL     1       1.875  -0.524  -1.054  0.00  0.00    +0.137 A 
ATOM      2  C   UNL     1       2.449  -0.302   0.179  0.00  0.00    +0.092 A 
ATOM      3  C   UNL     1       3.531  -1.071   0.607  0.00  0.00    +0.126 A 
ATOM      4  C   UNL     1       4.051  -2.069  -0.192  0.00  0.00    +0.074 A 
ATOM      5  C   UNL     1       3.487  -2.316  -1.448  0.00  0.00    +0.083 A 
ATOM      6  C   UNL     1       2.384  -1.539  -1.882  0.00  0.00    +0.082 A 
ATOM      7  C   UNL     1       1.832  -1.814  -3.153  0.00  0.00    +0.138 A 
ATOM      8  N   UNL     1       2.372  -2.790  -3.874  0.00  0.00    -0.220 NA
ATOM      9  C   UNL     1       3.399  -3.494  -3.426  0.00  0.00    +0.223 A 
ATOM     10  N   UNL     1       3.959  -3.275  -2.260  0.00  0.00    -0.235 NA
ATOM     11  N   UNL     1       0.761  -1.089  -3.632  0.00  0.00    -0.295 N 
ATOM     12  H   UNL     1       0.431  -0.326  -3.134  0.00  0.00    +0.154 HD
ENDROOT
BRANCH  11  13
ATOM     13  C   UNL     1       0.152  -1.455  -4.840  0.00  0.00    +0.097 A 
ATOM     14  C   UNL     1       0.896  -1.492  -6.012  0.00  0.00    +0.066 A 
ATOM     15  C   UNL     1       0.294  -1.854  -7.203  0.00  0.00    +0.025 A 
ATOM     16  C   UNL     1      -1.050  -2.179  -7.232  0.00  0.00    +0.051 A 
ATOM     17  C   UNL     1      -1.800  -2.145  -6.067  0.00  0.00    +0.168 A 
ATOM     18  C   UNL     1      -1.199  -1.787  -4.865  0.00  0.00    +0.189 A 
ATOM     19  O   UNL     1      -2.138  -1.835  -3.874  0.00  0.00    -0.451 OA
ATOM     20  C   UNL     1      -3.409  -1.836  -4.551  0.00  0.00    +0.466 C 
ATOM     21  O   UNL     1      -3.118  -2.416  -5.832  0.00  0.00    -0.453 OA
ATOM     22 CL   UNL     1       2.583  -1.085  -5.982  0.00  0.00    -0.081 Cl
ENDBRANCH  11  13
BRANCH   1  23
ATOM     23  O   UNL     1       0.822   0.228  -1.464  0.00  0.00    -0.488 OA
BRANCH  23  25
ATOM     24  C   UNL     1       1.280   2.517  -0.839  0.00  0.00    +0.051 C 
ATOM     25  C   UNL     1       0.405   1.286  -0.598  0.00  0.00    +0.167 C 
ATOM     26  C   UNL     1      -1.057   1.635  -0.886  0.00  0.00    +0.051 C 
ENDBRANCH  23  25
ENDBRANCH   1  23
BRANCH   3  27
ATOM     27  O   UNL     1       4.082  -0.834   1.826  0.00  0.00    -0.492 OA
BRANCH  27  28
ATOM     28  C   UNL     1       5.188  -1.654   2.209  0.00  0.00    +0.227 C 
BRANCH  28  29
ATOM     29  C   UNL     1       5.669  -1.242   3.602  0.00  0.00    +0.022 C 
BRANCH  29  30
ATOM     30  C   UNL     1       6.853  -2.120   4.012  0.00  0.00    -0.076 C 
BRANCH  30  31
ATOM     31  N   UNL     1       7.316  -1.725   5.349  0.00  0.00    +0.380 N 
ATOM     32  C   UNL     1       6.298  -2.083   6.370  0.00  0.00    -0.079 C 
ATOM     33  C   UNL     1       7.118  -2.143   7.683  0.00  0.00    -0.020 C 
ATOM     34  C   UNL     1       8.460  -2.758   7.225  0.00  0.00    -0.020 C 
ATOM     35  C   UNL     1       8.534  -2.481   5.712  0.00  0.00    -0.079 C 
ATOM     36  H   UNL     1       7.501  -0.733   5.375  0.00  0.00    -0.082 HD
ENDBRANCH  30  31
ENDBRANCH  29  30
ENDBRANCH  28  29
ENDBRANCH  27  28
ENDBRANCH   3  27
TORSDOF 8
