REMARK  Name = CHEMBL321779
REMARK  7 active torsions:
REMARK  status: ('A' for Active; 'I' for Inactive)
REMARK    1  A    between atoms: C_1  and  C_2
REMARK    2  A    between atoms: C_5  and  C_8
REMARK    3  A    between atoms: N_10  and  C_18
REMARK    4  A    between atoms: C_13  and  N_17
REMARK    5  A    between atoms: C_18  and  C_19
REMARK    6  A    between atoms: C_18  and  C_20
REMARK    7  A    between atoms: C_18  and  C_21
REMARK                            x       y       z     vdW  Elec       q    Type
REMARK                         _______ _______ _______ _____ _____    ______ ____
ROOT
ATOM      1  C   UNL     1       0.059  -4.255  -0.021  0.00  0.00    +0.012 A 
ATOM      2  C   UNL     1      -0.762  -5.073  -0.725  0.00  0.00    +0.097 A 
ATOM      3  N   UNL     1      -0.436  -6.378  -0.473  0.00  0.00    -0.326 N 
ATOM      4  C   UNL     1       0.612  -6.445   0.405  0.00  0.00    +0.147 A 
ATOM      5  C   UNL     1       0.976  -5.125   0.726  0.00  0.00    +0.066 A 
ATOM      6  C   UNL     1       2.040  -4.917   1.613  0.00  0.00    +0.129 A 
ATOM      7  N   UNL     1       2.663  -5.981   2.113  0.00  0.00    -0.220 NA
ATOM      8  C   UNL     1       2.291  -7.204   1.783  0.00  0.00    +0.225 A 
ATOM      9  N   UNL     1       1.293  -7.446   0.961  0.00  0.00    -0.218 NA
ENDROOT
BRANCH   1  14
ATOM     10  C   UNL     1      -0.018   1.503   0.010  0.00  0.00    +0.044 C 
ATOM     11  C   UNL     1       0.002  -0.004   0.002  0.00  0.00    -0.050 A 
ATOM     12  C   UNL     1       0.006  -0.686  -1.201  0.00  0.00    +0.004 A 
ATOM     13  C   UNL     1       0.024  -2.066  -1.215  0.00  0.00    +0.009 A 
ATOM     14  C   UNL     1       0.040  -2.772  -0.013  0.00  0.00    -0.016 A 
ATOM     15  C   UNL     1       0.036  -2.079   1.196  0.00  0.00    +0.009 A 
ATOM     16  C   UNL     1       0.023  -0.699   1.198  0.00  0.00    +0.004 A 
ENDBRANCH   1  14
BRANCH   3  17
ATOM     17  C   UNL     1      -1.112  -7.537  -1.060  0.00  0.00    +0.039 C 
ATOM     18  C   UNL     1      -2.230  -7.060  -1.990  0.00  0.00    +0.034 C 
ATOM     19  C   UNL     1      -0.104  -8.366  -1.858  0.00  0.00    +0.034 C 
ATOM     20  C   UNL     1      -1.710  -8.397   0.056  0.00  0.00    +0.034 C 
ENDBRANCH   3  17
BRANCH   6  21
ATOM     21  N   UNL     1       2.433  -3.637   1.961  0.00  0.00    -0.343 N 
ATOM     22  H   UNL     1       1.970  -2.870   1.589  0.00  0.00    +0.144 HD
ATOM     23  H   UNL     1       3.171  -3.506   2.576  0.00  0.00    +0.144 HD
ENDBRANCH   6  21
TORSDOF 3
