REMARK  Name = CHEMBL216703
REMARK  10 active torsions:
REMARK  status: ('A' for Active; 'I' for Inactive)
REMARK    1  A    between atoms: C_1  and  O_2
REMARK    2  A    between atoms: O_2  and  C_3
REMARK    3  A    between atoms: C_7  and  N_9
REMARK    4  A    between atoms: C_14  and  O_23
REMARK    5  A    between atoms: C_16  and  O_17
REMARK    6  A    between atoms: O_17  and  C_18
REMARK    7  A    between atoms: O_23  and  C_24
REMARK    8  A    between atoms: C_24  and  C_25
REMARK    9  A    between atoms: C_25  and  C_26
REMARK   10  A    between atoms: C_26  and  N_27
REMARK                            x       y       z     vdW  Elec       q    Type
REMARK                         _______ _______ _______ _____ _____    ______ ____
ROOT
ATOM      1  N   UNL     1       1.435  -4.032   2.173  0.00  0.00    -0.298 N 
ATOM      2  C   UNL     1       0.733  -4.790   1.258  0.00  0.00    +0.137 A 
ATOM      3  C   UNL     1       0.650  -6.194   1.392  0.00  0.00    +0.082 A 
ATOM      4  C   UNL     1      -0.086  -6.917   0.420  0.00  0.00    +0.083 A 
ATOM      5  C   UNL     1      -0.185  -8.308   0.526  0.00  0.00    +0.074 A 
ATOM      6  C   UNL     1       0.432  -8.960   1.574  0.00  0.00    +0.126 A 
ATOM      7  C   UNL     1       1.157  -8.250   2.532  0.00  0.00    +0.092 A 
ATOM      8  C   UNL     1       1.271  -6.878   2.451  0.00  0.00    +0.137 A 
ATOM      9  N   UNL     1      -0.669  -6.240  -0.582  0.00  0.00    -0.235 NA
ATOM     10  C   UNL     1      -0.558  -4.935  -0.655  0.00  0.00    +0.223 A 
ATOM     11  N   UNL     1       0.114  -4.219   0.232  0.00  0.00    -0.220 NA
ATOM     12  H   UNL     1       1.950  -4.467   2.870  0.00  0.00    +0.154 HD
ENDROOT
BRANCH   1  17
ATOM     13  C   UNL     1       0.435  -0.622   1.217  0.00  0.00    +0.122 A 
ATOM     14  C   UNL     1       1.346   0.130   1.944  0.00  0.00    +0.047 A 
ATOM     15  C   UNL     1       2.282  -0.498   2.744  0.00  0.00    +0.025 A 
ATOM     16  C   UNL     1       2.314  -1.877   2.822  0.00  0.00    +0.062 A 
ATOM     17  C   UNL     1       1.403  -2.636   2.095  0.00  0.00    +0.054 A 
ATOM     18  C   UNL     1       0.459  -2.006   1.297  0.00  0.00    +0.070 A 
ATOM     19 CL   UNL     1       3.491  -2.663   3.826  0.00  0.00    -0.082 Cl
BRANCH  13  21
ATOM     20  C   UNL     1      -0.452   1.425   0.396  0.00  0.00    +0.277 C 
ATOM     21  O   UNL     1      -0.485  -0.003   0.431  0.00  0.00    -0.495 OA
ENDBRANCH  13  21
ENDBRANCH   1  17
BRANCH   8  22
ATOM     22  O   UNL     1       1.977  -6.195   3.386  0.00  0.00    -0.486 OA
BRANCH  22  23
ATOM     23  C   UNL     1       2.677  -6.967   4.364  0.00  0.00    +0.201 C 
ATOM     24  C   UNL     1       3.910  -6.192   4.902  0.00  0.00    +0.075 C 
ATOM     25  C   UNL     1       4.042  -6.798   6.322  0.00  0.00    +0.163 C 
ATOM     26  O   UNL     1       2.692  -7.011   6.766  0.00  0.00    -0.376 OA
ATOM     27  C   UNL     1       1.821  -7.147   5.637  0.00  0.00    +0.204 C 
ENDBRANCH  22  23
ENDBRANCH   8  22
BRANCH   6  28
ATOM     28  O   UNL     1       0.333 -10.311   1.675  0.00  0.00    -0.492 OA
BRANCH  28  29
ATOM     29  C   UNL     1      -0.422 -10.983   0.664  0.00  0.00    +0.230 C 
BRANCH  29  30
ATOM     30  C   UNL     1      -0.421 -12.487   0.943  0.00  0.00    +0.056 C 
BRANCH  30  31
ATOM     31  C   UNL     1      -1.229 -13.207  -0.138  0.00  0.00    +0.088 C 
BRANCH  31  32
ATOM     32  N   UNL     1      -1.229 -14.651   0.129  0.00  0.00    -0.298 NA
ATOM     33  C   UNL     1       0.121 -15.214  -0.020  0.00  0.00    +0.112 C 
ATOM     34  C   UNL     1       0.088 -16.705   0.325  0.00  0.00    +0.175 C 
ATOM     35  O   UNL     1      -0.868 -17.362  -0.512  0.00  0.00    -0.377 OA
ATOM     36  C   UNL     1      -2.194 -16.839  -0.391  0.00  0.00    +0.175 C 
ATOM     37  C   UNL     1      -2.183 -15.349  -0.744  0.00  0.00    +0.112 C 
ENDBRANCH  31  32
ENDBRANCH  30  31
ENDBRANCH  29  30
ENDBRANCH  28  29
ENDBRANCH   6  28
TORSDOF 9
