REMARK  Name = CHEMBL211079
REMARK  13 active torsions:
REMARK  status: ('A' for Active; 'I' for Inactive)
REMARK    1  A    between atoms: C_1  and  N_2
REMARK    2  A    between atoms: N_2  and  C_3
REMARK    3  A    between atoms: N_2  and  C_4
REMARK    4  A    between atoms: C_4  and  C_5
REMARK    5  A    between atoms: C_8  and  C_11
REMARK    6  A    between atoms: C_12  and  C_13
REMARK    7  A    between atoms: C_18  and  O_19
REMARK    8  A    between atoms: O_19  and  C_20
REMARK    9  A    between atoms: C_21  and  N_27
REMARK   10  A    between atoms: C_22  and  C_25
REMARK   11  A    between atoms: N_27  and  C_28
REMARK   12  A    between atoms: C_30  and  O_36
REMARK   13  A    between atoms: O_36  and  C_37
REMARK                            x       y       z     vdW  Elec       q    Type
REMARK                         _______ _______ _______ _____ _____    ______ ____
ROOT
ATOM      1  C   UNL     1      -4.234   5.467  -9.726  0.00  0.00    +0.069 A 
ATOM      2  C   UNL     1      -5.321   5.375  -8.867  0.00  0.00    +0.049 A 
ATOM      3  C   UNL     1      -6.346   4.459  -9.142  0.00  0.00    +0.074 A 
ATOM      4  C   UNL     1      -6.253   3.641 -10.295  0.00  0.00    +0.026 A 
ATOM      5  C   UNL     1      -5.146   3.751 -11.149  0.00  0.00    +0.058 A 
ATOM      6  C   UNL     1      -4.157   4.649 -10.873  0.00  0.00    +0.136 A 
ATOM      7  C   UNL     1      -7.291   2.719 -10.566  0.00  0.00    +0.060 A 
ATOM      8  C   UNL     1      -8.369   2.663  -9.669  0.00  0.00    +0.091 A 
ATOM      9  C   UNL     1      -8.377   3.513  -8.551  0.00  0.00    +0.132 A 
ATOM     10  N   UNL     1      -7.404   4.357  -8.324  0.00  0.00    -0.254 NA
ENDROOT
BRANCH   1  12
ATOM     11  C   UNL     1      -2.326   7.168  -9.220  0.00  0.00    -0.061 C 
ATOM     12  C   UNL     1      -3.186   6.402  -9.447  0.00  0.00    -0.057 C 
BRANCH  11  16
ATOM     13  C   UNL     1       0.750   9.912  -8.403  0.00  0.00    -0.064 A 
ATOM     14  C   UNL     1      -0.332   9.815  -7.546  0.00  0.00    +0.003 A 
ATOM     15  C   UNL     1      -1.346   8.917  -7.807  0.00  0.00    +0.017 A 
ATOM     16  C   UNL     1      -1.278   8.104  -8.941  0.00  0.00    +0.025 A 
ATOM     17  C   UNL     1      -0.182   8.207  -9.803  0.00  0.00    +0.017 A 
ATOM     18  C   UNL     1       0.821   9.113  -9.531  0.00  0.00    +0.003 A 
BRANCH  13  19
ATOM     19  C   UNL     1       1.853  10.896  -8.110  0.00  0.00    -0.044 C 
BRANCH  19  21
ATOM     20  C   UNL     1       0.337  12.755  -8.124  0.00  0.00    -0.096 C 
ATOM     21  N   UNL     1       1.541  12.184  -8.743  0.00  0.00    +0.379 N 
ATOM     22  C   UNL     1       2.670  13.106  -8.559  0.00  0.00    -0.096 C 
ATOM     23  H   UNL     1       1.378  12.044  -9.729  0.00  0.00    -0.082 HD
ENDBRANCH  19  21
ENDBRANCH  13  19
ENDBRANCH  11  16
ENDBRANCH   1  12
BRANCH   6  24
ATOM     24  O   UNL     1      -3.090   4.755 -11.706  0.00  0.00    -0.494 OA
ATOM     25  C   UNL     1      -3.073   3.899 -12.850  0.00  0.00    +0.277 C 
ENDBRANCH   6  24
BRANCH   8  26
ATOM     26  C   UNL     1      -9.449   1.750  -9.892  0.00  0.00    +0.103 C 
ATOM     27  N   UNL     1     -10.306   1.025 -10.069  0.00  0.00    -0.191 NA
ENDBRANCH   8  26
BRANCH   7  28
ATOM     28  N   UNL     1      -7.245   1.901 -11.677  0.00  0.00    -0.312 N 
ATOM     29  H   UNL     1      -6.923   0.990 -11.596  0.00  0.00    +0.152 HD
BRANCH  28  30
ATOM     30  C   UNL     1      -7.664   2.386 -12.920  0.00  0.00    +0.053 A 
ATOM     31  C   UNL     1      -8.014   3.722 -13.063  0.00  0.00    +0.071 A 
ATOM     32  C   UNL     1      -8.429   4.199 -14.296  0.00  0.00    +0.140 A 
ATOM     33  C   UNL     1      -8.493   3.341 -15.386  0.00  0.00    +0.084 A 
ATOM     34  C   UNL     1      -8.145   2.011 -15.243  0.00  0.00    +0.045 A 
ATOM     35  C   UNL     1      -7.725   1.532 -14.015  0.00  0.00    +0.064 A 
ATOM     36 CL   UNL     1      -7.281  -0.137 -13.841  0.00  0.00    -0.082 Cl
ATOM     37 CL   UNL     1      -9.013   3.940 -16.930  0.00  0.00    -0.080 Cl
BRANCH  32  38
ATOM     38  O   UNL     1      -8.772   5.507 -14.438  0.00  0.00    -0.494 OA
ATOM     39  C   UNL     1      -8.568   6.358 -13.308  0.00  0.00    +0.277 C 
ENDBRANCH  32  38
ENDBRANCH  28  30
ENDBRANCH   7  28
TORSDOF 9
