REMARK  Name = CHEMBL213988
REMARK  13 active torsions:
REMARK  status: ('A' for Active; 'I' for Inactive)
REMARK    1  A    between atoms: C_1  and  N_2
REMARK    2  A    between atoms: N_2  and  C_3
REMARK    3  A    between atoms: N_2  and  C_4
REMARK    4  A    between atoms: C_4  and  C_5
REMARK    5  A    between atoms: C_8  and  C_10
REMARK    6  A    between atoms: C_11  and  C_12
REMARK    7  A    between atoms: C_17  and  O_18
REMARK    8  A    between atoms: O_18  and  C_19
REMARK    9  A    between atoms: C_20  and  N_26
REMARK   10  A    between atoms: C_21  and  C_24
REMARK   11  A    between atoms: N_26  and  C_27
REMARK   12  A    between atoms: C_29  and  O_35
REMARK   13  A    between atoms: O_35  and  C_36
REMARK                            x       y       z     vdW  Elec       q    Type
REMARK                         _______ _______ _______ _____ _____    ______ ____
ROOT
ATOM      1  C   UNL     1      11.714   2.188  -4.369  0.00  0.00    +0.069 A 
ATOM      2  C   UNL     1      11.660   2.137  -2.982  0.00  0.00    +0.049 A 
ATOM      3  C   UNL     1      11.536   3.324  -2.249  0.00  0.00    +0.074 A 
ATOM      4  C   UNL     1      11.466   4.560  -2.938  0.00  0.00    +0.026 A 
ATOM      5  C   UNL     1      11.522   4.589  -4.341  0.00  0.00    +0.058 A 
ATOM      6  C   UNL     1      11.649   3.426  -5.042  0.00  0.00    +0.136 A 
ATOM      7  C   UNL     1      11.340   5.755  -2.193  0.00  0.00    +0.060 A 
ATOM      8  C   UNL     1      11.290   5.652  -0.794  0.00  0.00    +0.091 A 
ATOM      9  C   UNL     1      11.366   4.384  -0.194  0.00  0.00    +0.132 A 
ATOM     10  N   UNL     1      11.483   3.294  -0.908  0.00  0.00    -0.254 NA
ENDROOT
BRANCH   1  12
ATOM     11  C   UNL     1      11.947  -0.018  -5.737  0.00  0.00    -0.054 C 
ATOM     12  C   UNL     1      11.842   0.976  -5.121  0.00  0.00    -0.057 C 
BRANCH  11  16
ATOM     13  C   UNL     1      12.311  -3.232  -8.283  0.00  0.00    -0.026 A 
ATOM     14  C   UNL     1      12.275  -3.545  -6.960  0.00  0.00    +0.010 A 
ATOM     15  C   UNL     1      12.155  -2.536  -6.033  0.00  0.00    +0.025 A 
ATOM     16  C   UNL     1      12.075  -1.230  -6.489  0.00  0.00    +0.062 A 
ATOM     17  S   UNL     1      12.179  -1.452  -8.257  0.00  0.00    -0.087 S 
BRANCH  13  18
ATOM     18  C   UNL     1      12.436  -4.154  -9.468  0.00  0.00    -0.036 C 
BRANCH  18  20
ATOM     19  C   UNL     1      10.376  -3.377 -10.419  0.00  0.00    -0.096 C 
ATOM     20  N   UNL     1      11.098  -4.555  -9.921  0.00  0.00    +0.379 N 
ATOM     21  C   UNL     1      11.221  -5.545 -10.998  0.00  0.00    -0.096 C 
ATOM     22  H   UNL     1      10.589  -4.959  -9.149  0.00  0.00    -0.082 HD
ENDBRANCH  18  20
ENDBRANCH  13  18
ENDBRANCH  11  16
ENDBRANCH   1  12
BRANCH   6  23
ATOM     23  O   UNL     1      11.708   3.461  -6.399  0.00  0.00    -0.494 OA
ATOM     24  C   UNL     1      11.637   4.746  -7.019  0.00  0.00    +0.277 C 
ENDBRANCH   6  23
BRANCH   8  25
ATOM     25  C   UNL     1      11.164   6.827   0.014  0.00  0.00    +0.103 C 
ATOM     26  N   UNL     1      11.063   7.760   0.654  0.00  0.00    -0.191 NA
ENDBRANCH   8  25
BRANCH   7  27
ATOM     27  N   UNL     1      11.269   6.983  -2.820  0.00  0.00    -0.312 N 
ATOM     28  H   UNL     1      10.406   7.396  -2.981  0.00  0.00    +0.152 HD
BRANCH  27  29
ATOM     29  C   UNL     1      12.441   7.630  -3.224  0.00  0.00    +0.053 A 
ATOM     30  C   UNL     1      13.666   6.989  -3.103  0.00  0.00    +0.071 A 
ATOM     31  C   UNL     1      14.825   7.634  -3.504  0.00  0.00    +0.140 A 
ATOM     32  C   UNL     1      14.759   8.919  -4.027  0.00  0.00    +0.084 A 
ATOM     33  C   UNL     1      13.538   9.556  -4.147  0.00  0.00    +0.045 A 
ATOM     34  C   UNL     1      12.379   8.914  -3.752  0.00  0.00    +0.064 A 
ATOM     35 CL   UNL     1      10.847   9.715  -3.912  0.00  0.00    -0.082 Cl
ATOM     36 CL   UNL     1      16.212   9.726  -4.529  0.00  0.00    -0.080 Cl
BRANCH  31  37
ATOM     37  O   UNL     1      16.026   7.008  -3.386  0.00  0.00    -0.494 OA
ATOM     38  C   UNL     1      16.009   5.647  -2.953  0.00  0.00    +0.277 C 
ENDBRANCH  31  37
ENDBRANCH  27  29
ENDBRANCH   7  27
TORSDOF 9
