REMARK  Name = CHEMBL487555
REMARK  9 active torsions:
REMARK  status: ('A' for Active; 'I' for Inactive)
REMARK    1  A    between atoms: C_1  and  C_2
REMARK    2  A    between atoms: C_7  and  O_8
REMARK    3  A    between atoms: O_8  and  C_9
REMARK    4  A    between atoms: C_9  and  C_10
REMARK    5  A    between atoms: C_10  and  C_11
REMARK    6  A    between atoms: C_11  and  N_12
REMARK    7  A    between atoms: C_20  and  C_33
REMARK    8  A    between atoms: C_21  and  N_22
REMARK    9  A    between atoms: N_22  and  C_23
REMARK                            x       y       z     vdW  Elec       q    Type
REMARK                         _______ _______ _______ _____ _____    ______ ____
ROOT
ATOM      1  C   UNL     1      -4.854  -2.512  -1.998  0.00  0.00    +0.047 C 
ATOM      2  C   UNL     1      -3.510  -2.939  -1.467  0.00  0.00    -0.008 A 
ATOM      3  C   UNL     1      -2.385  -2.668  -2.185  0.00  0.00    +0.018 A 
ATOM      4  C   UNL     1      -1.132  -3.063  -1.694  0.00  0.00    +0.023 A 
ATOM      5  C   UNL     1      -1.041  -3.743  -0.455  0.00  0.00    +0.076 A 
ATOM      6  C   UNL     1      -2.215  -4.010   0.264  0.00  0.00    +0.074 A 
ATOM      7  C   UNL     1      -3.431  -3.603  -0.240  0.00  0.00    +0.125 A 
ATOM      8  N   UNL     1       0.154  -4.123   0.020  0.00  0.00    -0.253 NA
ATOM      9  C   UNL     1       1.266  -3.887  -0.628  0.00  0.00    +0.132 A 
ATOM     10  C   UNL     1       1.270  -3.220  -1.864  0.00  0.00    +0.091 A 
ATOM     11  C   UNL     1       0.053  -2.795  -2.419  0.00  0.00    +0.060 A 
ENDROOT
BRANCH  11  12
ATOM     12  N   UNL     1       0.014  -2.136  -3.630  0.00  0.00    -0.313 N 
ATOM     13  H   UNL     1       0.129  -1.174  -3.663  0.00  0.00    +0.152 HD
BRANCH  12  14
ATOM     14  C   UNL     1      -0.192  -2.857  -4.812  0.00  0.00    +0.033 A 
ATOM     15  C   UNL     1      -0.491  -4.217  -4.766  0.00  0.00    +0.025 A 
ATOM     16  C   UNL     1      -0.695  -4.940  -5.900  0.00  0.00    +0.031 A 
ATOM     17  C   UNL     1      -0.611  -4.333  -7.174  0.00  0.00    +0.080 A 
ATOM     18  C   UNL     1      -0.306  -2.953  -7.191  0.00  0.00    +0.043 A 
ATOM     19  C   UNL     1      -0.106  -2.225  -6.046  0.00  0.00    +0.040 A 
ATOM     20  S   UNL     1      -0.294  -2.589  -8.930  0.00  0.00    -0.053 S 
ATOM     21  C   UNL     1      -0.681  -4.236  -9.508  0.00  0.00    +0.157 A 
ATOM     22  N   UNL     1      -0.786  -4.909  -8.385  0.00  0.00    -0.225 NA
ATOM     23  N   UNL     1      -0.832  -4.686 -10.804  0.00  0.00    -0.337 N 
ATOM     24  H   UNL     1      -0.725  -4.071 -11.547  0.00  0.00    +0.144 HD
ATOM     25  H   UNL     1      -1.045  -5.617 -10.973  0.00  0.00    +0.144 HD
ENDBRANCH  12  14
ENDBRANCH  11  12
BRANCH  10  26
ATOM     26  C   UNL     1       2.503  -2.976  -2.550  0.00  0.00    +0.103 C 
ATOM     27  N   UNL     1       3.481  -2.782  -3.095  0.00  0.00    -0.191 NA
ENDBRANCH  10  26
BRANCH   7  28
ATOM     28  O   UNL     1      -4.566  -3.857   0.460  0.00  0.00    -0.492 OA
BRANCH  28  29
ATOM     29  C   UNL     1      -4.421  -4.539   1.707  0.00  0.00    +0.230 C 
BRANCH  29  30
ATOM     30  C   UNL     1      -5.798  -4.734   2.346  0.00  0.00    +0.056 C 
BRANCH  30  31
ATOM     31  C   UNL     1      -5.642  -5.465   3.681  0.00  0.00    +0.088 C 
BRANCH  31  32
ATOM     32  N   UNL     1      -6.963  -5.652   4.294  0.00  0.00    -0.298 NA
ATOM     33  C   UNL     1      -7.554  -4.361   4.676  0.00  0.00    +0.112 C 
ATOM     34  C   UNL     1      -8.952  -4.597   5.255  0.00  0.00    +0.175 C 
ATOM     35  O   UNL     1      -8.858  -5.499   6.361  0.00  0.00    -0.377 OA
ATOM     36  C   UNL     1      -8.288  -6.766   6.024  0.00  0.00    +0.175 C 
ATOM     37  C   UNL     1      -6.884  -6.552   5.453  0.00  0.00    +0.112 C 
ENDBRANCH  31  32
ENDBRANCH  30  31
ENDBRANCH  29  30
ENDBRANCH  28  29
ENDBRANCH   7  28
TORSDOF 8
