REMARK  Name = CHEMBL434578
REMARK  9 active torsions:
REMARK  status: ('A' for Active; 'I' for Inactive)
REMARK    1  A    between atoms: C_1  and  C_2
REMARK    2  A    between atoms: C_2  and  O_3
REMARK    3  A    between atoms: O_3  and  C_4
REMARK    4  A    between atoms: N_6  and  C_10
REMARK    5  A    between atoms: C_13  and  N_16
REMARK    6  A    between atoms: C_20  and  C_35
REMARK    7  A    between atoms: C_22  and  C_27
REMARK    8  A    between atoms: C_28  and  C_34
REMARK    9  A    between atoms: C_32  and  C_33
REMARK                            x       y       z     vdW  Elec       q    Type
REMARK                         _______ _______ _______ _____ _____    ______ ____
ROOT
ATOM      1  N   UNL     1       6.193  -6.855  -2.908  0.00  0.00    -0.282 N 
ATOM      2  C   UNL     1       6.089  -8.220  -3.110  0.00  0.00    +0.240 A 
ATOM      3  N   UNL     1       7.180  -8.964  -3.066  0.00  0.00    -0.211 NA
ATOM      4  C   UNL     1       7.075 -10.284  -3.261  0.00  0.00    +0.097 A 
ATOM      5  C   UNL     1       8.199 -11.125  -3.226  0.00  0.00    -0.022 A 
ATOM      6  C   UNL     1       8.052 -12.461  -3.429  0.00  0.00    +0.014 A 
ATOM      7  C   UNL     1       6.786 -13.018  -3.676  0.00  0.00    -0.015 A 
ATOM      8  C   UNL     1       5.660 -12.216  -3.717  0.00  0.00    +0.040 A 
ATOM      9  C   UNL     1       5.790 -10.835  -3.509  0.00  0.00    +0.112 A 
ATOM     10  N   UNL     1       4.730 -10.019  -3.539  0.00  0.00    -0.144 NA
ATOM     11  N   UNL     1       4.888  -8.756  -3.339  0.00  0.00    -0.112 NA
ATOM     12  C   UNL     1       9.566 -10.548  -2.964  0.00  0.00    +0.046 C 
ATOM     13  H   UNL     1       7.067  -6.442  -2.822  0.00  0.00    +0.155 HD
ENDROOT
BRANCH   7  14
ATOM     14  C   UNL     1       6.656 -14.479  -3.894  0.00  0.00    -0.012 A 
ATOM     15  C   UNL     1       7.247 -15.075  -5.007  0.00  0.00    -0.042 A 
ATOM     16  C   UNL     1       7.123 -16.435  -5.205  0.00  0.00    +0.004 A 
ATOM     17  C   UNL     1       6.414 -17.207  -4.301  0.00  0.00    +0.001 A 
ATOM     18  C   UNL     1       5.826 -16.620  -3.195  0.00  0.00    +0.004 A 
ATOM     19  C   UNL     1       5.948 -15.262  -2.984  0.00  0.00    -0.042 A 
ATOM     20  C   UNL     1       5.312 -14.625  -1.775  0.00  0.00    +0.044 C 
ATOM     21  C   UNL     1       8.019 -14.236  -5.992  0.00  0.00    +0.044 C 
ENDBRANCH   7  14
BRANCH   1  25
ATOM     22  C   UNL     1       2.750  -4.515  -2.664  0.00  0.00    +0.030 A 
ATOM     23  C   UNL     1       2.746  -5.810  -2.163  0.00  0.00    +0.025 A 
ATOM     24  C   UNL     1       3.886  -6.585  -2.244  0.00  0.00    +0.025 A 
ATOM     25  C   UNL     1       5.036  -6.069  -2.826  0.00  0.00    +0.034 A 
ATOM     26  C   UNL     1       5.040  -4.774  -3.328  0.00  0.00    +0.025 A 
ATOM     27  C   UNL     1       3.899  -4.001  -3.252  0.00  0.00    +0.025 A 
BRANCH  22  30
ATOM     28  C   UNL     1       0.998  -1.474  -1.877  0.00  0.00    +0.267 C 
ATOM     29  C   UNL     1       1.606  -2.319  -3.003  0.00  0.00    +0.166 C 
ATOM     30  N   UNL     1       1.595  -3.729  -2.583  0.00  0.00    -0.323 N 
ATOM     31  C   UNL     1       0.332  -4.289  -2.075  0.00  0.00    +0.133 C 
ATOM     32  C   UNL     1      -0.213  -3.349  -0.994  0.00  0.00    +0.182 C 
ATOM     33  O   UNL     1      -0.273  -2.018  -1.515  0.00  0.00    -0.348 OA
BRANCH  28  34
ATOM     34  O   UNL     1       0.831  -0.129  -2.328  0.00  0.00    -0.350 OA
BRANCH  34  36
ATOM     35  C   UNL     1       0.325   2.193  -1.886  0.00  0.00    +0.034 C 
ATOM     36  C   UNL     1       0.477   0.791  -1.292  0.00  0.00    +0.159 C 
ENDBRANCH  34  36
ENDBRANCH  28  34
ENDBRANCH  22  30
ENDBRANCH   1  25
TORSDOF 5
