REMARK  Name = CHEMBL379308
REMARK  2 active torsions:
REMARK  status: ('A' for Active; 'I' for Inactive)
REMARK    1  A    between atoms: C_6  and  N_7
REMARK    2  A    between atoms: C_11  and  C_12
REMARK                            x       y       z     vdW  Elec       q    Type
REMARK                         _______ _______ _______ _____ _____    ______ ____
ROOT
ATOM      1  N   UNL     1      -1.247  -0.849   0.990  0.00  0.00    -0.184 N 
ATOM      2  C   UNL     1      -1.345  -2.174   0.769  0.00  0.00    +0.272 C 
ATOM      3  O   UNL     1      -0.457  -2.996   0.889  0.00  0.00    -0.268 OA
ATOM      4  C   UNL     1      -2.736  -2.437   0.354  0.00  0.00    +0.102 C 
ATOM      5  C   UNL     1      -3.297  -3.653   0.023  0.00  0.00    +0.027 C 
ATOM      6  C   UNL     1      -3.397  -1.117   0.368  0.00  0.00    +0.266 C 
ATOM      7  O   UNL     1      -4.557  -0.885   0.088  0.00  0.00    -0.268 OA
ATOM      8  N   UNL     1      -2.470  -0.221   0.757  0.00  0.00    -0.223 N 
ATOM      9  H   UNL     1      -2.630   0.731   0.858  0.00  0.00    +0.174 HD
ENDROOT
BRANCH   5  10
ATOM     10  C   UNL     1      -2.452  -4.841  -0.095  0.00  0.00    -0.006 A 
ATOM     11  C   UNL     1      -1.197  -4.754  -0.716  0.00  0.00    +0.058 A 
ATOM     12  C   UNL     1      -0.405  -5.877  -0.824  0.00  0.00    +0.167 A 
ATOM     13  C   UNL     1      -0.851  -7.100  -0.315  0.00  0.00    +0.167 A 
ATOM     14  C   UNL     1      -2.093  -7.188   0.301  0.00  0.00    +0.065 A 
ATOM     15  C   UNL     1      -2.890  -6.071   0.418  0.00  0.00    +0.029 A 
ATOM     16 BR   UNL     1      -4.577  -6.197   1.265  0.00  0.00    -0.050 Br
ATOM     17  O   UNL     1       0.108  -8.041  -0.546  0.00  0.00    -0.453 OA
ATOM     18  C   UNL     1       0.962  -7.481  -1.560  0.00  0.00    +0.466 C 
ATOM     19  O   UNL     1       0.832  -6.060  -1.373  0.00  0.00    -0.453 OA
ENDBRANCH   5  10
BRANCH   1  25
ATOM     20  C   UNL     1      -0.090   1.179   1.608  0.00  0.00    +0.026 A 
ATOM     21  C   UNL     1       1.062   1.822   2.015  0.00  0.00    +0.016 A 
ATOM     22  C   UNL     1       2.224   1.099   2.219  0.00  0.00    +0.013 A 
ATOM     23  C   UNL     1       2.236  -0.269   2.015  0.00  0.00    +0.016 A 
ATOM     24  C   UNL     1       1.087  -0.918   1.607  0.00  0.00    +0.026 A 
ATOM     25  C   UNL     1      -0.082  -0.195   1.402  0.00  0.00    +0.056 A 
ATOM     26  I   UNL     1       3.970   2.079   2.836  0.00  0.00    -0.044 I 
ENDBRANCH   1  25
TORSDOF 2
