REMARK  Name = CHEMBL119620
REMARK  11 active torsions:
REMARK  status: ('A' for Active; 'I' for Inactive)
REMARK    1  A    between atoms: C_1  and  C_2
REMARK    2  A    between atoms: C_2  and  N_3
REMARK    3  A    between atoms: C_14  and  C_16
REMARK    4  A    between atoms: N_17  and  O_18
REMARK    5  A    between atoms: O_18  and  C_19
REMARK    6  A    between atoms: C_19  and  C_20
REMARK    7  A    between atoms: C_20  and  O_21
REMARK    8  A    between atoms: O_21  and  N_22
REMARK    9  A    between atoms: C_23  and  C_24
REMARK   10  A    between atoms: C_27  and  O_31
REMARK   11  A    between atoms: C_28  and  O_30
REMARK                            x       y       z     vdW  Elec       q    Type
REMARK                         _______ _______ _______ _____ _____    ______ ____
ROOT
ATOM      1  C   UNL     1       6.042  -1.688  -2.392  0.00  0.00    +0.160 C 
ATOM      2  N   UNL     1       7.003  -1.484  -1.550  0.00  0.00    -0.092 NA
ENDROOT
BRANCH   1  14
ATOM      3  N   UNL     1       0.743  -0.149  -1.343  0.00  0.00    -0.340 N 
ATOM      4  C   UNL     1       0.069  -0.741  -2.396  0.00  0.00    +0.050 A 
ATOM      5  C   UNL     1      -1.276  -0.761  -2.755  0.00  0.00    +0.026 A 
ATOM      6  C   UNL     1      -1.679  -1.445  -3.881  0.00  0.00    +0.002 A 
ATOM      7  C   UNL     1      -0.756  -2.119  -4.666  0.00  0.00    +0.001 A 
ATOM      8  C   UNL     1       0.580  -2.111  -4.327  0.00  0.00    +0.010 A 
ATOM      9  C   UNL     1       1.001  -1.423  -3.191  0.00  0.00    +0.008 A 
ATOM     10  C   UNL     1       2.318  -1.218  -2.560  0.00  0.00    +0.008 A 
ATOM     11  C   UNL     1       2.095  -0.419  -1.426  0.00  0.00    +0.050 A 
ATOM     12  C   UNL     1       3.173  -0.051  -0.623  0.00  0.00    +0.027 A 
ATOM     13  C   UNL     1       4.437  -0.459  -0.935  0.00  0.00    +0.011 A 
ATOM     14  C   UNL     1       4.671  -1.253  -2.065  0.00  0.00    -0.003 A 
ATOM     15  C   UNL     1       3.604  -1.639  -2.874  0.00  0.00    +0.020 A 
BRANCH   3  17
ATOM     16  C   UNL     1       0.081   2.122  -0.722  0.00  0.00    +0.027 C 
ATOM     17  C   UNL     1       0.113   0.654  -0.292  0.00  0.00    +0.119 C 
ENDBRANCH   3  17
ENDBRANCH   1  14
BRANCH   2  18
ATOM     18  O   UNL     1       6.713  -1.042  -0.237  0.00  0.00    -0.390 OA
BRANCH  18  19
ATOM     19  C   UNL     1       7.868  -0.859   0.584  0.00  0.00    +0.306 C 
BRANCH  19  20
ATOM     20  C   UNL     1       7.437  -0.382   1.973  0.00  0.00    +0.306 C 
BRANCH  20  21
ATOM     21  O   UNL     1       6.677  -1.409   2.614  0.00  0.00    -0.390 OA
BRANCH  21  22
ATOM     22  N   UNL     1       6.227  -1.067   3.912  0.00  0.00    -0.092 NA
ATOM     23  C   UNL     1       5.528  -1.913   4.598  0.00  0.00    +0.161 C 
BRANCH  23  24
ATOM     24  C   UNL     1       5.059  -1.557   5.951  0.00  0.00    -0.000 A 
ATOM     25  C   UNL     1       5.365  -0.305   6.490  0.00  0.00    +0.013 A 
ATOM     26  C   UNL     1       4.926   0.026   7.755  0.00  0.00    +0.050 A 
ATOM     27  C   UNL     1       4.181  -0.882   8.494  0.00  0.00    +0.158 A 
ATOM     28  C   UNL     1       3.873  -2.132   7.962  0.00  0.00    +0.159 A 
ATOM     29  C   UNL     1       4.304  -2.468   6.693  0.00  0.00    +0.058 A 
BRANCH  28  30
ATOM     30  O   UNL     1       3.143  -3.019   8.689  0.00  0.00    -0.503 OA
ATOM     31  H   UNL     1       2.188  -2.946   8.556  0.00  0.00    +0.292 HD
ENDBRANCH  28  30
BRANCH  27  32
ATOM     32  O   UNL     1       3.751  -0.551   9.740  0.00  0.00    -0.503 OA
ATOM     33  H   UNL     1       2.884  -0.125   9.757  0.00  0.00    +0.292 HD
ENDBRANCH  27  32
ENDBRANCH  23  24
ENDBRANCH  21  22
ENDBRANCH  20  21
ENDBRANCH  19  20
ENDBRANCH  18  19
ENDBRANCH   2  18
TORSDOF 10
