REMARK  Name = CHEMBL1087127
REMARK  8 active torsions:
REMARK  status: ('A' for Active; 'I' for Inactive)
REMARK    1  A    between atoms: C_1  and  C_2
REMARK    2  A    between atoms: C_5  and  C_25
REMARK    3  A    between atoms: C_7  and  N_8
REMARK    4  A    between atoms: C_20  and  N_24
REMARK    5  A    between atoms: N_27  and  C_28
REMARK    6  A    between atoms: C_32  and  C_34
REMARK    7  A    between atoms: C_34  and  C_35
REMARK    8  A    between atoms: C_34  and  C_36
REMARK                            x       y       z     vdW  Elec       q    Type
REMARK                         _______ _______ _______ _____ _____    ______ ____
ROOT
ATOM      1  C   UNL     1       2.236   1.290   0.627  0.00  0.00    +0.045 C 
ATOM      2  C   UNL     1       2.408  -0.198   0.795  0.00  0.00    -0.029 A 
ATOM      3  C   UNL     1       3.120  -0.920  -0.144  0.00  0.00    +0.006 A 
ATOM      4  C   UNL     1       3.281  -2.283   0.003  0.00  0.00    +0.013 A 
ATOM      5  C   UNL     1       2.725  -2.937   1.104  0.00  0.00    +0.039 A 
ATOM      6  C   UNL     1       2.007  -2.208   2.053  0.00  0.00    +0.036 A 
ATOM      7  C   UNL     1       1.855  -0.838   1.898  0.00  0.00    +0.037 A 
ENDROOT
BRANCH   7   8
ATOM      8  N   UNL     1       1.141  -0.102   2.849  0.00  0.00    -0.284 N 
ATOM      9  C   UNL     1       0.445  -0.755   3.845  0.00  0.00    +0.207 A 
ATOM     10  N   UNL     1       0.279  -2.051   3.923  0.00  0.00    -0.214 NA
ATOM     11  C   UNL     1      -0.454  -2.354   5.027  0.00  0.00    +0.091 A 
ATOM     12  C   UNL     1      -0.912  -3.555   5.574  0.00  0.00    +0.030 A 
ATOM     13  C   UNL     1      -1.654  -3.540   6.734  0.00  0.00    +0.002 A 
ATOM     14  C   UNL     1      -1.950  -2.341   7.364  0.00  0.00    +0.002 A 
ATOM     15  C   UNL     1      -1.506  -1.146   6.836  0.00  0.00    +0.028 A 
ATOM     16  C   UNL     1      -0.757  -1.143   5.669  0.00  0.00    +0.077 A 
ATOM     17  N   UNL     1      -0.172  -0.144   4.905  0.00  0.00    -0.264 N 
ATOM     18  C   UNL     1      -0.207   1.225   5.165  0.00  0.00    +0.145 A 
ATOM     19  C   UNL     1      -0.256   2.140   4.119  0.00  0.00    +0.090 A 
ATOM     20  C   UNL     1      -0.290   3.497   4.431  0.00  0.00    +0.121 A 
ATOM     21  N   UNL     1      -0.274   3.866   5.710  0.00  0.00    -0.221 NA
ATOM     22  C   UNL     1      -0.227   2.967   6.672  0.00  0.00    +0.225 A 
ATOM     23  N   UNL     1      -0.200   1.675   6.417  0.00  0.00    -0.218 NA
ATOM     24  H   UNL     1       1.135   0.867   2.807  0.00  0.00    +0.155 HD
BRANCH  20  25
ATOM     25  N   UNL     1      -0.339   4.449   3.425  0.00  0.00    -0.343 N 
ATOM     26  H   UNL     1      -0.350   4.172   2.495  0.00  0.00    +0.144 HD
ATOM     27  H   UNL     1      -0.362   5.392   3.650  0.00  0.00    +0.144 HD
ENDBRANCH  20  25
ENDBRANCH   7   8
BRANCH   5  28
ATOM     28  C   UNL     1       2.896  -4.396   1.264  0.00  0.00    +0.248 C 
ATOM     29  O   UNL     1       2.411  -4.963   2.224  0.00  0.00    -0.270 OA
ATOM     30  N   UNL     1       3.590  -5.098   0.347  0.00  0.00    -0.281 N 
ATOM     31  H   UNL     1       3.920  -4.658  -0.452  0.00  0.00    +0.155 HD
BRANCH  30  32
ATOM     32  C   UNL     1       3.833  -6.460   0.546  0.00  0.00    +0.034 A 
ATOM     33  C   UNL     1       5.034  -7.021   0.129  0.00  0.00    +0.023 A 
ATOM     34  C   UNL     1       5.272  -8.367   0.328  0.00  0.00    +0.002 A 
ATOM     35  C   UNL     1       4.316  -9.156   0.941  0.00  0.00    +0.004 A 
ATOM     36  C   UNL     1       3.119  -8.601   1.357  0.00  0.00    -0.043 A 
ATOM     37  C   UNL     1       2.878  -7.255   1.166  0.00  0.00    +0.027 A 
BRANCH  36  38
ATOM     38  C   UNL     1       2.080  -9.466   2.023  0.00  0.00    +0.013 C 
ATOM     39  C   UNL     1       1.657 -10.583   1.068  0.00  0.00    +0.012 C 
ATOM     40  C   UNL     1       2.667 -10.078   3.297  0.00  0.00    +0.012 C 
ENDBRANCH  36  38
ENDBRANCH  30  32
ENDBRANCH   5  28
TORSDOF 5
