REMARK  Name = CHEMBL567678
REMARK  9 active torsions:
REMARK  status: ('A' for Active; 'I' for Inactive)
REMARK    1  A    between atoms: C_1  and  N_2
REMARK    2  A    between atoms: N_5  and  C_8
REMARK    3  A    between atoms: C_8  and  C_9
REMARK    4  A    between atoms: C_12  and  C_15
REMARK    5  A    between atoms: C_21  and  N_27
REMARK    6  A    between atoms: C_22  and  C_25
REMARK    7  A    between atoms: N_27  and  C_28
REMARK    8  A    between atoms: C_30  and  O_36
REMARK    9  A    between atoms: O_36  and  C_37
REMARK                            x       y       z     vdW  Elec       q    Type
REMARK                         _______ _______ _______ _____ _____    ______ ____
ROOT
ATOM      1  C   UNL     1       1.527  -4.034  10.251  0.00  0.00    +0.001 A 
ATOM      2  C   UNL     1       2.903  -4.289  10.352  0.00  0.00    +0.012 A 
ATOM      3  C   UNL     1       3.406  -5.523  10.086  0.00  0.00    +0.029 A 
ATOM      4  C   UNL     1       2.546  -6.568   9.705  0.00  0.00    +0.073 A 
ATOM      5  C   UNL     1       1.156  -6.319   9.601  0.00  0.00    +0.023 A 
ATOM      6  C   UNL     1       0.653  -5.044   9.884  0.00  0.00    +0.022 A 
ATOM      7  C   UNL     1       0.295  -7.375   9.216  0.00  0.00    +0.060 A 
ATOM      8  C   UNL     1       0.872  -8.627   8.955  0.00  0.00    +0.091 A 
ATOM      9  C   UNL     1       2.261  -8.783   9.083  0.00  0.00    +0.132 A 
ATOM     10  N   UNL     1       3.033  -7.788   9.441  0.00  0.00    -0.254 NA
ENDROOT
BRANCH   1  14
ATOM     11  C   UNL     1       0.014  -0.198  11.082  0.00  0.00    -0.046 A 
ATOM     12  C   UNL     1       1.382  -0.403  11.188  0.00  0.00    +0.005 A 
ATOM     13  C   UNL     1       1.885  -1.663  10.916  0.00  0.00    +0.028 A 
ATOM     14  C   UNL     1       1.004  -2.678  10.546  0.00  0.00    +0.071 A 
ATOM     15  N   UNL     1      -0.298  -2.441  10.456  0.00  0.00    -0.255 NA
ATOM     16  C   UNL     1      -0.803  -1.252  10.715  0.00  0.00    +0.113 A 
BRANCH  11  17
ATOM     17  C   UNL     1      -0.577   1.158  11.369  0.00  0.00    -0.041 C 
BRANCH  17  22
ATOM     18  C   UNL     1      -1.068   2.660  16.777  0.00  0.00    +0.104 C 
ATOM     19  N   UNL     1      -0.757   2.521  15.348  0.00  0.00    -0.309 NA
ATOM     20  C   UNL     1      -1.976   2.615  14.533  0.00  0.00    +0.065 C 
ATOM     21  C   UNL     1      -1.603   2.526  13.051  0.00  0.00    -0.063 C 
ATOM     22  N   UNL     1      -0.919   1.251  12.794  0.00  0.00    +0.384 N 
ATOM     23  C   UNL     1       0.309   1.183  13.598  0.00  0.00    -0.063 C 
ATOM     24  C   UNL     1      -0.048   1.261  15.084  0.00  0.00    +0.065 C 
ATOM     25  H   UNL     1      -1.528   0.486  13.045  0.00  0.00    -0.081 HD
ENDBRANCH  17  22
ENDBRANCH  11  17
ENDBRANCH   1  14
BRANCH   8  26
ATOM     26  C   UNL     1       0.053  -9.734   8.562  0.00  0.00    +0.103 C 
ATOM     27  N   UNL     1      -0.597 -10.613   8.251  0.00  0.00    -0.191 NA
ENDBRANCH   8  26
BRANCH   7  28
ATOM     28  N   UNL     1      -1.066  -7.180   9.103  0.00  0.00    -0.312 N 
ATOM     29  H   UNL     1      -1.459  -7.000   8.234  0.00  0.00    +0.152 HD
BRANCH  28  30
ATOM     30  C   UNL     1      -1.878  -7.241  10.239  0.00  0.00    +0.053 A 
ATOM     31  C   UNL     1      -1.305  -7.379  11.496  0.00  0.00    +0.071 A 
ATOM     32  C   UNL     1      -2.113  -7.439  12.620  0.00  0.00    +0.140 A 
ATOM     33  C   UNL     1      -3.493  -7.360  12.488  0.00  0.00    +0.084 A 
ATOM     34  C   UNL     1      -4.063  -7.223  11.235  0.00  0.00    +0.045 A 
ATOM     35  C   UNL     1      -3.260  -7.158  10.112  0.00  0.00    +0.064 A 
ATOM     36 CL   UNL     1      -3.978  -6.978   8.542  0.00  0.00    -0.082 Cl
ATOM     37 CL   UNL     1      -4.505  -7.435  13.897  0.00  0.00    -0.080 Cl
BRANCH  32  38
ATOM     38  O   UNL     1      -1.555  -7.574  13.852  0.00  0.00    -0.494 OA
ATOM     39  C   UNL     1      -0.129  -7.529  13.927  0.00  0.00    +0.277 C 
ENDBRANCH  32  38
ENDBRANCH  28  30
ENDBRANCH   7  28
TORSDOF 7
