REMARK  Name = CHEMBL401251
REMARK  11 active torsions:
REMARK  status: ('A' for Active; 'I' for Inactive)
REMARK    1  A    between atoms: C_1  and  O_2
REMARK    2  A    between atoms: O_2  and  C_3
REMARK    3  A    between atoms: C_3  and  C_4
REMARK    4  A    between atoms: C_4  and  O_5
REMARK    5  A    between atoms: O_5  and  C_6
REMARK    6  A    between atoms: C_11  and  O_12
REMARK    7  A    between atoms: O_12  and  C_13
REMARK    8  A    between atoms: C_14  and  N_20
REMARK    9  A    between atoms: C_15  and  C_18
REMARK   10  A    between atoms: N_20  and  C_21
REMARK   11  A    between atoms: C_24  and  C_26
REMARK                            x       y       z     vdW  Elec       q    Type
REMARK                         _______ _______ _______ _____ _____    ______ ____
ROOT
ATOM      1  C   UNL     1      -0.774  -4.030  -0.107  0.00  0.00    +0.164 A 
ATOM      2  C   UNL     1       0.254  -4.873  -0.462  0.00  0.00    +0.077 A 
ATOM      3  C   UNL     1      -0.018  -6.220  -0.750  0.00  0.00    +0.076 A 
ATOM      4  C   UNL     1      -1.352  -6.686  -0.670  0.00  0.00    +0.026 A 
ATOM      5  C   UNL     1      -2.381  -5.806  -0.306  0.00  0.00    +0.061 A 
ATOM      6  C   UNL     1      -2.092  -4.502  -0.025  0.00  0.00    +0.162 A 
ATOM      7  C   UNL     1      -1.623  -8.043  -0.961  0.00  0.00    +0.056 A 
ATOM      8  C   UNL     1      -0.543  -8.865  -1.318  0.00  0.00    +0.091 A 
ATOM      9  C   UNL     1       0.748  -8.316  -1.373  0.00  0.00    +0.132 A 
ATOM     10  N   UNL     1       0.971  -7.056  -1.097  0.00  0.00    -0.253 NA
ENDROOT
BRANCH   6  11
ATOM     11  O   UNL     1      -3.091  -3.652   0.333  0.00  0.00    -0.491 OA
ATOM     12  C   UNL     1      -4.411  -4.193   0.399  0.00  0.00    +0.277 C 
ENDBRANCH   6  11
BRANCH   8  13
ATOM     13  C   UNL     1      -0.756 -10.247  -1.624  0.00  0.00    +0.103 C 
ATOM     14  N   UNL     1      -0.924 -11.344  -1.866  0.00  0.00    -0.191 NA
ENDBRANCH   8  13
BRANCH   7  15
ATOM     15  N   UNL     1      -2.908  -8.544  -0.896  0.00  0.00    -0.339 N 
ATOM     16  H   UNL     1      -3.665  -7.957  -1.047  0.00  0.00    +0.146 HD
BRANCH  15  17
ATOM     17  C   UNL     1      -3.127  -9.961  -0.599  0.00  0.00    +0.078 C 
ATOM     18  C   UNL     1      -3.960 -10.772  -1.594  0.00  0.00    +0.032 C 
ATOM     19  C   UNL     1      -4.549 -10.394  -0.233  0.00  0.00    +0.041 C 
BRANCH  19  20
ATOM     20  C   UNL     1      -4.700 -11.493   0.788  0.00  0.00    -0.042 A 
ATOM     21  C   UNL     1      -4.149 -12.738   0.550  0.00  0.00    +0.004 A 
ATOM     22  C   UNL     1      -4.289 -13.745   1.487  0.00  0.00    +0.000 A 
ATOM     23  C   UNL     1      -4.979 -13.507   2.661  0.00  0.00    +0.000 A 
ATOM     24  C   UNL     1      -5.529 -12.262   2.899  0.00  0.00    +0.000 A 
ATOM     25  C   UNL     1      -5.386 -11.253   1.964  0.00  0.00    +0.004 A 
ENDBRANCH  19  20
ENDBRANCH  15  17
ENDBRANCH   7  15
BRANCH   1  26
ATOM     26  O   UNL     1      -0.508  -2.727   0.172  0.00  0.00    -0.486 OA
BRANCH  26  27
ATOM     27  C   UNL     1       0.854  -2.307   0.071  0.00  0.00    +0.257 C 
BRANCH  27  28
ATOM     28  C   UNL     1       0.956  -0.821   0.420  0.00  0.00    +0.200 C 
BRANCH  28  30
ATOM     29  C   UNL     1       0.664   0.734   2.221  0.00  0.00    +0.194 C 
ATOM     30  O   UNL     1       0.602  -0.627   1.790  0.00  0.00    -0.380 OA
ENDBRANCH  28  30
ENDBRANCH  27  28
ENDBRANCH  26  27
ENDBRANCH   1  26
TORSDOF 9
