REMARK  Name = CHEMBL460074
REMARK  10 active torsions:
REMARK  status: ('A' for Active; 'I' for Inactive)
REMARK    1  A    between atoms: C_1  and  C_2
REMARK    2  A    between atoms: C_6  and  C_35
REMARK    3  A    between atoms: C_7  and  C_8
REMARK    4  A    between atoms: C_9  and  N_10
REMARK    5  A    between atoms: C_16  and  C_30
REMARK    6  A    between atoms: C_18  and  N_19
REMARK    7  A    between atoms: N_19  and  C_20
REMARK    8  A    between atoms: C_23  and  P_26
REMARK    9  A    between atoms: P_26  and  C_28
REMARK   10  A    between atoms: P_26  and  C_29
REMARK                            x       y       z     vdW  Elec       q    Type
REMARK                         _______ _______ _______ _____ _____    ______ ____
ROOT
ATOM      1  N   UNL     1      -1.187  -0.320   4.489  0.00  0.00    -0.290 N 
ATOM      2  C   UNL     1      -0.271   0.631   4.840  0.00  0.00    +0.206 A 
ATOM      3  N   UNL     1      -0.678   1.272   5.896  0.00  0.00    -0.230 NA
ATOM      4  C   UNL     1      -1.877   0.778   6.291  0.00  0.00    +0.148 A 
ATOM      5  C   UNL     1      -2.222  -0.244   5.391  0.00  0.00    +0.170 A 
ATOM      6  N   UNL     1      -3.369  -0.892   5.559  0.00  0.00    -0.212 NA
ATOM      7  C   UNL     1      -4.177  -0.581   6.551  0.00  0.00    +0.137 A 
ATOM      8  N   UNL     1      -3.898   0.373   7.419  0.00  0.00    -0.215 NA
ATOM      9  C   UNL     1      -2.768   1.070   7.337  0.00  0.00    +0.154 A 
ENDROOT
BRANCH   7  10
ATOM     10  C   UNL     1      -5.468  -1.344   6.701  0.00  0.00    +0.057 C 
ATOM     11  C   UNL     1      -6.663  -0.369   6.675  0.00  0.00    +0.011 C 
ATOM     12  C   UNL     1      -7.659  -0.961   7.703  0.00  0.00    +0.001 C 
ATOM     13  C   UNL     1      -6.725  -1.480   8.824  0.00  0.00    +0.001 C 
ATOM     14  C   UNL     1      -5.508  -2.050   8.068  0.00  0.00    +0.011 C 
ENDBRANCH   7  10
BRANCH   1  16
ATOM     15  C   UNL     1      -0.026  -1.160   2.613  0.00  0.00    +0.026 C 
ATOM     16  C   UNL     1      -1.094  -1.197   3.414  0.00  0.00    +0.095 C 
BRANCH  15  23
ATOM     17  C   UNL     1       2.168  -3.009   2.242  0.00  0.00    +0.044 C 
ATOM     18  C   UNL     1       1.072  -2.901   1.213  0.00  0.00    -0.043 A 
ATOM     19  C   UNL     1       1.105  -3.692   0.083  0.00  0.00    +0.004 A 
ATOM     20  C   UNL     1       0.100  -3.594  -0.863  0.00  0.00    +0.001 A 
ATOM     21  C   UNL     1      -0.945  -2.704  -0.682  0.00  0.00    +0.004 A 
ATOM     22  C   UNL     1      -0.990  -1.908   0.443  0.00  0.00    -0.043 A 
ATOM     23  C   UNL     1       0.019  -2.005   1.404  0.00  0.00    -0.018 A 
ATOM     24  C   UNL     1      -2.128  -0.939   0.637  0.00  0.00    +0.044 C 
ENDBRANCH  15  23
ENDBRANCH   1  16
BRANCH   9  25
ATOM     25  N   UNL     1      -2.485   2.071   8.252  0.00  0.00    -0.298 N 
ATOM     26  H   UNL     1      -1.707   2.635   8.127  0.00  0.00    +0.154 HD
BRANCH  25  27
ATOM     27  C   UNL     1      -3.322   2.267   9.354  0.00  0.00    +0.032 A 
ATOM     28  C   UNL     1      -3.954   1.183   9.950  0.00  0.00    +0.024 A 
ATOM     29  C   UNL     1      -4.779   1.380  11.039  0.00  0.00    +0.013 A 
ATOM     30  C   UNL     1      -4.977   2.655  11.537  0.00  0.00    +0.011 A 
ATOM     31  C   UNL     1      -4.350   3.737  10.946  0.00  0.00    +0.013 A 
ATOM     32  C   UNL     1      -3.518   3.546   9.860  0.00  0.00    +0.024 A 
BRANCH  30  33
ATOM     33  P   UNL     1      -6.063   2.910  12.967  0.00  0.00    +0.111 P 
ATOM     34  O   UNL     1      -6.030   1.709  13.832  0.00  0.00    -0.317 OA
ATOM     35  C   UNL     1      -5.489   4.357  13.916  0.00  0.00    +0.085 C 
ATOM     36  C   UNL     1      -7.769   3.198  12.392  0.00  0.00    +0.085 C 
ENDBRANCH  30  33
ENDBRANCH  25  27
ENDBRANCH   9  25
TORSDOF 6
