REMARK  Name = CHEMBL1079945
REMARK  6 active torsions:
REMARK  status: ('A' for Active; 'I' for Inactive)
REMARK    1  A    between atoms: C_1  and  C_2
REMARK    2  A    between atoms: C_5  and  N_25
REMARK    3  A    between atoms: C_7  and  N_8
REMARK    4  A    between atoms: C_20  and  N_24
REMARK    5  A    between atoms: C_26  and  C_28
REMARK    6  A    between atoms: C_32  and  C_34
REMARK                            x       y       z     vdW  Elec       q    Type
REMARK                         _______ _______ _______ _____ _____    ______ ____
ROOT
ATOM      1  C   UNL     1      -3.034   0.727   1.297  0.00  0.00    +0.045 C 
ATOM      2  C   UNL     1      -2.933  -0.776   1.315  0.00  0.00    -0.029 A 
ATOM      3  C   UNL     1      -3.777  -1.534   0.525  0.00  0.00    +0.007 A 
ATOM      4  C   UNL     1      -3.688  -2.913   0.539  0.00  0.00    +0.024 A 
ATOM      5  C   UNL     1      -2.748  -3.542   1.347  0.00  0.00    +0.035 A 
ATOM      6  C   UNL     1      -1.899  -2.784   2.140  0.00  0.00    +0.047 A 
ATOM      7  C   UNL     1      -1.987  -1.399   2.120  0.00  0.00    +0.038 A 
ENDROOT
BRANCH   7   8
ATOM      8  N   UNL     1      -1.129  -0.631   2.913  0.00  0.00    -0.284 N 
ATOM      9  C   UNL     1      -0.079  -1.233   3.575  0.00  0.00    +0.207 A 
ATOM     10  N   UNL     1       0.275  -2.487   3.443  0.00  0.00    -0.214 NA
ATOM     11  C   UNL     1       1.347  -2.747   4.237  0.00  0.00    +0.091 A 
ATOM     12  C   UNL     1       2.108  -3.894   4.476  0.00  0.00    +0.030 A 
ATOM     13  C   UNL     1       3.162  -3.844   5.361  0.00  0.00    +0.002 A 
ATOM     14  C   UNL     1       3.474  -2.663   6.018  0.00  0.00    +0.002 A 
ATOM     15  C   UNL     1       2.732  -1.521   5.793  0.00  0.00    +0.028 A 
ATOM     16  C   UNL     1       1.668  -1.553   4.905  0.00  0.00    +0.077 A 
ATOM     17  N   UNL     1       0.753  -0.607   4.465  0.00  0.00    -0.264 N 
ATOM     18  C   UNL     1       0.691   0.729   4.857  0.00  0.00    +0.145 A 
ATOM     19  C   UNL     1       0.551   1.736   3.909  0.00  0.00    +0.090 A 
ATOM     20  C   UNL     1       0.493   3.055   4.352  0.00  0.00    +0.121 A 
ATOM     21  N   UNL     1       0.574   3.302   5.657  0.00  0.00    -0.221 NA
ATOM     22  C   UNL     1       0.707   2.319   6.524  0.00  0.00    +0.225 A 
ATOM     23  N   UNL     1       0.760   1.058   6.144  0.00  0.00    -0.218 NA
ATOM     24  H   UNL     1      -1.273   0.324   2.998  0.00  0.00    +0.155 HD
BRANCH  20  25
ATOM     25  N   UNL     1       0.354   4.095   3.446  0.00  0.00    -0.343 N 
ATOM     26  H   UNL     1       0.296   3.907   2.496  0.00  0.00    +0.144 HD
ATOM     27  H   UNL     1       0.315   5.011   3.762  0.00  0.00    +0.144 HD
ENDBRANCH  20  25
ENDBRANCH   7   8
BRANCH   5  28
ATOM     28  N   UNL     1      -2.659  -4.937   1.361  0.00  0.00    -0.281 N 
ATOM     29  C   UNL     1      -2.910  -5.640   0.238  0.00  0.00    +0.248 C 
ATOM     30  O   UNL     1      -3.118  -5.058  -0.809  0.00  0.00    -0.270 OA
ATOM     31  H   UNL     1      -2.418  -5.400   2.179  0.00  0.00    +0.155 HD
BRANCH  29  32
ATOM     32  C   UNL     1      -2.931  -7.117   0.280  0.00  0.00    +0.038 A 
ATOM     33  C   UNL     1      -2.698  -7.788   1.482  0.00  0.00    +0.013 A 
ATOM     34  C   UNL     1      -2.720  -9.167   1.514  0.00  0.00    +0.001 A 
ATOM     35  C   UNL     1      -2.972  -9.885   0.358  0.00  0.00    +0.012 A 
ATOM     36  C   UNL     1      -3.203  -9.226  -0.836  0.00  0.00    +0.056 A 
ATOM     37  C   UNL     1      -3.190  -7.848  -0.881  0.00  0.00    +0.025 A 
BRANCH  36  38
ATOM     38  C   UNL     1      -3.477 -10.017  -2.090  0.00  0.00    +0.417 C 
ATOM     39  F   UNL     1      -3.444 -11.384  -1.795  0.00  0.00    -0.166 F 
ATOM     40  F   UNL     1      -4.738  -9.677  -2.589  0.00  0.00    -0.166 F 
ATOM     41  F   UNL     1      -2.501  -9.723  -3.048  0.00  0.00    -0.166 F 
ENDBRANCH  36  38
ENDBRANCH  29  32
ENDBRANCH   5  28
TORSDOF 5
