REMARK  Name = CHEMBL565546
REMARK  8 active torsions:
REMARK  status: ('A' for Active; 'I' for Inactive)
REMARK    1  A    between atoms: C_1  and  O_2
REMARK    2  A    between atoms: O_2  and  C_3
REMARK    3  A    between atoms: C_5  and  N_11
REMARK    4  A    between atoms: N_11  and  C_12
REMARK    5  A    between atoms: C_16  and  C_24
REMARK    6  A    between atoms: C_21  and  C_22
REMARK    7  A    between atoms: C_26  and  C_30
REMARK    8  A    between atoms: C_30  and  N_31
REMARK                            x       y       z     vdW  Elec       q    Type
REMARK                         _______ _______ _______ _____ _____    ______ ____
ROOT
ATOM      1  C   UNL     1      -4.637   1.720  -0.235  0.00  0.00    +0.060 A 
ATOM      2  C   UNL     1      -5.780   2.524  -0.013  0.00  0.00    +0.023 A 
ATOM      3  C   UNL     1      -6.987   1.959   0.425  0.00  0.00    +0.012 A 
ATOM      4  C   UNL     1      -8.073   2.751   0.632  0.00  0.00    +0.011 A 
ATOM      5  C   UNL     1      -8.002   4.134   0.411  0.00  0.00    +0.002 A 
ATOM      6  C   UNL     1      -6.824   4.719  -0.021  0.00  0.00    +0.038 A 
ATOM      7  C   UNL     1      -5.693   3.919  -0.240  0.00  0.00    +0.073 A 
ATOM      8  N   UNL     1      -4.542   4.465  -0.658  0.00  0.00    -0.254 NA
ATOM      9  C   UNL     1      -3.469   3.746  -0.870  0.00  0.00    +0.132 A 
ATOM     10  C   UNL     1      -3.463   2.356  -0.667  0.00  0.00    +0.091 A 
ENDROOT
BRANCH   5  11
ATOM     11  C   UNL     1      -9.199   4.978   0.643  0.00  0.00    +0.071 A 
ATOM     12  C   UNL     1     -10.351   4.410   1.183  0.00  0.00    +0.033 A 
ATOM     13  C   UNL     1     -11.460   5.210   1.394  0.00  0.00    -0.030 A 
ATOM     14  C   UNL     1     -11.381   6.554   1.059  0.00  0.00    +0.024 A 
ATOM     15  C   UNL     1     -10.206   7.052   0.527  0.00  0.00    +0.112 A 
ATOM     16  N   UNL     1      -9.162   6.269   0.341  0.00  0.00    -0.255 NA
BRANCH  13  17
ATOM     17  C   UNL     1     -12.726   4.634   1.975  0.00  0.00    +0.119 C 
BRANCH  17  18
ATOM     18  N   UNL     1     -12.684   4.739   3.440  0.00  0.00    -0.294 NA
ATOM     19  C   UNL     1     -11.629   3.881   3.999  0.00  0.00    +0.113 C 
ATOM     20  C   UNL     1     -11.581   4.065   5.518  0.00  0.00    +0.175 C 
ATOM     21  O   UNL     1     -12.867   3.771   6.070  0.00  0.00    -0.377 OA
ATOM     22  C   UNL     1     -13.918   4.588   5.548  0.00  0.00    +0.175 C 
ATOM     23  C   UNL     1     -13.990   4.409   4.029  0.00  0.00    +0.113 C 
ENDBRANCH  17  18
ENDBRANCH  13  17
ENDBRANCH   5  11
BRANCH   1  24
ATOM     24  N   UNL     1      -4.673   0.357  -0.029  0.00  0.00    -0.312 N 
ATOM     25  H   UNL     1      -5.520  -0.115  -0.055  0.00  0.00    +0.152 HD
BRANCH  24  28
ATOM     26  C   UNL     1      -1.843  -1.954  -0.463  0.00  0.00    +0.140 A 
ATOM     27  C   UNL     1      -3.017  -1.260  -0.711  0.00  0.00    +0.071 A 
ATOM     28  C   UNL     1      -3.489  -0.345   0.219  0.00  0.00    +0.053 A 
ATOM     29  C   UNL     1      -2.784  -0.126   1.397  0.00  0.00    +0.064 A 
ATOM     30  C   UNL     1      -1.613  -0.819   1.641  0.00  0.00    +0.045 A 
ATOM     31  C   UNL     1      -1.145  -1.736   0.717  0.00  0.00    +0.084 A 
ATOM     32 CL   UNL     1       0.322  -2.610   1.031  0.00  0.00    -0.080 Cl
ATOM     33 CL   UNL     1      -3.373   1.019   2.561  0.00  0.00    -0.082 Cl
BRANCH  26  35
ATOM     34  C   UNL     1      -2.081  -2.942  -2.613  0.00  0.00    +0.277 C 
ATOM     35  O   UNL     1      -1.378  -2.852  -1.372  0.00  0.00    -0.494 OA
ENDBRANCH  26  35
ENDBRANCH  24  28
ENDBRANCH   1  24
BRANCH  10  36
ATOM     36  C   UNL     1      -2.273   1.596  -0.903  0.00  0.00    +0.103 C 
ATOM     37  N   UNL     1      -1.329   0.993  -1.090  0.00  0.00    -0.191 NA
ENDBRANCH  10  36
TORSDOF 7
