REMARK  Name = CHEMBL84807
REMARK  2 active torsions:
REMARK  status: ('A' for Active; 'I' for Inactive)
REMARK    1  A    between atoms: C_6  and  N_7
REMARK    2  A    between atoms: C_11  and  C_12
REMARK                            x       y       z     vdW  Elec       q    Type
REMARK                         _______ _______ _______ _____ _____    ______ ____
ROOT
ATOM      1  C   UNL     1       0.004   1.314  -0.635  0.00  0.00    +0.023 A 
ATOM      2  C   UNL     1       1.192   2.012  -0.736  0.00  0.00    +0.014 A 
ATOM      3  C   UNL     1       2.403   1.374  -0.476  0.00  0.00    +0.033 A 
ATOM      4  C   UNL     1       2.412   0.015  -0.110  0.00  0.00    +0.035 A 
ATOM      5  C   UNL     1       1.214  -0.679  -0.012  0.00  0.00    +0.035 A 
ATOM      6  C   UNL     1       0.009  -0.028  -0.274  0.00  0.00    +0.025 A 
ATOM      7  C   UNL     1       3.815  -0.415   0.107  0.00  0.00    +0.198 C 
ATOM      8  O   UNL     1       4.183  -1.527   0.433  0.00  0.00    -0.287 OA
ATOM      9  C   UNL     1       4.682   0.751  -0.142  0.00  0.00    +0.070 C 
ATOM     10  C   UNL     1       6.055   0.786  -0.052  0.00  0.00    +0.023 C 
ATOM     11  C   UNL     1       3.796   1.872  -0.508  0.00  0.00    +0.198 C 
ATOM     12  O   UNL     1       4.147   3.002  -0.786  0.00  0.00    -0.287 OA
ENDROOT
BRANCH  10  13
ATOM     13  C   UNL     1       6.764   2.063  -0.162  0.00  0.00    -0.022 A 
ATOM     14  C   UNL     1       7.965   2.142  -0.882  0.00  0.00    +0.027 A 
ATOM     15  C   UNL     1       8.626   3.345  -0.982  0.00  0.00    +0.066 A 
ATOM     16  C   UNL     1       8.105   4.481  -0.372  0.00  0.00    +0.207 A 
ATOM     17  C   UNL     1       6.913   4.410   0.343  0.00  0.00    +0.066 A 
ATOM     18  C   UNL     1       6.240   3.213   0.446  0.00  0.00    +0.027 A 
ATOM     19 BR   UNL     1       6.213   5.960   1.169  0.00  0.00    -0.046 Br
ATOM     20  O   UNL     1       8.762   5.665  -0.474  0.00  0.00    -0.286 OA
ATOM     21 BR   UNL     1      10.246   3.453  -1.952  0.00  0.00    -0.046 Br
ENDBRANCH  10  13
BRANCH   6  22
ATOM     22  N   UNL     1      -1.190  -0.724  -0.175  0.00  0.00    -0.358 N 
ATOM     23  H   UNL     1      -2.029  -0.273  -0.357  0.00  0.00    +0.142 HD
ATOM     24  H   UNL     1      -1.188  -1.661   0.077  0.00  0.00    +0.142 HD
ENDBRANCH   6  22
TORSDOF 2
