REMARK  Name = CHEMBL352877
REMARK  8 active torsions:
REMARK  status: ('A' for Active; 'I' for Inactive)
REMARK    1  A    between atoms: C_1  and  O_2
REMARK    2  A    between atoms: O_2  and  C_3
REMARK    3  A    between atoms: C_8  and  O_9
REMARK    4  A    between atoms: O_9  and  C_10
REMARK    5  A    between atoms: C_10  and  C_11
REMARK    6  A    between atoms: C_11  and  C_12
REMARK    7  A    between atoms: C_12  and  N_13
REMARK    8  A    between atoms: N_23  and  C_24
REMARK                            x       y       z     vdW  Elec       q    Type
REMARK                         _______ _______ _______ _____ _____    ______ ____
ROOT
ATOM      1  C   UNL     1      -0.388  -1.374  -1.122  0.00  0.00    +0.164 A 
ATOM      2  C   UNL     1      -1.000  -1.243  -2.349  0.00  0.00    +0.078 A 
ATOM      3  C   UNL     1      -0.416  -1.832  -3.477  0.00  0.00    +0.080 A 
ATOM      4  C   UNL     1       0.795  -2.553  -3.338  0.00  0.00    +0.044 A 
ATOM      5  C   UNL     1       1.397  -2.671  -2.080  0.00  0.00    +0.062 A 
ATOM      6  C   UNL     1       0.814  -2.084  -0.993  0.00  0.00    +0.163 A 
ATOM      7  C   UNL     1       1.362  -3.136  -4.497  0.00  0.00    +0.134 A 
ATOM      8  N   UNL     1       0.729  -2.978  -5.653  0.00  0.00    -0.220 NA
ATOM      9  C   UNL     1      -0.402  -2.296  -5.734  0.00  0.00    +0.223 A 
ATOM     10  N   UNL     1      -0.972  -1.734  -4.695  0.00  0.00    -0.235 NA
ATOM     11  N   UNL     1       2.541  -3.850  -4.427  0.00  0.00    -0.295 N 
ATOM     12  H   UNL     1       2.996  -3.953  -3.576  0.00  0.00    +0.154 HD
ENDROOT
BRANCH  11  13
ATOM     13  C   UNL     1       3.080  -4.427  -5.584  0.00  0.00    +0.097 A 
ATOM     14  C   UNL     1       2.788  -5.748  -5.904  0.00  0.00    +0.066 A 
ATOM     15  C   UNL     1       3.320  -6.317  -7.045  0.00  0.00    +0.025 A 
ATOM     16  C   UNL     1       4.144  -5.576  -7.873  0.00  0.00    +0.051 A 
ATOM     17  C   UNL     1       4.440  -4.257  -7.562  0.00  0.00    +0.168 A 
ATOM     18  C   UNL     1       3.903  -3.678  -6.417  0.00  0.00    +0.189 A 
ATOM     19  O   UNL     1       4.335  -2.385  -6.338  0.00  0.00    -0.451 OA
ATOM     20  C   UNL     1       5.463  -2.301  -7.229  0.00  0.00    +0.466 C 
ATOM     21  O   UNL     1       5.210  -3.329  -8.201  0.00  0.00    -0.453 OA
ATOM     22 CL   UNL     1       1.756  -6.684  -4.868  0.00  0.00    -0.081 Cl
ENDBRANCH  11  13
BRANCH   1  24
ATOM     23  C   UNL     1      -2.176  -0.093  -0.221  0.00  0.00    +0.277 C 
ATOM     24  O   UNL     1      -0.952  -0.803  -0.026  0.00  0.00    -0.491 OA
ENDBRANCH   1  24
BRANCH   6  25
ATOM     25  O   UNL     1       1.402  -2.195   0.228  0.00  0.00    -0.488 OA
BRANCH  25  26
ATOM     26  C   UNL     1       2.625  -2.931   0.294  0.00  0.00    +0.227 C 
BRANCH  26  27
ATOM     27  C   UNL     1       3.133  -2.946   1.737  0.00  0.00    +0.022 C 
BRANCH  27  28
ATOM     28  C   UNL     1       4.442  -3.735   1.808  0.00  0.00    -0.075 C 
BRANCH  28  29
ATOM     29  N   UNL     1       4.930  -3.750   3.194  0.00  0.00    +0.383 N 
ATOM     30  C   UNL     1       5.278  -2.383   3.606  0.00  0.00    -0.050 C 
ATOM     31  C   UNL     1       5.785  -2.401   5.050  0.00  0.00    +0.141 C 
ATOM     32  O   UNL     1       6.910  -3.280   5.143  0.00  0.00    -0.383 OA
ATOM     33  C   UNL     1       6.628  -4.619   4.729  0.00  0.00    +0.141 C 
ATOM     34  C   UNL     1       6.121  -4.605   3.285  0.00  0.00    -0.050 C 
ATOM     35  H   UNL     1       4.209  -4.111   3.801  0.00  0.00    -0.082 HD
ENDBRANCH  28  29
ENDBRANCH  27  28
ENDBRANCH  26  27
ENDBRANCH  25  26
ENDBRANCH   6  25
TORSDOF 7
