REMARK  Name = CHEMBL83305
REMARK  7 active torsions:
REMARK  status: ('A' for Active; 'I' for Inactive)
REMARK    1  A    between atoms: C_1  and  C_2
REMARK    2  A    between atoms: N_15  and  O_16
REMARK    3  A    between atoms: O_16  and  C_17
REMARK    4  A    between atoms: C_17  and  C_18
REMARK    5  A    between atoms: N_20  and  C_21
REMARK    6  A    between atoms: C_30  and  O_36
REMARK    7  A    between atoms: C_32  and  O_35
REMARK                            x       y       z     vdW  Elec       q    Type
REMARK                         _______ _______ _______ _____ _____    ______ ____
ROOT
ATOM      1  C   UNL     1       0.067   1.605   0.197  0.00  0.00    +0.052 C 
ATOM      2  C   UNL     1       0.068   0.074   0.219  0.00  0.00    +0.176 C 
ATOM      3  C   UNL     1      -1.375  -0.420   0.301  0.00  0.00    +0.079 C 
ATOM      4  C   UNL     1      -1.671  -1.252  -0.951  0.00  0.00    +0.155 C 
ATOM      5  C   UNL     1      -1.474  -0.587  -2.315  0.00  0.00    +0.170 C 
ATOM      6  O   UNL     1      -2.769  -0.886  -1.792  0.00  0.00    -0.364 OA
ATOM      7  C   UNL     1      -0.896  -1.461  -3.402  0.00  0.00    +0.007 C 
ATOM      8  C   UNL     1       0.417  -1.449  -3.614  0.00  0.00    -0.002 C 
ATOM      9  C   UNL     1       1.302  -0.587  -2.857  0.00  0.00    +0.002 C 
ATOM     10  C   UNL     1       2.543  -0.887  -2.453  0.00  0.00    +0.027 C 
ATOM     11  C   UNL     1       3.320   0.113  -1.725  0.00  0.00    +0.084 C 
ATOM     12  N   UNL     1       3.038   1.373  -1.860  0.00  0.00    -0.089 NA
ATOM     13  C   UNL     1       4.425  -0.284  -0.779  0.00  0.00    +0.096 C 
ATOM     14  C   UNL     1       4.305   0.596   0.449  0.00  0.00    -0.002 A 
ATOM     15  C   UNL     1       3.201   0.467   1.291  0.00  0.00    +0.105 A 
ATOM     16  C   UNL     1       3.101   1.306   2.423  0.00  0.00    +0.135 A 
ATOM     17  C   UNL     1       4.087   2.244   2.673  0.00  0.00    +0.093 A 
ATOM     18  C   UNL     1       5.177   2.358   1.823  0.00  0.00    +0.139 A 
ATOM     19  C   UNL     1       5.279   1.525   0.711  0.00  0.00    +0.087 A 
ATOM     20 CL   UNL     1       6.650   1.671  -0.347  0.00  0.00    -0.079 Cl
ATOM     21  C   UNL     1       2.156  -0.516   1.048  0.00  0.00    +0.343 C 
ATOM     22  O   UNL     1       2.461  -1.556   0.502  0.00  0.00    -0.245 OA
ATOM     23  O   UNL     1       0.855  -0.366   1.333  0.00  0.00    -0.458 OA
ENDROOT
BRANCH  18  24
ATOM     24  O   UNL     1       6.138   3.283   2.069  0.00  0.00    -0.505 OA
ATOM     25  H   UNL     1       6.859   2.961   2.628  0.00  0.00    +0.292 HD
ENDBRANCH  18  24
BRANCH  16  26
ATOM     26  O   UNL     1       2.048   1.193   3.267  0.00  0.00    -0.506 OA
ATOM     27  H   UNL     1       2.189   0.568   3.991  0.00  0.00    +0.292 HD
ENDBRANCH  16  26
BRANCH  12  28
ATOM     28  O   UNL     1       2.100   1.788  -2.836  0.00  0.00    -0.384 OA
BRANCH  28  29
ATOM     29  C   UNL     1       1.886   3.201  -2.873  0.00  0.00    +0.358 C 
BRANCH  29  30
ATOM     30  C   UNL     1       0.876   3.528  -3.942  0.00  0.00    +0.258 C 
ATOM     31  O   UNL     1       0.387   2.639  -4.607  0.00  0.00    -0.272 OA
ATOM     32  N   UNL     1       0.516   4.809  -4.159  0.00  0.00    -0.281 N 
ATOM     33  H   UNL     1       0.960   5.526  -3.681  0.00  0.00    +0.155 HD
BRANCH  32  34
ATOM     34  C   UNL     1      -0.500   5.104  -5.076  0.00  0.00    +0.052 A 
ATOM     35  C   UNL     1      -1.585   4.244  -5.230  0.00  0.00    +0.026 A 
ATOM     36  C   UNL     1      -2.565   4.580  -6.149  0.00  0.00    +0.021 A 
ATOM     37  C   UNL     1      -2.436   5.747  -6.878  0.00  0.00    +0.111 A 
ATOM     38  N   UNL     1      -1.396   6.540  -6.709  0.00  0.00    -0.261 NA
ATOM     39  C   UNL     1      -0.444   6.261  -5.841  0.00  0.00    +0.134 A 
ENDBRANCH  32  34
ENDBRANCH  29  30
ENDBRANCH  28  29
ENDBRANCH  12  28
TORSDOF 6
