REMARK  Name = CHEMBL383593
REMARK  12 active torsions:
REMARK  status: ('A' for Active; 'I' for Inactive)
REMARK    1  A    between atoms: C_1  and  C_2
REMARK    2  A    between atoms: C_2  and  C_3
REMARK    3  A    between atoms: C_2  and  O_4
REMARK    4  A    between atoms: O_4  and  C_5
REMARK    5  A    between atoms: C_7  and  O_25
REMARK    6  A    between atoms: C_20  and  O_22
REMARK    7  A    between atoms: O_22  and  C_23
REMARK    8  A    between atoms: O_25  and  C_26
REMARK    9  A    between atoms: C_26  and  C_27
REMARK   10  A    between atoms: C_27  and  C_28
REMARK   11  A    between atoms: C_28  and  N_29
REMARK   12  A    between atoms: C_35  and  C_37
REMARK                            x       y       z     vdW  Elec       q    Type
REMARK                         _______ _______ _______ _____ _____    ______ ____
ROOT
ATOM      1  C   UNL     1      -1.082  -1.549  -0.742  0.00  0.00    +0.137 A 
ATOM      2  C   UNL     1      -0.018  -2.224  -1.301  0.00  0.00    +0.092 A 
ATOM      3  C   UNL     1      -0.226  -3.380  -2.054  0.00  0.00    +0.126 A 
ATOM      4  C   UNL     1      -1.499  -3.874  -2.255  0.00  0.00    +0.074 A 
ATOM      5  C   UNL     1      -2.596  -3.209  -1.698  0.00  0.00    +0.083 A 
ATOM      6  C   UNL     1      -2.386  -2.038  -0.929  0.00  0.00    +0.082 A 
ATOM      7  C   UNL     1      -3.514  -1.391  -0.375  0.00  0.00    +0.139 A 
ATOM      8  N   UNL     1      -4.712  -1.917  -0.599  0.00  0.00    -0.220 NA
ATOM      9  C   UNL     1      -4.861  -3.016  -1.320  0.00  0.00    +0.223 A 
ATOM     10  N   UNL     1      -3.853  -3.652  -1.868  0.00  0.00    -0.235 NA
ATOM     11  N   UNL     1      -3.373  -0.243   0.379  0.00  0.00    -0.282 N 
ATOM     12  C   UNL     1      -4.480   0.311   1.016  0.00  0.00    +0.146 A 
ATOM     13  C   UNL     1      -4.332   1.470   1.770  0.00  0.00    +0.081 A 
ATOM     14  C   UNL     1      -5.440   2.013   2.400  0.00  0.00    +0.028 A 
ATOM     15  C   UNL     1      -6.663   1.377   2.255  0.00  0.00    +0.069 A 
ATOM     16  C   UNL     1      -6.740   0.223   1.489  0.00  0.00    +0.216 A 
ATOM     17  N   UNL     1      -5.665  -0.268   0.895  0.00  0.00    -0.196 NA
ATOM     18 CL   UNL     1      -2.777   2.228   1.920  0.00  0.00    -0.080 Cl
ATOM     19  H   UNL     1      -2.503   0.177   0.465  0.00  0.00    +0.155 HD
ENDROOT
BRANCH  16  20
ATOM     20  O   UNL     1      -7.934  -0.406   1.342  0.00  0.00    -0.480 OA
ATOM     21  C   UNL     1      -7.950  -1.589   0.541  0.00  0.00    +0.279 C 
ENDBRANCH  16  20
BRANCH   1  22
ATOM     22  O   UNL     1      -0.871  -0.425  -0.011  0.00  0.00    -0.488 OA
BRANCH  22  24
ATOM     23  C   UNL     1       0.424   1.611   0.117  0.00  0.00    +0.051 C 
ATOM     24  C   UNL     1       0.463   0.085   0.025  0.00  0.00    +0.167 C 
ATOM     25  C   UNL     1       1.193  -0.481   1.246  0.00  0.00    +0.051 C 
ENDBRANCH  22  24
ENDBRANCH   1  22
BRANCH   3  26
ATOM     26  O   UNL     1       0.838  -4.027  -2.595  0.00  0.00    -0.492 OA
BRANCH  26  27
ATOM     27  C   UNL     1       0.562  -5.205  -3.356  0.00  0.00    +0.230 C 
BRANCH  27  28
ATOM     28  C   UNL     1       1.873  -5.792  -3.882  0.00  0.00    +0.056 C 
BRANCH  28  29
ATOM     29  C   UNL     1       1.577  -7.053  -4.696  0.00  0.00    +0.088 C 
BRANCH  29  30
ATOM     30  N   UNL     1       2.837  -7.616  -5.201  0.00  0.00    -0.299 NA
ATOM     31  C   UNL     1       3.469  -6.708  -6.167  0.00  0.00    +0.103 C 
ATOM     32  C   UNL     1       4.859  -7.242  -6.531  0.00  0.00    +0.123 C 
ATOM     33  N   UNL     1       4.720  -8.634  -6.985  0.00  0.00    -0.299 N 
ATOM     34  C   UNL     1       3.977  -9.574  -6.131  0.00  0.00    +0.123 C 
ATOM     35  C   UNL     1       2.622  -8.948  -5.783  0.00  0.00    +0.103 C 
ATOM     36  C   UNL     1       5.260  -9.039  -8.152  0.00  0.00    +0.213 C 
ATOM     37  O   UNL     1       5.780  -8.231  -8.891  0.00  0.00    -0.276 OA
ATOM     38  C   UNL     1       5.216 -10.495  -8.538  0.00  0.00    +0.109 C 
ENDBRANCH  29  30
ENDBRANCH  28  29
ENDBRANCH  27  28
ENDBRANCH  26  27
ENDBRANCH   3  26
TORSDOF 8
