REMARK  Name = CHEMBL193452
REMARK  10 active torsions:
REMARK  status: ('A' for Active; 'I' for Inactive)
REMARK    1  A    between atoms: C_1  and  N_2
REMARK    2  A    between atoms: N_2  and  C_3
REMARK    3  A    between atoms: N_2  and  C_4
REMARK    4  A    between atoms: C_4  and  C_5
REMARK    5  A    between atoms: C_8  and  C_11
REMARK    6  A    between atoms: C_16  and  N_22
REMARK    7  A    between atoms: C_17  and  C_20
REMARK    8  A    between atoms: N_22  and  C_23
REMARK    9  A    between atoms: C_25  and  O_31
REMARK   10  A    between atoms: O_31  and  C_32
REMARK                            x       y       z     vdW  Elec       q    Type
REMARK                         _______ _______ _______ _____ _____    ______ ____
ROOT
ATOM      1  C   UNL     1       9.794  -0.609  -3.026  0.00  0.00    +0.040 A 
ATOM      2  C   UNL     1       9.720  -0.739  -1.675  0.00  0.00    +0.046 A 
ATOM      3  C   UNL     1       9.777   0.401  -0.854  0.00  0.00    +0.081 A 
ATOM      4  C   UNL     1       9.911   1.630  -1.536  0.00  0.00    +0.061 A 
ATOM      5  S   UNL     1       9.959   1.155  -3.245  0.00  0.00    -0.083 S 
ATOM      6  C   UNL     1       9.980   2.838  -0.865  0.00  0.00    +0.066 A 
ATOM      7  C   UNL     1       9.913   2.811   0.545  0.00  0.00    +0.092 A 
ATOM      8  C   UNL     1       9.780   1.566   1.174  0.00  0.00    +0.132 A 
ATOM      9  N   UNL     1       9.718   0.451   0.500  0.00  0.00    -0.253 NA
ENDROOT
BRANCH   1  13
ATOM     10  C   UNL     1       9.683  -3.639  -5.935  0.00  0.00    -0.046 A 
ATOM     11  C   UNL     1       9.681  -2.318  -6.361  0.00  0.00    +0.005 A 
ATOM     12  C   UNL     1       9.718  -1.316  -5.407  0.00  0.00    +0.029 A 
ATOM     13  C   UNL     1       9.755  -1.667  -4.057  0.00  0.00    +0.078 A 
ATOM     14  N   UNL     1       9.755  -2.943  -3.692  0.00  0.00    -0.254 NA
ATOM     15  C   UNL     1       9.714  -3.915  -4.580  0.00  0.00    +0.113 A 
BRANCH  10  16
ATOM     16  C   UNL     1       9.644  -4.762  -6.939  0.00  0.00    -0.042 C 
BRANCH  16  18
ATOM     17  C   UNL     1       7.586  -3.977  -7.889  0.00  0.00    -0.096 C 
ATOM     18  N   UNL     1       8.247  -5.111  -7.230  0.00  0.00    +0.379 N 
ATOM     19  C   UNL     1       8.208  -6.282  -8.115  0.00  0.00    -0.096 C 
ATOM     20  H   UNL     1       7.767  -5.325  -6.368  0.00  0.00    -0.082 HD
ENDBRANCH  16  18
ENDBRANCH  10  16
ENDBRANCH   1  13
BRANCH   7  21
ATOM     21  C   UNL     1       9.979   4.020   1.309  0.00  0.00    +0.103 C 
ATOM     22  N   UNL     1      10.031   4.979   1.916  0.00  0.00    -0.191 NA
ENDBRANCH   7  21
BRANCH   6  23
ATOM     23  N   UNL     1      10.112   4.034  -1.553  0.00  0.00    -0.311 N 
ATOM     24  H   UNL     1      10.991   4.344  -1.823  0.00  0.00    +0.152 HD
BRANCH  23  25
ATOM     25  C   UNL     1       8.979   4.794  -1.858  0.00  0.00    +0.054 A 
ATOM     26  C   UNL     1       7.734   4.408  -1.380  0.00  0.00    +0.071 A 
ATOM     27  C   UNL     1       6.613   5.163  -1.684  0.00  0.00    +0.140 A 
ATOM     28  C   UNL     1       6.736   6.303  -2.467  0.00  0.00    +0.084 A 
ATOM     29  C   UNL     1       7.976   6.687  -2.943  0.00  0.00    +0.045 A 
ATOM     30  C   UNL     1       9.098   5.940  -2.636  0.00  0.00    +0.064 A 
ATOM     31 CL   UNL     1      10.655   6.428  -3.229  0.00  0.00    -0.082 Cl
ATOM     32 CL   UNL     1       5.331   7.249  -2.848  0.00  0.00    -0.080 Cl
BRANCH  27  33
ATOM     33  O   UNL     1       5.393   4.787  -1.218  0.00  0.00    -0.494 OA
ATOM     34  C   UNL     1       5.321   3.544  -0.516  0.00  0.00    +0.277 C 
ENDBRANCH  27  33
ENDBRANCH  23  25
ENDBRANCH   6  23
TORSDOF 7
