REMARK  Name = CHEMBL106992
REMARK  5 active torsions:
REMARK  status: ('A' for Active; 'I' for Inactive)
REMARK    1  A    between atoms: C_1  and  N_2
REMARK    2  A    between atoms: C_5  and  N_21
REMARK    3  A    between atoms: C_10  and  C_13
REMARK    4  A    between atoms: N_21  and  C_22
REMARK    5  A    between atoms: C_25  and  N_28
REMARK                            x       y       z     vdW  Elec       q    Type
REMARK                         _______ _______ _______ _____ _____    ______ ____
ROOT
ATOM      1  C   UNL     1      -0.021   1.468   0.083  0.00  0.00    +0.152 C 
ATOM      2  N   UNL     1       0.002   0.006  -0.007  0.00  0.00    -0.311 N 
ATOM      3  C   UNL     1      -1.182  -0.694  -0.040  0.00  0.00    +0.056 A 
ATOM      4  C   UNL     1      -2.406  -0.036   0.011  0.00  0.00    +0.070 A 
ATOM      5  C   UNL     1      -3.572  -0.787  -0.026  0.00  0.00    +0.125 A 
ATOM      6  N   UNL     1      -3.537  -2.113  -0.107  0.00  0.00    -0.239 NA
ATOM      7  C   UNL     1      -2.407  -2.783  -0.157  0.00  0.00    +0.122 A 
ATOM      8  C   UNL     1      -1.182  -2.103  -0.126  0.00  0.00    +0.018 A 
ATOM      9  C   UNL     1       0.044  -2.807  -0.178  0.00  0.00    +0.025 A 
ATOM     10  C   UNL     1       1.218  -2.104  -0.144  0.00  0.00    +0.050 A 
ATOM     11  C   UNL     1       1.182  -0.642  -0.062  0.00  0.00    +0.259 A 
ATOM     12  O   UNL     1       2.223  -0.010  -0.037  0.00  0.00    -0.267 OA
ENDROOT
BRANCH  10  13
ATOM     13  C   UNL     1       2.515  -2.816  -0.198  0.00  0.00    +0.024 A 
ATOM     14  C   UNL     1       3.136  -3.232   0.981  0.00  0.00    +0.050 A 
ATOM     15  C   UNL     1       4.346  -3.895   0.924  0.00  0.00    +0.021 A 
ATOM     16  C   UNL     1       4.943  -4.148  -0.298  0.00  0.00    +0.003 A 
ATOM     17  C   UNL     1       4.333  -3.739  -1.470  0.00  0.00    +0.021 A 
ATOM     18  C   UNL     1       3.120  -3.079  -1.428  0.00  0.00    +0.050 A 
ATOM     19 CL   UNL     1       2.353  -2.573  -2.901  0.00  0.00    -0.083 Cl
ATOM     20 CL   UNL     1       2.389  -2.915   2.515  0.00  0.00    -0.083 Cl
ENDBRANCH  10  13
BRANCH   5  21
ATOM     21  N   UNL     1      -4.799  -0.141   0.024  0.00  0.00    -0.299 N 
ATOM     22  H   UNL     1      -4.836   0.822   0.131  0.00  0.00    +0.154 HD
BRANCH  21  23
ATOM     23  C   UNL     1      -5.984  -0.879  -0.080  0.00  0.00    +0.032 A 
ATOM     24  C   UNL     1      -7.077  -0.347  -0.752  0.00  0.00    +0.025 A 
ATOM     25  C   UNL     1      -8.246  -1.076  -0.856  0.00  0.00    +0.025 A 
ATOM     26  C   UNL     1      -8.328  -2.340  -0.288  0.00  0.00    +0.030 A 
ATOM     27  C   UNL     1      -7.235  -2.873   0.384  0.00  0.00    +0.025 A 
ATOM     28  C   UNL     1      -6.065  -2.146   0.483  0.00  0.00    +0.025 A 
BRANCH  26  29
ATOM     29  N   UNL     1      -9.512  -3.079  -0.393  0.00  0.00    -0.326 N 
ATOM     30  C   UNL     1     -10.633  -2.599  -1.216  0.00  0.00    +0.133 C 
ATOM     31  C   UNL     1     -11.073  -3.737  -2.145  0.00  0.00    +0.178 C 
ATOM     32  O   UNL     1     -11.313  -4.913  -1.367  0.00  0.00    -0.377 OA
ATOM     33  C   UNL     1     -10.159  -5.410  -0.685  0.00  0.00    +0.178 C 
ATOM     34  C   UNL     1      -9.671  -4.360   0.314  0.00  0.00    +0.133 C 
ENDBRANCH  26  29
ENDBRANCH  21  23
ENDBRANCH   5  21
TORSDOF 4
