REMARK  Name = CHEMBL122640
REMARK  16 active torsions:
REMARK  status: ('A' for Active; 'I' for Inactive)
REMARK    1  A    between atoms: C_1  and  C_2
REMARK    2  A    between atoms: N_4  and  C_5
REMARK    3  A    between atoms: C_5  and  C_7
REMARK    4  A    between atoms: C_5  and  C_19
REMARK    5  A    between atoms: C_7  and  C_8
REMARK    6  A    between atoms: C_11  and  O_14
REMARK    7  A    between atoms: O_14  and  P_15
REMARK    8  A    between atoms: N_21  and  C_22
REMARK    9  A    between atoms: C_22  and  C_24
REMARK   10  A    between atoms: C_22  and  C_29
REMARK   11  A    between atoms: C_24  and  C_25
REMARK   12  A    between atoms: C_25  and  C_26
REMARK   13  A    between atoms: N_31  and  C_32
REMARK   14  A    between atoms: C_32  and  C_33
REMARK   15  A    between atoms: C_33  and  C_34
REMARK   16  A    between atoms: C_34  and  C_35
REMARK                            x       y       z     vdW  Elec       q    Type
REMARK                         _______ _______ _______ _____ _____    ______ ____
ROOT
ATOM      1  C   UNL     1      -1.197  -2.659  -0.458  0.00  0.00    +0.234 C 
ATOM      2  O   UNL     1      -1.800  -1.943   0.314  0.00  0.00    -0.274 OA
ATOM      3  N   UNL     1      -1.615  -3.923  -0.671  0.00  0.00    -0.302 N 
ATOM      4  H   UNL     1      -1.133  -4.495  -1.288  0.00  0.00    +0.150 HD
ENDROOT
BRANCH   1   5
ATOM      5  C   UNL     1       0.020  -2.136  -1.177  0.00  0.00    +0.163 C 
BRANCH   5   9
ATOM      6  C   UNL     1      -0.018   1.503   0.010  0.00  0.00    +0.109 C 
ATOM      7  C   UNL     1       0.002  -0.004   0.002  0.00  0.00    +0.211 C 
ATOM      8  O   UNL     1       0.020  -0.616   1.049  0.00  0.00    -0.276 OA
ATOM      9  N   UNL     1       0.000  -0.672  -1.169  0.00  0.00    -0.304 N 
ATOM     10  H   UNL     1      -0.015  -0.182  -2.006  0.00  0.00    +0.149 HD
ENDBRANCH   5   9
BRANCH   5  11
ATOM     11  C   UNL     1       1.283  -2.633  -0.470  0.00  0.00    +0.067 C 
BRANCH  11  12
ATOM     12  C   UNL     1       2.497  -2.214  -1.258  0.00  0.00    -0.045 A 
ATOM     13  C   UNL     1       2.998  -3.040  -2.247  0.00  0.00    +0.007 A 
ATOM     14  C   UNL     1       4.111  -2.658  -2.970  0.00  0.00    +0.046 A 
ATOM     15  C   UNL     1       4.727  -1.444  -2.704  0.00  0.00    +0.132 A 
ATOM     16  C   UNL     1       4.222  -0.616  -1.711  0.00  0.00    +0.046 A 
ATOM     17  C   UNL     1       3.106  -1.000  -0.994  0.00  0.00    +0.007 A 
BRANCH  15  18
ATOM     18  O   UNL     1       5.822  -1.066  -3.413  0.00  0.00    -0.401 OA
BRANCH  18  19
ATOM     19  P   UNL     1       5.483  -0.227  -4.745  0.00  0.00    +0.589 P 
ATOM     20  O   UNL     1       4.489  -1.045  -5.638  0.00  0.00    -0.211 OA
ATOM     21  O   UNL     1       4.825   1.139  -4.348  0.00  0.00    -0.104 OA
ATOM     22  O   UNL     1       6.803   0.042  -5.543  0.00  0.00    -0.104 OA
ENDBRANCH  18  19
ENDBRANCH  15  18
ENDBRANCH  11  12
ENDBRANCH   5  11
ENDBRANCH   1   5
BRANCH   3  23
ATOM     23  C   UNL     1      -2.798  -4.431   0.028  0.00  0.00    +0.159 C 
BRANCH  23  24
ATOM     24  C   UNL     1      -2.716  -5.932   0.127  0.00  0.00    +0.233 C 
ATOM     25  O   UNL     1      -1.763  -6.520  -0.340  0.00  0.00    -0.274 OA
ATOM     26  N   UNL     1      -3.701  -6.622   0.735  0.00  0.00    -0.314 N 
ATOM     27  H   UNL     1      -4.463  -6.152   1.109  0.00  0.00    +0.149 HD
BRANCH  26  28
ATOM     28  C   UNL     1      -3.622  -8.082   0.832  0.00  0.00    +0.104 C 
BRANCH  28  29
ATOM     29  C   UNL     1      -4.857  -8.613   1.562  0.00  0.00    +0.019 C 
BRANCH  29  30
ATOM     30  C   UNL     1      -4.774 -10.137   1.663  0.00  0.00    +0.005 C 
BRANCH  30  31
ATOM     31  C   UNL     1      -6.009 -10.668   2.393  0.00  0.00    -0.011 C 
ATOM     32  C   UNL     1      -6.002 -10.166   3.838  0.00  0.00    +0.003 C 
ATOM     33  C   UNL     1      -7.238 -10.697   4.569  0.00  0.00    +0.000 C 
ATOM     34  C   UNL     1      -7.217 -12.226   4.560  0.00  0.00    +0.000 C 
ATOM     35  C   UNL     1      -7.224 -12.729   3.115  0.00  0.00    +0.000 C 
ATOM     36  C   UNL     1      -5.989 -12.198   2.385  0.00  0.00    +0.003 C 
ENDBRANCH  30  31
ENDBRANCH  29  30
ENDBRANCH  28  29
ENDBRANCH  26  28
ENDBRANCH  23  24
BRANCH  23  37
ATOM     37  C   UNL     1      -4.057  -4.039  -0.748  0.00  0.00    +0.043 C 
BRANCH  37  38
ATOM     38  C   UNL     1      -4.206  -2.516  -0.742  0.00  0.00    +0.127 C 
BRANCH  38  39
ATOM     39  C   UNL     1      -5.446  -2.130  -1.506  0.00  0.00    +0.356 C 
ATOM     40  O   UNL     1      -6.145  -2.993  -2.010  0.00  0.00    -0.246 OA
ATOM     41  O   UNL     1      -5.750  -0.955  -1.622  0.00  0.00    -0.246 OA
ENDBRANCH  38  39
ENDBRANCH  37  38
ENDBRANCH  23  37
ENDBRANCH   3  23
TORSDOF 15
