REMARK  Name = CHEMBL291297
REMARK  10 active torsions:
REMARK  status: ('A' for Active; 'I' for Inactive)
REMARK    1  A    between atoms: C_1  and  N_2
REMARK    2  A    between atoms: C_5  and  O_8
REMARK    3  A    between atoms: O_8  and  C_9
REMARK    4  A    between atoms: C_14  and  O_15
REMARK    5  A    between atoms: O_15  and  C_16
REMARK    6  A    between atoms: C_17  and  N_23
REMARK    7  A    between atoms: C_18  and  C_21
REMARK    8  A    between atoms: N_23  and  C_24
REMARK    9  A    between atoms: C_26  and  O_32
REMARK   10  A    between atoms: O_32  and  C_33
REMARK                            x       y       z     vdW  Elec       q    Type
REMARK                         _______ _______ _______ _____ _____    ______ ____
ROOT
ATOM      1  C   UNL     1      -3.703  -5.061   4.466  0.00  0.00    +0.164 A 
ATOM      2  C   UNL     1      -2.637  -4.301   4.891  0.00  0.00    +0.077 A 
ATOM      3  C   UNL     1      -1.445  -4.929   5.283  0.00  0.00    +0.077 A 
ATOM      4  C   UNL     1      -1.362  -6.342   5.234  0.00  0.00    +0.026 A 
ATOM      5  C   UNL     1      -2.463  -7.093   4.798  0.00  0.00    +0.061 A 
ATOM      6  C   UNL     1      -3.613  -6.460   4.426  0.00  0.00    +0.162 A 
ATOM      7  C   UNL     1      -0.160  -6.972   5.630  0.00  0.00    +0.060 A 
ATOM      8  C   UNL     1       0.899  -6.155   6.055  0.00  0.00    +0.091 A 
ATOM      9  C   UNL     1       0.728  -4.762   6.072  0.00  0.00    +0.132 A 
ATOM     10  N   UNL     1      -0.397  -4.205   5.700  0.00  0.00    -0.253 NA
ENDROOT
BRANCH   6  11
ATOM     11  O   UNL     1      -4.681  -7.191   4.008  0.00  0.00    -0.491 OA
ATOM     12  C   UNL     1      -4.527  -8.612   3.991  0.00  0.00    +0.277 C 
ENDBRANCH   6  11
BRANCH   8  13
ATOM     13  C   UNL     1       2.141  -6.737   6.469  0.00  0.00    +0.103 C 
ATOM     14  N   UNL     1       3.126  -7.197   6.797  0.00  0.00    -0.191 NA
ENDBRANCH   8  13
BRANCH   7  15
ATOM     15  N   UNL     1      -0.032  -8.347   5.600  0.00  0.00    -0.312 N 
ATOM     16  H   UNL     1       0.190  -8.795   4.769  0.00  0.00    +0.152 HD
BRANCH  15  17
ATOM     17  C   UNL     1      -0.221  -9.092   6.768  0.00  0.00    +0.053 A 
ATOM     18  C   UNL     1      -0.507  -8.449   7.964  0.00  0.00    +0.071 A 
ATOM     19  C   UNL     1      -0.694  -9.191   9.120  0.00  0.00    +0.140 A 
ATOM     20  C   UNL     1      -0.595 -10.575   9.079  0.00  0.00    +0.084 A 
ATOM     21  C   UNL     1      -0.310 -11.215   7.886  0.00  0.00    +0.045 A 
ATOM     22  C   UNL     1      -0.128 -10.479   6.731  0.00  0.00    +0.064 A 
ATOM     23 CL   UNL     1       0.222 -11.285   5.234  0.00  0.00    -0.082 Cl
ATOM     24 CL   UNL     1      -0.828 -11.504  10.527  0.00  0.00    -0.080 Cl
BRANCH  19  25
ATOM     25  O   UNL     1      -0.973  -8.563  10.293  0.00  0.00    -0.494 OA
ATOM     26  C   UNL     1      -1.166  -7.148  10.242  0.00  0.00    +0.277 C 
ENDBRANCH  19  25
ENDBRANCH  15  17
ENDBRANCH   7  15
BRANCH   1  27
ATOM     27  O   UNL     1      -4.855  -4.451   4.087  0.00  0.00    -0.485 OA
BRANCH  27  32
ATOM     28  C   UNL     1      -6.045   0.986   3.408  0.00  0.00    -0.096 C 
ATOM     29  N   UNL     1      -5.897  -0.473   3.326  0.00  0.00    +0.378 N 
ATOM     30  C   UNL     1      -6.475  -1.091   4.525  0.00  0.00    -0.076 C 
ATOM     31  C   UNL     1      -6.397  -2.615   4.408  0.00  0.00    +0.026 C 
ATOM     32  C   UNL     1      -4.931  -3.036   4.271  0.00  0.00    +0.170 C 
ATOM     33  C   UNL     1      -4.317  -2.328   3.060  0.00  0.00    +0.026 C 
ATOM     34  C   UNL     1      -4.473  -0.815   3.227  0.00  0.00    -0.076 C 
ATOM     35  H   UNL     1      -6.381  -0.814   2.508  0.00  0.00    -0.082 HD
ENDBRANCH  27  32
ENDBRANCH   1  27
TORSDOF 7
