REMARK  Name = CHEMBL276934
REMARK  10 active torsions:
REMARK  status: ('A' for Active; 'I' for Inactive)
REMARK    1  A    between atoms: C_1  and  O_2
REMARK    2  A    between atoms: O_2  and  C_3
REMARK    3  A    between atoms: C_8  and  C_9
REMARK    4  A    between atoms: C_11  and  C_14
REMARK    5  A    between atoms: C_14  and  N_15
REMARK    6  A    between atoms: C_23  and  C_36
REMARK    7  A    between atoms: C_24  and  N_25
REMARK    8  A    between atoms: N_25  and  C_26
REMARK    9  A    between atoms: C_28  and  O_34
REMARK   10  A    between atoms: O_34  and  C_35
REMARK                            x       y       z     vdW  Elec       q    Type
REMARK                         _______ _______ _______ _____ _____    ______ ____
ROOT
ATOM      1  C   UNL     1      -0.102  -0.402  -1.406  0.00  0.00    +0.129 A 
ATOM      2  C   UNL     1       0.680   0.301  -2.276  0.00  0.00    +0.058 A 
ATOM      3  C   UNL     1       1.383  -0.372  -3.286  0.00  0.00    +0.026 A 
ATOM      4  C   UNL     1       1.281  -1.780  -3.404  0.00  0.00    +0.074 A 
ATOM      5  C   UNL     1       0.472  -2.485  -2.502  0.00  0.00    +0.040 A 
ATOM      6  C   UNL     1      -0.207  -1.801  -1.510  0.00  0.00    +0.029 A 
ATOM      7  N   UNL     1       1.952  -2.427  -4.369  0.00  0.00    -0.254 NA
ATOM      8  C   UNL     1       2.715  -1.798  -5.225  0.00  0.00    +0.132 A 
ATOM      9  C   UNL     1       2.875  -0.404  -5.183  0.00  0.00    +0.091 A 
ATOM     10  C   UNL     1       2.200   0.335  -4.199  0.00  0.00    +0.060 A 
ENDROOT
BRANCH   6  11
ATOM     11  C   UNL     1      -1.057  -2.547  -0.552  0.00  0.00    +0.024 A 
ATOM     12  C   UNL     1      -2.081  -3.549  -0.870  0.00  0.00    +0.051 A 
ATOM     13  C   UNL     1      -2.587  -3.951   0.308  0.00  0.00    +0.089 A 
ATOM     14  O   UNL     1      -1.967  -3.289   1.297  0.00  0.00    -0.469 OA
ATOM     15  C   UNL     1      -1.046  -2.450   0.804  0.00  0.00    +0.203 A 
BRANCH  13  16
ATOM     16  C   UNL     1      -3.674  -4.978   0.489  0.00  0.00    -0.003 C 
BRANCH  16  17
ATOM     17  N   UNL     1      -3.072  -6.311   0.618  0.00  0.00    +0.387 N 
ATOM     18  C   UNL     1      -2.405  -6.671  -0.641  0.00  0.00    -0.050 C 
ATOM     19  C   UNL     1      -1.778  -8.061  -0.505  0.00  0.00    +0.141 C 
ATOM     20  O   UNL     1      -2.795  -9.005  -0.161  0.00  0.00    -0.383 OA
ATOM     21  C   UNL     1      -3.491  -8.685   1.047  0.00  0.00    +0.141 C 
ATOM     22  C   UNL     1      -4.121  -7.297   0.913  0.00  0.00    -0.050 C 
ATOM     23  H   UNL     1      -2.396  -6.305   1.367  0.00  0.00    -0.081 HD
ENDBRANCH  16  17
ENDBRANCH  13  16
ENDBRANCH   6  11
BRANCH   1  25
ATOM     24  C   UNL     1      -0.632   1.675  -0.377  0.00  0.00    +0.277 C 
ATOM     25  O   UNL     1      -0.780   0.254  -0.428  0.00  0.00    -0.494 OA
ENDBRANCH   1  25
BRANCH  10  26
ATOM     26  N   UNL     1       2.330   1.708  -4.124  0.00  0.00    -0.312 N 
ATOM     27  H   UNL     1       2.147   2.167  -3.289  0.00  0.00    +0.152 HD
BRANCH  26  28
ATOM     28  C   UNL     1       2.726   2.435  -5.250  0.00  0.00    +0.053 A 
ATOM     29  C   UNL     1       3.958   3.075  -5.267  0.00  0.00    +0.071 A 
ATOM     30  C   UNL     1       4.348   3.795  -6.385  0.00  0.00    +0.140 A 
ATOM     31  C   UNL     1       3.505   3.876  -7.486  0.00  0.00    +0.084 A 
ATOM     32  C   UNL     1       2.278   3.239  -7.468  0.00  0.00    +0.045 A 
ATOM     33  C   UNL     1       1.889   2.514  -6.357  0.00  0.00    +0.064 A 
ATOM     34 CL   UNL     1       0.351   1.709  -6.341  0.00  0.00    -0.082 Cl
ATOM     35 CL   UNL     1       3.993   4.779  -8.886  0.00  0.00    -0.080 Cl
BRANCH  30  36
ATOM     36  O   UNL     1       5.553   4.422  -6.404  0.00  0.00    -0.494 OA
ATOM     37  C   UNL     1       6.417   4.202  -5.287  0.00  0.00    +0.277 C 
ENDBRANCH  30  36
ENDBRANCH  26  28
ENDBRANCH  10  26
BRANCH   9  38
ATOM     38  C   UNL     1       3.717   0.257  -6.133  0.00  0.00    +0.103 C 
ATOM     39  N   UNL     1       4.386   0.782  -6.887  0.00  0.00    -0.191 NA
ENDBRANCH   9  38
TORSDOF 8
