REMARK  Name = CHEMBL240207
REMARK  11 active torsions:
REMARK  status: ('A' for Active; 'I' for Inactive)
REMARK    1  A    between atoms: C_1  and  O_2
REMARK    2  A    between atoms: O_2  and  C_3
REMARK    3  A    between atoms: C_8  and  C_9
REMARK    4  A    between atoms: C_10  and  C_11
REMARK    5  A    between atoms: C_11  and  C_12
REMARK    6  A    between atoms: C_12  and  N_13
REMARK    7  A    between atoms: C_21  and  C_34
REMARK    8  A    between atoms: C_22  and  N_23
REMARK    9  A    between atoms: N_23  and  C_24
REMARK   10  A    between atoms: C_26  and  O_32
REMARK   11  A    between atoms: O_32  and  C_33
REMARK                            x       y       z     vdW  Elec       q    Type
REMARK                         _______ _______ _______ _____ _____    ______ ____
ROOT
ATOM      1  C   UNL     1      -1.155  -0.427   0.799  0.00  0.00    +0.136 A 
ATOM      2  C   UNL     1      -2.317   0.245   0.553  0.00  0.00    +0.058 A 
ATOM      3  C   UNL     1      -3.526  -0.458   0.453  0.00  0.00    +0.026 A 
ATOM      4  C   UNL     1      -3.542  -1.866   0.606  0.00  0.00    +0.074 A 
ATOM      5  C   UNL     1      -2.341  -2.543   0.858  0.00  0.00    +0.048 A 
ATOM      6  C   UNL     1      -1.157  -1.828   0.947  0.00  0.00    +0.069 A 
ATOM      7  N   UNL     1      -4.698  -2.542   0.509  0.00  0.00    -0.254 NA
ATOM      8  C   UNL     1      -5.835  -1.942   0.275  0.00  0.00    +0.132 A 
ATOM      9  C   UNL     1      -5.912  -0.549   0.109  0.00  0.00    +0.091 A 
ATOM     10  C   UNL     1      -4.742   0.219   0.198  0.00  0.00    +0.060 A 
ENDROOT
BRANCH   1  12
ATOM     11  C   UNL     1      -0.051   1.677   0.735  0.00  0.00    +0.277 C 
ATOM     12  O   UNL     1       0.014   0.259   0.895  0.00  0.00    -0.494 OA
ENDBRANCH   1  12
BRANCH   6  13
ATOM     13  C   UNL     1       0.072  -2.518   1.198  0.00  0.00    -0.063 C 
ATOM     14  C   UNL     1       1.080  -3.084   1.403  0.00  0.00    -0.096 C 
BRANCH  14  15
ATOM     15  C   UNL     1       2.344  -3.794   1.661  0.00  0.00    +0.104 C 
BRANCH  15  16
ATOM     16  C   UNL     1       2.071  -5.294   1.781  0.00  0.00    +0.097 C 
BRANCH  16  17
ATOM     17  N   UNL     1       3.332  -6.002   2.039  0.00  0.00    -0.297 NA
ATOM     18  C   UNL     1       4.234  -5.909   0.882  0.00  0.00    +0.112 C 
ATOM     19  C   UNL     1       5.556  -6.607   1.214  0.00  0.00    +0.175 C 
ATOM     20  O   UNL     1       5.292  -7.962   1.588  0.00  0.00    -0.377 OA
ATOM     21  C   UNL     1       4.417  -8.090   2.712  0.00  0.00    +0.175 C 
ATOM     22  C   UNL     1       3.084  -7.407   2.394  0.00  0.00    +0.112 C 
ENDBRANCH  16  17
ENDBRANCH  15  16
ENDBRANCH  14  15
ENDBRANCH   6  13
BRANCH  10  23
ATOM     23  N   UNL     1      -4.775   1.590   0.042  0.00  0.00    -0.312 N 
ATOM     24  H   UNL     1      -3.972   2.068  -0.218  0.00  0.00    +0.152 HD
BRANCH  23  25
ATOM     25  C   UNL     1      -5.966   2.290   0.261  0.00  0.00    +0.053 A 
ATOM     26  C   UNL     1      -6.612   2.910  -0.800  0.00  0.00    +0.071 A 
ATOM     27  C   UNL     1      -7.792   3.602  -0.581  0.00  0.00    +0.140 A 
ATOM     28  C   UNL     1      -8.326   3.675   0.699  0.00  0.00    +0.084 A 
ATOM     29  C   UNL     1      -7.681   3.058   1.755  0.00  0.00    +0.045 A 
ATOM     30  C   UNL     1      -6.507   2.361   1.539  0.00  0.00    +0.064 A 
ATOM     31 CL   UNL     1      -5.705   1.580   2.866  0.00  0.00    -0.082 Cl
ATOM     32 CL   UNL     1      -9.804   4.544   0.974  0.00  0.00    -0.080 Cl
BRANCH  27  33
ATOM     33  O   UNL     1      -8.426   4.210  -1.618  0.00  0.00    -0.494 OA
ATOM     34  C   UNL     1      -7.885   3.999  -2.924  0.00  0.00    +0.277 C 
ENDBRANCH  27  33
ENDBRANCH  23  25
ENDBRANCH  10  23
BRANCH   9  35
ATOM     35  C   UNL     1      -7.173   0.081  -0.147  0.00  0.00    +0.103 C 
ATOM     36  N   UNL     1      -8.172   0.580  -0.351  0.00  0.00    -0.191 NA
ENDBRANCH   9  35
TORSDOF 9
