REMARK  Name = CHEMBL136332
REMARK  11 active torsions:
REMARK  status: ('A' for Active; 'I' for Inactive)
REMARK    1  A    between atoms: C_1  and  C_2
REMARK    2  A    between atoms: C_2  and  N_3
REMARK    3  A    between atoms: N_3  and  C_4
REMARK    4  A    between atoms: N_3  and  C_6
REMARK    5  A    between atoms: C_4  and  C_5
REMARK    6  A    between atoms: C_6  and  C_7
REMARK    7  A    between atoms: C_7  and  O_8
REMARK    8  A    between atoms: O_8  and  C_9
REMARK    9  A    between atoms: C_12  and  N_15
REMARK   10  A    between atoms: C_21  and  C_28
REMARK   11  A    between atoms: N_24  and  C_27
REMARK                            x       y       z     vdW  Elec       q    Type
REMARK                         _______ _______ _______ _____ _____    ______ ____
ROOT
ATOM      1  N   UNL     1       1.286  -1.820   7.457  0.00  0.00    -0.284 N 
ATOM      2  C   UNL     1       2.665  -1.806   7.537  0.00  0.00    +0.221 A 
ATOM      3  N   UNL     1       3.368  -1.586   6.431  0.00  0.00    -0.222 NA
ATOM      4  C   UNL     1       4.688  -1.563   6.455  0.00  0.00    +0.126 A 
ATOM      5  C   UNL     1       5.342  -1.777   7.677  0.00  0.00    +0.037 A 
ATOM      6  C   UNL     1       6.753  -1.764   7.765  0.00  0.00    +0.027 A 
ATOM      7  C   UNL     1       7.345  -1.978   8.980  0.00  0.00    +0.048 A 
ATOM      8  C   UNL     1       6.505  -2.215  10.156  0.00  0.00    +0.260 A 
ATOM      9  O   UNL     1       7.023  -2.406  11.242  0.00  0.00    -0.267 OA
ATOM     10  N   UNL     1       5.163  -2.222  10.044  0.00  0.00    -0.295 N 
ATOM     11  C   UNL     1       4.561  -2.008   8.829  0.00  0.00    +0.148 A 
ATOM     12  N   UNL     1       3.237  -2.009   8.714  0.00  0.00    -0.196 NA
ATOM     13  C   UNL     1       4.337  -2.460  11.230  0.00  0.00    +0.154 C 
ATOM     14  H   UNL     1       0.753  -1.898   8.264  0.00  0.00    +0.155 HD
ENDROOT
BRANCH   1  18
ATOM     15  C   UNL     1      -0.590  -1.526   3.745  0.00  0.00    +0.121 A 
ATOM     16  C   UNL     1       0.625  -2.185   3.857  0.00  0.00    +0.047 A 
ATOM     17  C   UNL     1       1.247  -2.283   5.086  0.00  0.00    +0.027 A 
ATOM     18  C   UNL     1       0.656  -1.721   6.210  0.00  0.00    +0.034 A 
ATOM     19  C   UNL     1      -0.561  -1.061   6.097  0.00  0.00    +0.027 A 
ATOM     20  C   UNL     1      -1.179  -0.960   4.866  0.00  0.00    +0.047 A 
BRANCH  15  21
ATOM     21  O   UNL     1      -1.202  -1.430   2.534  0.00  0.00    -0.494 OA
BRANCH  21  22
ATOM     22  C   UNL     1      -0.539  -2.036   1.423  0.00  0.00    +0.210 C 
BRANCH  22  23
ATOM     23  C   UNL     1      -1.371  -1.826   0.156  0.00  0.00    -0.037 C 
BRANCH  23  24
ATOM     24  N   UNL     1      -1.429  -0.393  -0.160  0.00  0.00    +0.382 N 
ATOM     25  H   UNL     1      -1.778   0.114   0.639  0.00  0.00    -0.082 HD
BRANCH  24  27
ATOM     26  C   UNL     1      -0.116   1.606  -0.689  0.00  0.00    -0.017 C 
ATOM     27  C   UNL     1      -0.082   0.089  -0.496  0.00  0.00    -0.082 C 
ENDBRANCH  24  27
BRANCH  24  28
ATOM     28  C   UNL     1      -2.325  -0.179  -1.305  0.00  0.00    -0.082 C 
ATOM     29  C   UNL     1      -3.756  -0.546  -0.907  0.00  0.00    -0.017 C 
ENDBRANCH  24  28
ENDBRANCH  23  24
ENDBRANCH  22  23
ENDBRANCH  21  22
ENDBRANCH  15  21
ENDBRANCH   1  18
BRANCH   7  30
ATOM     30  C   UNL     1       8.822  -1.971   9.105  0.00  0.00    -0.006 A 
ATOM     31  C   UNL     1       9.595  -2.936   8.467  0.00  0.00    +0.016 A 
ATOM     32  C   UNL     1      10.940  -2.896   8.604  0.00  0.00    +0.046 A 
ATOM     33  S   UNL     1      11.171  -1.472   9.655  0.00  0.00    -0.104 S 
ATOM     34  C   UNL     1       9.457  -1.012   9.845  0.00  0.00    +0.053 A 
ENDBRANCH   7  30
TORSDOF 8
