REMARK  Name = CHEMBL376555
REMARK  4 active torsions:
REMARK  status: ('A' for Active; 'I' for Inactive)
REMARK    1  A    between atoms: C_1  and  C_2
REMARK    2  A    between atoms: C_6  and  C_24
REMARK    3  A    between atoms: C_7  and  N_8
REMARK    4  A    between atoms: C_15  and  C_18
REMARK                            x       y       z     vdW  Elec       q    Type
REMARK                         _______ _______ _______ _____ _____    ______ ____
ROOT
ATOM      1  N   UNL     1       0.348  -0.779   2.601  0.00  0.00    -0.297 N 
ATOM      2  C   UNL     1       0.144  -1.592   3.700  0.00  0.00    +0.149 A 
ATOM      3  C   UNL     1       0.033  -1.026   4.991  0.00  0.00    +0.106 A 
ATOM      4  C   UNL     1       0.079   0.255   5.492  0.00  0.00    +0.142 A 
ATOM      5  N   UNL     1      -0.090   0.174   6.812  0.00  0.00    -0.243 NA
ATOM      6  C   UNL     1      -0.239  -1.080   7.166  0.00  0.00    +0.204 A 
ATOM      7  N   UNL     1      -0.171  -1.861   6.076  0.00  0.00    -0.294 N 
ATOM      8  C   UNL     1      -0.259  -3.226   5.857  0.00  0.00    +0.073 A 
ATOM      9  C   UNL     1      -0.144  -3.712   4.591  0.00  0.00    +0.139 A 
ATOM     10  N   UNL     1       0.048  -2.901   3.549  0.00  0.00    -0.236 NA
ATOM     11  H   UNL     1       0.340   0.186   2.703  0.00  0.00    +0.154 HD
ENDROOT
BRANCH   1  18
ATOM     12  C   UNL     1       2.957  -0.605   1.480  0.00  0.00    +0.045 C 
ATOM     13  C   UNL     1       1.822  -1.284   0.757  0.00  0.00    -0.029 A 
ATOM     14  C   UNL     1       2.034  -1.851  -0.484  0.00  0.00    +0.005 A 
ATOM     15  C   UNL     1       0.993  -2.474  -1.148  0.00  0.00    +0.001 A 
ATOM     16  C   UNL     1      -0.263  -2.533  -0.571  0.00  0.00    +0.005 A 
ATOM     17  C   UNL     1      -0.481  -1.968   0.670  0.00  0.00    -0.029 A 
ATOM     18  C   UNL     1       0.564  -1.346   1.342  0.00  0.00    +0.038 A 
ATOM     19  C   UNL     1      -1.850  -2.032   1.298  0.00  0.00    +0.045 C 
ENDBRANCH   1  18
BRANCH   8  20
ATOM     20  C   UNL     1      -0.475  -4.147   6.988  0.00  0.00    +0.003 A 
ATOM     21  C   UNL     1      -1.667  -4.116   7.726  0.00  0.00    +0.030 A 
ATOM     22  C   UNL     1      -1.826  -4.995   8.774  0.00  0.00    +0.111 A 
ATOM     23  N   UNL     1      -0.876  -5.857   9.087  0.00  0.00    -0.263 NA
ATOM     24  C   UNL     1       0.261  -5.920   8.420  0.00  0.00    +0.111 A 
ATOM     25  C   UNL     1       0.504  -5.083   7.353  0.00  0.00    +0.030 A 
ENDBRANCH   8  20
TORSDOF 2
