REMARK  Name = CHEMBL425312
REMARK  3 active torsions:
REMARK  status: ('A' for Active; 'I' for Inactive)
REMARK    1  A    between atoms: C_1  and  C_2
REMARK    2  A    between atoms: C_7  and  N_8
REMARK    3  A    between atoms: C_26  and  C_29
REMARK                            x       y       z     vdW  Elec       q    Type
REMARK                         _______ _______ _______ _____ _____    ______ ____
ROOT
ATOM      1  N   UNL     1       0.037  -0.017   2.420  0.00  0.00    -0.300 N 
ATOM      2  C   UNL     1      -0.350  -0.655   3.571  0.00  0.00    +0.123 C 
ATOM      3  N   UNL     1      -0.631  -1.928   3.546  0.00  0.00    -0.231 NA
ATOM      4  C   UNL     1      -1.024  -2.627   4.655  0.00  0.00    +0.106 A 
ATOM      5  C   UNL     1      -0.949  -4.018   4.708  0.00  0.00    +0.034 A 
ATOM      6  C   UNL     1      -1.384  -4.654   5.859  0.00  0.00    +0.046 A 
ATOM      7  C   UNL     1      -1.879  -3.901   6.918  0.00  0.00    +0.123 A 
ATOM      8  N   UNL     1      -1.933  -2.576   6.848  0.00  0.00    -0.215 NA
ATOM      9  C   UNL     1      -1.521  -1.934   5.779  0.00  0.00    +0.155 A 
ATOM     10  N   UNL     1      -1.504  -0.547   5.670  0.00  0.00    -0.263 N 
ATOM     11  C   UNL     1      -0.442   0.114   4.863  0.00  0.00    +0.166 C 
ATOM     12  C   UNL     1      -1.026   1.518   4.655  0.00  0.00    +0.173 C 
ATOM     13  N   UNL     1      -2.158   1.566   5.595  0.00  0.00    -0.274 NA
ATOM     14  C   UNL     1      -2.352   0.404   6.122  0.00  0.00    +0.184 C 
ATOM     15  N   UNL     1      -2.325  -4.545   8.067  0.00  0.00    -0.318 N 
ATOM     16  C   UNL     1      -3.069  -3.814   9.104  0.00  0.00    +0.087 C 
ATOM     17  C   UNL     1      -2.417  -4.098  10.461  0.00  0.00    -0.063 C 
ATOM     18  N   UNL     1      -2.348  -5.549  10.676  0.00  0.00    +0.383 N 
ATOM     19  C   UNL     1      -1.462  -6.160   9.677  0.00  0.00    -0.057 C 
ATOM     20  C   UNL     1      -2.071  -5.979   8.278  0.00  0.00    +0.090 C 
ATOM     21  C   UNL     1      -1.309  -7.653   9.976  0.00  0.00    -0.012 C 
ATOM     22  H   UNL     1       0.325   0.909   2.453  0.00  0.00    +0.153 HD
ATOM     23  H   UNL     1      -1.988  -5.734  11.600  0.00  0.00    -0.085 HD
ATOM     24  H   UNL     1      -3.272  -5.945  10.591  0.00  0.00    -0.085 HD
ENDROOT
BRANCH   1  31
ATOM     25  C   UNL     1      -1.543   1.052   0.309  0.00  0.00    +0.046 C 
ATOM     26  C   UNL     1      -0.741  -0.214   0.143  0.00  0.00    -0.028 A 
ATOM     27  C   UNL     1      -0.755  -0.888  -1.062  0.00  0.00    +0.005 A 
ATOM     28  C   UNL     1      -0.021  -2.049  -1.216  0.00  0.00    +0.002 A 
ATOM     29  C   UNL     1       0.732  -2.540  -0.164  0.00  0.00    +0.022 A 
ATOM     30  C   UNL     1       0.750  -1.871   1.045  0.00  0.00    +0.062 A 
ATOM     31  C   UNL     1       0.016  -0.700   1.200  0.00  0.00    +0.054 A 
ATOM     32 CL   UNL     1       1.693  -2.487   2.365  0.00  0.00    -0.082 Cl
ENDBRANCH   1  31
TORSDOF 1
