REMARK  Name = CHEMBL329244
REMARK  9 active torsions:
REMARK  status: ('A' for Active; 'I' for Inactive)
REMARK    1  A    between atoms: C_1  and  C_2
REMARK    2  A    between atoms: C_5  and  O_34
REMARK    3  A    between atoms: C_7  and  N_8
REMARK    4  A    between atoms: N_8  and  C_9
REMARK    5  A    between atoms: C_18  and  C_19
REMARK    6  A    between atoms: N_25  and  C_26
REMARK    7  A    between atoms: C_26  and  C_27
REMARK    8  A    between atoms: C_27  and  N_28
REMARK    9  A    between atoms: O_34  and  C_35
REMARK                            x       y       z     vdW  Elec       q    Type
REMARK                         _______ _______ _______ _____ _____    ______ ____
ROOT
ATOM      1  C   UNL     1      -0.058  -0.708   3.606  0.00  0.00    +0.060 A 
ATOM      2  C   UNL     1      -0.480  -0.069   4.797  0.00  0.00    +0.025 A 
ATOM      3  C   UNL     1      -0.825   1.286   4.800  0.00  0.00    +0.041 A 
ATOM      4  C   UNL     1      -1.235   1.887   5.980  0.00  0.00    +0.091 A 
ATOM      5  C   UNL     1      -1.304   1.131   7.173  0.00  0.00    +0.069 A 
ATOM      6  C   UNL     1      -0.967  -0.204   7.179  0.00  0.00    +0.056 A 
ATOM      7  C   UNL     1      -0.551  -0.825   5.995  0.00  0.00    +0.075 A 
ATOM      8  N   UNL     1      -0.220  -2.127   5.991  0.00  0.00    -0.254 NA
ATOM      9  C   UNL     1       0.172  -2.740   4.905  0.00  0.00    +0.132 A 
ATOM     10  C   UNL     1       0.266  -2.070   3.673  0.00  0.00    +0.091 A 
ATOM     11  N   UNL     1      -1.741   2.007   8.155  0.00  0.00    -0.326 N 
ATOM     12  H   UNL     1      -1.891   1.795   9.089  0.00  0.00    +0.169 HD
ATOM     13  C   UNL     1      -1.921   3.226   7.562  0.00  0.00    +0.194 A 
ATOM     14  N   UNL     1      -1.624   3.155   6.289  0.00  0.00    -0.215 NA
ATOM     15  N   UNL     1      -2.351   4.363   8.210  0.00  0.00    -0.317 N 
ATOM     16  H   UNL     1      -2.453   5.193   7.718  0.00  0.00    +0.149 HD
ENDROOT
BRANCH   1  17
ATOM     17  N   UNL     1       0.025  -0.013   2.416  0.00  0.00    -0.313 N 
ATOM     18  H   UNL     1       0.832   0.477   2.196  0.00  0.00    +0.152 HD
BRANCH  17  25
ATOM     19  C   UNL     1       0.181   1.646   0.112  0.00  0.00    +0.045 C 
ATOM     20  C   UNL     1      -1.020   0.778   0.389  0.00  0.00    -0.029 A 
ATOM     21  C   UNL     1      -2.084   0.770  -0.492  0.00  0.00    +0.009 A 
ATOM     22  C   UNL     1      -3.186  -0.025  -0.241  0.00  0.00    +0.046 A 
ATOM     23  C   UNL     1      -3.228  -0.818   0.897  0.00  0.00    +0.122 A 
ATOM     24  C   UNL     1      -2.162  -0.813   1.784  0.00  0.00    +0.069 A 
ATOM     25  C   UNL     1      -1.053  -0.017   1.527  0.00  0.00    +0.038 A 
BRANCH  23  26
ATOM     26  O   UNL     1      -4.313  -1.598   1.143  0.00  0.00    -0.495 OA
ATOM     27  C   UNL     1      -5.374  -1.553   0.187  0.00  0.00    +0.277 C 
ENDBRANCH  23  26
ENDBRANCH  17  25
ENDBRANCH   1  17
BRANCH  10  28
ATOM     28  C   UNL     1       0.693  -2.771   2.499  0.00  0.00    +0.103 C 
ATOM     29  N   UNL     1       1.032  -3.327   1.568  0.00  0.00    -0.191 NA
ENDBRANCH  10  28
BRANCH  15  30
ATOM     30  C   UNL     1      -2.653   4.320   9.643  0.00  0.00    +0.086 C 
BRANCH  30  31
ATOM     31  C   UNL     1      -3.106   5.705  10.111  0.00  0.00    -0.060 C 
BRANCH  31  32
ATOM     32  N   UNL     1      -3.409   5.661  11.547  0.00  0.00    +0.384 N 
ATOM     33  C   UNL     1      -4.560   4.778  11.779  0.00  0.00    -0.050 C 
ATOM     34  C   UNL     1      -4.874   4.734  13.276  0.00  0.00    +0.141 C 
ATOM     35  O   UNL     1      -5.128   6.062  13.744  0.00  0.00    -0.383 OA
ATOM     36  C   UNL     1      -4.044   6.967  13.519  0.00  0.00    +0.141 C 
ATOM     37  C   UNL     1      -3.729   7.015  12.022  0.00  0.00    -0.050 C 
ATOM     38  H   UNL     1      -2.608   5.309  12.050  0.00  0.00    -0.082 HD
ENDBRANCH  31  32
ENDBRANCH  30  31
ENDBRANCH  15  30
TORSDOF 7
