REMARK  Name = CHEMBL370693
REMARK  8 active torsions:
REMARK  status: ('A' for Active; 'I' for Inactive)
REMARK    1  A    between atoms: C_1  and  N_2
REMARK    2  A    between atoms: C_8  and  C_10
REMARK    3  A    between atoms: C_13  and  C_16
REMARK    4  A    between atoms: C_21  and  N_27
REMARK    5  A    between atoms: C_22  and  C_25
REMARK    6  A    between atoms: N_27  and  C_28
REMARK    7  A    between atoms: C_30  and  O_36
REMARK    8  A    between atoms: O_36  and  C_37
REMARK                            x       y       z     vdW  Elec       q    Type
REMARK                         _______ _______ _______ _____ _____    ______ ____
ROOT
ATOM      1  C   UNL     1       2.576  -7.588   9.365  0.00  0.00    +0.040 A 
ATOM      2  C   UNL     1       2.861  -6.258   9.388  0.00  0.00    +0.046 A 
ATOM      3  C   UNL     1       4.161  -5.813   9.097  0.00  0.00    +0.081 A 
ATOM      4  C   UNL     1       5.094  -6.829   8.795  0.00  0.00    +0.061 A 
ATOM      5  S   UNL     1       4.145  -8.321   8.933  0.00  0.00    -0.083 S 
ATOM      6  C   UNL     1       6.414  -6.545   8.487  0.00  0.00    +0.066 A 
ATOM      7  C   UNL     1       6.811  -5.191   8.484  0.00  0.00    +0.092 A 
ATOM      8  C   UNL     1       5.847  -4.221   8.791  0.00  0.00    +0.132 A 
ATOM      9  N   UNL     1       4.613  -4.534   9.075  0.00  0.00    -0.253 NA
ENDROOT
BRANCH   1  13
ATOM     10  C   UNL     1      -1.104  -9.471  10.139  0.00  0.00    +0.055 A 
ATOM     11  C   UNL     1       0.033 -10.273   9.961  0.00  0.00    +0.016 A 
ATOM     12  C   UNL     1       1.240  -9.654   9.707  0.00  0.00    +0.029 A 
ATOM     13  C   UNL     1       1.289  -8.259   9.636  0.00  0.00    +0.078 A 
ATOM     14  N   UNL     1       0.192  -7.529   9.810  0.00  0.00    -0.254 NA
ATOM     15  C   UNL     1      -0.977  -8.083  10.049  0.00  0.00    +0.124 A 
BRANCH  10  23
ATOM     16  C   UNL     1      -2.966 -12.834  15.044  0.00  0.00    -0.096 C 
ATOM     17  N   UNL     1      -2.785 -12.617  13.602  0.00  0.00    +0.380 N 
ATOM     18  C   UNL     1      -3.941 -11.885  13.069  0.00  0.00    -0.060 C 
ATOM     19  C   UNL     1      -3.808 -11.759  11.548  0.00  0.00    +0.089 C 
ATOM     20  N   UNL     1      -2.507 -11.144  11.243  0.00  0.00    -0.301 N 
ATOM     21  C   UNL     1      -1.305 -11.717  11.870  0.00  0.00    +0.089 C 
ATOM     22  C   UNL     1      -1.557 -11.845  13.376  0.00  0.00    -0.060 C 
ATOM     23  C   UNL     1      -2.418 -10.085  10.414  0.00  0.00    +0.248 C 
ATOM     24  O   UNL     1      -3.420  -9.637   9.891  0.00  0.00    -0.270 OA
ATOM     25  H   UNL     1      -2.711 -13.509  13.136  0.00  0.00    -0.082 HD
ENDBRANCH  10  23
ENDBRANCH   1  13
BRANCH   7  26
ATOM     26  C   UNL     1       8.159  -4.819   8.177  0.00  0.00    +0.103 C 
ATOM     27  N   UNL     1       9.229  -4.524   7.933  0.00  0.00    -0.191 NA
ENDBRANCH   7  26
BRANCH   6  28
ATOM     28  N   UNL     1       7.315  -7.556   8.194  0.00  0.00    -0.311 N 
ATOM     29  H   UNL     1       7.744  -8.047   8.912  0.00  0.00    +0.152 HD
BRANCH  28  30
ATOM     30  C   UNL     1       7.604  -7.870   6.862  0.00  0.00    +0.054 A 
ATOM     31  C   UNL     1       7.043  -7.123   5.835  0.00  0.00    +0.071 A 
ATOM     32  C   UNL     1       7.332  -7.436   4.516  0.00  0.00    +0.140 A 
ATOM     33  C   UNL     1       8.182  -8.495   4.224  0.00  0.00    +0.084 A 
ATOM     34  C   UNL     1       8.740  -9.238   5.248  0.00  0.00    +0.045 A 
ATOM     35  C   UNL     1       8.458  -8.926   6.565  0.00  0.00    +0.064 A 
ATOM     36 CL   UNL     1       9.166  -9.856   7.849  0.00  0.00    -0.082 Cl
ATOM     37 CL   UNL     1       8.543  -8.887   2.572  0.00  0.00    -0.080 Cl
BRANCH  32  38
ATOM     38  O   UNL     1       6.784  -6.707   3.508  0.00  0.00    -0.494 OA
ATOM     39  C   UNL     1       5.848  -5.692   3.877  0.00  0.00    +0.277 C 
ENDBRANCH  32  38
ENDBRANCH  28  30
ENDBRANCH   6  28
TORSDOF 6
