REMARK  Name = CHEMBL489058
REMARK  12 active torsions:
REMARK  status: ('A' for Active; 'I' for Inactive)
REMARK    1  A    between atoms: C_1  and  C_2
REMARK    2  A    between atoms: C_2  and  N_3
REMARK    3  A    between atoms: N_6  and  C_9
REMARK    4  A    between atoms: C_9  and  C_10
REMARK    5  A    between atoms: C_10  and  C_11
REMARK    6  A    between atoms: C_12  and  C_13
REMARK    7  A    between atoms: C_21  and  C_38
REMARK    8  A    between atoms: C_22  and  N_23
REMARK    9  A    between atoms: N_23  and  C_24
REMARK   10  A    between atoms: C_27  and  S_31
REMARK   11  A    between atoms: S_31  and  C_32
REMARK   12  A    between atoms: N_36  and  C_37
REMARK                            x       y       z     vdW  Elec       q    Type
REMARK                         _______ _______ _______ _____ _____    ______ ____
ROOT
ATOM      1  C   UNL     1      -9.015 -10.658   1.791  0.00  0.00    -0.023 A 
ATOM      2  C   UNL     1      -9.949 -10.201   2.736  0.00  0.00    +0.009 A 
ATOM      3  C   UNL     1     -10.861  -9.249   2.404  0.00  0.00    +0.012 A 
ATOM      4  C   UNL     1     -10.877  -8.714   1.106  0.00  0.00    +0.023 A 
ATOM      5  C   UNL     1      -9.941  -9.165   0.143  0.00  0.00    +0.073 A 
ATOM      6  C   UNL     1      -9.004 -10.142   0.505  0.00  0.00    +0.036 A 
ATOM      7  N   UNL     1      -9.951  -8.655  -1.098  0.00  0.00    -0.254 NA
ATOM      8  C   UNL     1     -10.809  -7.738  -1.465  0.00  0.00    +0.132 A 
ATOM      9  C   UNL     1     -11.771  -7.233  -0.576  0.00  0.00    +0.091 A 
ATOM     10  C   UNL     1     -11.817  -7.723   0.739  0.00  0.00    +0.060 A 
ENDROOT
BRANCH   1  12
ATOM     11  C   UNL     1      -8.037 -12.189   3.404  0.00  0.00    -0.025 C 
ATOM     12  C   UNL     1      -8.032 -11.692   2.174  0.00  0.00    +0.004 C 
BRANCH  11  13
ATOM     13  C   UNL     1      -7.034 -13.244   3.794  0.00  0.00    +0.042 C 
BRANCH  13  14
ATOM     14  C   UNL     1      -6.263 -12.781   5.032  0.00  0.00    +0.088 C 
BRANCH  14  18
ATOM     15  N   UNL     1      -2.675 -14.747   6.094  0.00  0.00    +0.381 N 
ATOM     16  C   UNL     1      -3.728 -14.636   7.111  0.00  0.00    -0.063 C 
ATOM     17  C   UNL     1      -4.694 -13.513   6.726  0.00  0.00    +0.066 C 
ATOM     18  N   UNL     1      -5.286 -13.809   5.413  0.00  0.00    -0.306 NA
ATOM     19  C   UNL     1      -4.241 -13.948   4.389  0.00  0.00    +0.066 C 
ATOM     20  C   UNL     1      -3.279 -15.067   4.794  0.00  0.00    -0.063 C 
ATOM     21  H   UNL     1      -2.179 -13.871   6.027  0.00  0.00    -0.082 HD
BRANCH  15  23
ATOM     22  C   UNL     1      -1.016 -15.421   7.765  0.00  0.00    -0.017 C 
ATOM     23  C   UNL     1      -1.738 -15.812   6.474  0.00  0.00    -0.082 C 
ENDBRANCH  15  23
ENDBRANCH  14  18
ENDBRANCH  13  14
ENDBRANCH  11  13
ENDBRANCH   1  12
BRANCH  10  24
ATOM     24  N   UNL     1     -12.747  -7.254   1.643  0.00  0.00    -0.313 N 
ATOM     25  H   UNL     1     -12.558  -6.458   2.164  0.00  0.00    +0.152 HD
BRANCH  24  26
ATOM     26  C   UNL     1     -13.963  -7.926   1.808  0.00  0.00    +0.033 A 
ATOM     27  C   UNL     1     -14.178  -9.140   1.167  0.00  0.00    +0.024 A 
ATOM     28  C   UNL     1     -15.378  -9.803   1.329  0.00  0.00    +0.018 A 
ATOM     29  C   UNL     1     -16.371  -9.257   2.133  0.00  0.00    +0.034 A 
ATOM     30  C   UNL     1     -16.156  -8.042   2.774  0.00  0.00    +0.057 A 
ATOM     31  C   UNL     1     -14.953  -7.382   2.616  0.00  0.00    +0.044 A 
ATOM     32 CL   UNL     1     -17.396  -7.359   3.778  0.00  0.00    -0.082 Cl
BRANCH  29  33
ATOM     33  S   UNL     1     -17.903 -10.103   2.338  0.00  0.00    -0.050 S 
BRANCH  33  34
ATOM     34  C   UNL     1     -17.798 -10.785   3.959  0.00  0.00    +0.173 A 
ATOM     35  N   UNL     1     -16.750 -10.735   4.748  0.00  0.00    -0.230 NA
ATOM     36  C   UNL     1     -17.033 -11.358   5.904  0.00  0.00    +0.131 A 
ATOM     37  C   UNL     1     -18.296 -11.814   5.840  0.00  0.00    +0.107 A 
ATOM     38  N   UNL     1     -18.793 -11.450   4.609  0.00  0.00    -0.328 N 
ATOM     39  C   UNL     1     -20.136 -11.727   4.095  0.00  0.00    +0.151 C 
ENDBRANCH  33  34
ENDBRANCH  29  33
ENDBRANCH  24  26
ENDBRANCH  10  24
BRANCH   9  40
ATOM     40  C   UNL     1     -12.697  -6.228  -1.006  0.00  0.00    +0.103 C 
ATOM     41  N   UNL     1     -13.431  -5.431  -1.346  0.00  0.00    -0.191 NA
ENDBRANCH   9  40
TORSDOF 10
