REMARK  Name = CHEMBL584915
REMARK  8 active torsions:
REMARK  status: ('A' for Active; 'I' for Inactive)
REMARK    1  A    between atoms: C_1  and  O_2
REMARK    2  A    between atoms: O_2  and  C_3
REMARK    3  A    between atoms: C_5  and  N_11
REMARK    4  A    between atoms: N_11  and  C_12
REMARK    5  A    between atoms: C_16  and  C_24
REMARK    6  A    between atoms: C_21  and  C_22
REMARK    7  A    between atoms: C_27  and  C_30
REMARK    8  A    between atoms: C_30  and  N_31
REMARK                            x       y       z     vdW  Elec       q    Type
REMARK                         _______ _______ _______ _____ _____    ______ ____
ROOT
ATOM      1  C   UNL     1       2.499   1.837  -3.861  0.00  0.00    +0.060 A 
ATOM      2  C   UNL     1       2.866   2.669  -4.946  0.00  0.00    +0.023 A 
ATOM      3  C   UNL     1       3.098   2.132  -6.221  0.00  0.00    +0.012 A 
ATOM      4  C   UNL     1       3.449   2.950  -7.249  0.00  0.00    +0.011 A 
ATOM      5  C   UNL     1       3.583   4.332  -7.050  0.00  0.00    +0.002 A 
ATOM      6  C   UNL     1       3.360   4.889  -5.802  0.00  0.00    +0.038 A 
ATOM      7  C   UNL     1       2.996   4.062  -4.729  0.00  0.00    +0.073 A 
ATOM      8  N   UNL     1       2.774   4.580  -3.513  0.00  0.00    -0.254 NA
ATOM      9  C   UNL     1       2.434   3.835  -2.493  0.00  0.00    +0.132 A 
ATOM     10  C   UNL     1       2.277   2.445  -2.616  0.00  0.00    +0.091 A 
ENDROOT
BRANCH   5  11
ATOM     11  C   UNL     1       3.967   5.205  -8.185  0.00  0.00    +0.071 A 
ATOM     12  C   UNL     1       4.084   4.664  -9.464  0.00  0.00    +0.029 A 
ATOM     13  C   UNL     1       4.443   5.491 -10.514  0.00  0.00    +0.008 A 
ATOM     14  C   UNL     1       4.673   6.834 -10.251  0.00  0.00    -0.015 A 
ATOM     15  C   UNL     1       4.538   7.304  -8.957  0.00  0.00    +0.116 A 
ATOM     16  N   UNL     1       4.191   6.496  -7.977  0.00  0.00    -0.255 NA
BRANCH  14  17
ATOM     17  C   UNL     1       5.066   7.771 -11.364  0.00  0.00    +0.121 C 
BRANCH  17  18
ATOM     18  N   UNL     1       3.858   8.351 -11.965  0.00  0.00    -0.294 NA
ATOM     19  C   UNL     1       3.063   7.321 -12.649  0.00  0.00    +0.113 C 
ATOM     20  C   UNL     1       1.788   7.956 -13.208  0.00  0.00    +0.175 C 
ATOM     21  O   UNL     1       2.140   9.035 -14.079  0.00  0.00    -0.377 OA
ATOM     22  C   UNL     1       2.914  10.056 -13.445  0.00  0.00    +0.175 C 
ATOM     23  C   UNL     1       4.202   9.443 -12.889  0.00  0.00    +0.113 C 
ENDBRANCH  17  18
ENDBRANCH  14  17
ENDBRANCH   5  11
BRANCH   1  24
ATOM     24  N   UNL     1       2.359   0.474  -4.024  0.00  0.00    -0.312 N 
ATOM     25  H   UNL     1       2.813   0.024  -4.753  0.00  0.00    +0.152 HD
BRANCH  24  28
ATOM     26  C   UNL     1       1.357  -1.905  -1.402  0.00  0.00    +0.140 A 
ATOM     27  C   UNL     1       2.148  -1.182  -2.280  0.00  0.00    +0.071 A 
ATOM     28  C   UNL     1       1.564  -0.258  -3.136  0.00  0.00    +0.053 A 
ATOM     29  C   UNL     1       0.188  -0.061  -3.110  0.00  0.00    +0.064 A 
ATOM     30  C   UNL     1      -0.597  -0.784  -2.232  0.00  0.00    +0.045 A 
ATOM     31  C   UNL     1      -0.017  -1.709  -1.383  0.00  0.00    +0.084 A 
ATOM     32 CL   UNL     1      -1.008  -2.621  -0.287  0.00  0.00    -0.080 Cl
ATOM     33 CL   UNL     1      -0.544   1.094  -4.179  0.00  0.00    -0.082 Cl
BRANCH  26  35
ATOM     34  C   UNL     1       3.353  -2.879  -0.553  0.00  0.00    +0.277 C 
ATOM     35  O   UNL     1       1.926  -2.811  -0.563  0.00  0.00    -0.494 OA
ENDBRANCH  26  35
ENDBRANCH  24  28
ENDBRANCH   1  24
BRANCH  10  36
ATOM     36  C   UNL     1       1.898   1.656  -1.483  0.00  0.00    +0.103 C 
ATOM     37  N   UNL     1       1.597   1.030  -0.584  0.00  0.00    -0.191 NA
ENDBRANCH  10  36
TORSDOF 7
