REMARK  Name = CHEMBL211613
REMARK  12 active torsions:
REMARK  status: ('A' for Active; 'I' for Inactive)
REMARK    1  A    between atoms: C_1  and  N_2
REMARK    2  A    between atoms: N_5  and  C_8
REMARK    3  A    between atoms: C_8  and  C_9
REMARK    4  A    between atoms: C_13  and  C_15
REMARK    5  A    between atoms: C_16  and  C_17
REMARK    6  A    between atoms: C_22  and  O_23
REMARK    7  A    between atoms: O_23  and  C_24
REMARK    8  A    between atoms: C_25  and  N_31
REMARK    9  A    between atoms: C_26  and  C_29
REMARK   10  A    between atoms: N_31  and  C_32
REMARK   11  A    between atoms: C_34  and  O_40
REMARK   12  A    between atoms: O_40  and  C_41
REMARK                            x       y       z     vdW  Elec       q    Type
REMARK                         _______ _______ _______ _____ _____    ______ ____
ROOT
ATOM      1  C   UNL     1       8.177  -9.299   5.135  0.00  0.00    +0.069 A 
ATOM      2  C   UNL     1       7.908  -8.320   6.081  0.00  0.00    +0.049 A 
ATOM      3  C   UNL     1       8.489  -7.052   5.952  0.00  0.00    +0.074 A 
ATOM      4  C   UNL     1       9.346  -6.791   4.854  0.00  0.00    +0.026 A 
ATOM      5  C   UNL     1       9.605  -7.795   3.909  0.00  0.00    +0.058 A 
ATOM      6  C   UNL     1       9.036  -9.027   4.050  0.00  0.00    +0.136 A 
ATOM      7  C   UNL     1       9.930  -5.508   4.730  0.00  0.00    +0.060 A 
ATOM      8  C   UNL     1       9.627  -4.553   5.711  0.00  0.00    +0.091 A 
ATOM      9  C   UNL     1       8.767  -4.899   6.766  0.00  0.00    +0.132 A 
ATOM     10  N   UNL     1       8.241  -6.093   6.858  0.00  0.00    -0.254 NA
ENDROOT
BRANCH   1  12
ATOM     11  C   UNL     1       7.098 -11.659   5.371  0.00  0.00    -0.041 C 
ATOM     12  C   UNL     1       7.584 -10.596   5.265  0.00  0.00    -0.056 C 
BRANCH  11  17
ATOM     13  C   UNL     1       6.242 -15.100   4.682  0.00  0.00    +0.057 A 
ATOM     14  C   UNL     1       5.391 -15.434   5.721  0.00  0.00    +0.025 A 
ATOM     15  C   UNL     1       5.089 -14.483   6.687  0.00  0.00    +0.004 A 
ATOM     16  C   UNL     1       5.654 -13.226   6.577  0.00  0.00    +0.037 A 
ATOM     17  C   UNL     1       6.505 -12.956   5.501  0.00  0.00    +0.114 A 
ATOM     18  N   UNL     1       6.772 -13.898   4.601  0.00  0.00    -0.242 NA
BRANCH  13  19
ATOM     19  C   UNL     1       6.571 -16.130   3.632  0.00  0.00    +0.139 C 
BRANCH  19  24
ATOM     20  C   UNL     1       4.143 -15.468  -1.409  0.00  0.00    -0.096 C 
ATOM     21  N   UNL     1       5.084 -15.635  -0.294  0.00  0.00    +0.379 N 
ATOM     22  C   UNL     1       4.807 -16.903   0.395  0.00  0.00    -0.064 C 
ATOM     23  C   UNL     1       5.800 -17.086   1.545  0.00  0.00    +0.066 C 
ATOM     24  N   UNL     1       5.672 -15.961   2.482  0.00  0.00    -0.300 NA
ATOM     25  C   UNL     1       5.922 -14.683   1.802  0.00  0.00    +0.066 C 
ATOM     26  C   UNL     1       4.929 -14.520   0.649  0.00  0.00    -0.064 C 
ATOM     27  H   UNL     1       6.029 -15.646  -0.649  0.00  0.00    -0.082 HD
ENDBRANCH  19  24
ENDBRANCH  13  19
ENDBRANCH  11  17
ENDBRANCH   1  12
BRANCH   6  28
ATOM     28  O   UNL     1       9.294  -9.997   3.135  0.00  0.00    -0.494 OA
ATOM     29  C   UNL     1      10.172  -9.658   2.059  0.00  0.00    +0.277 C 
ENDBRANCH   6  28
BRANCH   8  30
ATOM     30  C   UNL     1      10.189  -3.238   5.638  0.00  0.00    +0.103 C 
ATOM     31  N   UNL     1      10.635  -2.195   5.580  0.00  0.00    -0.191 NA
ENDBRANCH   8  30
BRANCH   7  32
ATOM     32  N   UNL     1      10.771  -5.207   3.677  0.00  0.00    -0.312 N 
ATOM     33  H   UNL     1      10.425  -4.748   2.896  0.00  0.00    +0.152 HD
BRANCH  32  34
ATOM     34  C   UNL     1      12.122  -5.564   3.738  0.00  0.00    +0.053 A 
ATOM     35  C   UNL     1      12.593  -6.323   4.800  0.00  0.00    +0.071 A 
ATOM     36  C   UNL     1      13.932  -6.675   4.857  0.00  0.00    +0.140 A 
ATOM     37  C   UNL     1      14.800  -6.268   3.852  0.00  0.00    +0.084 A 
ATOM     38  C   UNL     1      14.329  -5.512   2.794  0.00  0.00    +0.045 A 
ATOM     39  C   UNL     1      12.993  -5.164   2.731  0.00  0.00    +0.064 A 
ATOM     40 CL   UNL     1      12.404  -4.220   1.398  0.00  0.00    -0.082 Cl
ATOM     41 CL   UNL     1      16.477  -6.708   3.924  0.00  0.00    -0.080 Cl
BRANCH  36  42
ATOM     42  O   UNL     1      14.397  -7.418   5.896  0.00  0.00    -0.494 OA
ATOM     43  C   UNL     1      13.430  -7.902   6.830  0.00  0.00    +0.277 C 
ENDBRANCH  36  42
ENDBRANCH  32  34
ENDBRANCH   7  32
TORSDOF 9
