REMARK  Name = CHEMBL372178
REMARK  9 active torsions:
REMARK  status: ('A' for Active; 'I' for Inactive)
REMARK    1  A    between atoms: C_1  and  N_2
REMARK    2  A    between atoms: N_5  and  C_8
REMARK    3  A    between atoms: C_8  and  C_9
REMARK    4  A    between atoms: C_11  and  C_14
REMARK    5  A    between atoms: C_19  and  N_25
REMARK    6  A    between atoms: C_20  and  C_23
REMARK    7  A    between atoms: N_25  and  C_26
REMARK    8  A    between atoms: C_28  and  O_34
REMARK    9  A    between atoms: O_34  and  C_35
REMARK                            x       y       z     vdW  Elec       q    Type
REMARK                         _______ _______ _______ _____ _____    ______ ____
ROOT
ATOM      1  C   UNL     1      -1.512  -2.498   9.913  0.00  0.00    +0.041 A 
ATOM      2  C   UNL     1      -0.808  -3.662   9.919  0.00  0.00    +0.046 A 
ATOM      3  C   UNL     1      -1.444  -4.871   9.592  0.00  0.00    +0.081 A 
ATOM      4  C   UNL     1      -2.816  -4.764   9.273  0.00  0.00    +0.061 A 
ATOM      5  S   UNL     1      -3.151  -3.030   9.446  0.00  0.00    -0.083 S 
ATOM      6  C   UNL     1      -3.577  -5.866   8.931  0.00  0.00    +0.066 A 
ATOM      7  C   UNL     1      -2.937  -7.125   8.907  0.00  0.00    +0.092 A 
ATOM      8  C   UNL     1      -1.575  -7.178   9.231  0.00  0.00    +0.132 A 
ATOM      9  N   UNL     1      -0.896  -6.111   9.549  0.00  0.00    -0.253 NA
ENDROOT
BRANCH   1  12
ATOM     10  C   UNL     1      -1.444   1.104  10.550  0.00  0.00    +0.093 A 
ATOM     11  N   UNL     1      -1.871  -0.100  10.275  0.00  0.00    -0.242 NA
ATOM     12  C   UNL     1      -1.040  -1.133  10.222  0.00  0.00    +0.085 A 
ATOM     13  C   UNL     1       0.283  -0.865  10.471  0.00  0.00    +0.075 A 
ATOM     14  S   UNL     1       0.213   0.896  10.759  0.00  0.00    -0.079 S 
BRANCH  10  15
ATOM     15  C   UNL     1      -2.244   2.377  10.649  0.00  0.00    +0.147 C 
BRANCH  15  20
ATOM     16  C   UNL     1      -3.519   4.164  15.838  0.00  0.00    -0.096 C 
ATOM     17  N   UNL     1      -3.038   4.033  14.456  0.00  0.00    +0.379 N 
ATOM     18  C   UNL     1      -4.177   3.773  13.565  0.00  0.00    -0.064 C 
ATOM     19  C   UNL     1      -3.679   3.655  12.123  0.00  0.00    +0.066 C 
ATOM     20  N   UNL     1      -2.704   2.559  12.032  0.00  0.00    -0.300 NA
ATOM     21  C   UNL     1      -1.570   2.793  12.938  0.00  0.00    +0.066 C 
ATOM     22  C   UNL     1      -2.085   2.918  14.374  0.00  0.00    -0.064 C 
ATOM     23  H   UNL     1      -2.581   4.888  14.177  0.00  0.00    -0.082 HD
ENDBRANCH  15  20
ENDBRANCH  10  15
ENDBRANCH   1  12
BRANCH   7  24
ATOM     24  C   UNL     1      -3.660  -8.313   8.563  0.00  0.00    +0.103 C 
ATOM     25  N   UNL     1      -4.233  -9.255   8.290  0.00  0.00    -0.191 NA
ENDBRANCH   7  24
BRANCH   6  26
ATOM     26  N   UNL     1      -4.923  -5.740   8.621  0.00  0.00    -0.311 N 
ATOM     27  H   UNL     1      -5.584  -5.721   9.331  0.00  0.00    +0.152 HD
BRANCH  26  28
ATOM     28  C   UNL     1      -5.327  -5.639   7.287  0.00  0.00    +0.054 A 
ATOM     29  C   UNL     1      -4.397  -5.787   6.266  0.00  0.00    +0.071 A 
ATOM     30  C   UNL     1      -4.801  -5.687   4.944  0.00  0.00    +0.140 A 
ATOM     31  C   UNL     1      -6.134  -5.439   4.643  0.00  0.00    +0.084 A 
ATOM     32  C   UNL     1      -7.059  -5.292   5.660  0.00  0.00    +0.045 A 
ATOM     33  C   UNL     1      -6.661  -5.397   6.980  0.00  0.00    +0.064 A 
ATOM     34 CL   UNL     1      -7.826  -5.220   8.255  0.00  0.00    -0.082 Cl
ATOM     35 CL   UNL     1      -6.640  -5.314   2.987  0.00  0.00    -0.080 Cl
BRANCH  30  36
ATOM     36  O   UNL     1      -3.893  -5.831   3.943  0.00  0.00    -0.494 OA
ATOM     37  C   UNL     1      -2.565  -6.200   4.320  0.00  0.00    +0.277 C 
ENDBRANCH  30  36
ENDBRANCH  26  28
ENDBRANCH   6  26
TORSDOF 7
