REMARK  Name = CHEMBL431609
REMARK  9 active torsions:
REMARK  status: ('A' for Active; 'I' for Inactive)
REMARK    1  A    between atoms: C_1  and  N_2
REMARK    2  A    between atoms: N_5  and  C_8
REMARK    3  A    between atoms: C_11  and  N_14
REMARK    4  A    between atoms: C_17  and  C_19
REMARK    5  A    between atoms: C_22  and  N_27
REMARK    6  A    between atoms: C_23  and  O_25
REMARK    7  A    between atoms: O_25  and  C_26
REMARK    8  A    between atoms: C_28  and  C_30
REMARK    9  A    between atoms: C_40  and  N_44
REMARK                            x       y       z     vdW  Elec       q    Type
REMARK                         _______ _______ _______ _____ _____    ______ ____
ROOT
ATOM      1  N   UNL     1      -2.265  -7.894   2.161  0.00  0.00    -0.243 N 
ATOM      2  C   UNL     1      -2.499  -8.731   3.212  0.00  0.00    +0.164 A 
ATOM      3  C   UNL     1      -2.280 -10.041   2.747  0.00  0.00    +0.086 A 
ATOM      4  C   UNL     1      -1.898  -9.924   1.340  0.00  0.00    +0.105 A 
ATOM      5  N   UNL     1      -1.908  -8.647   1.037  0.00  0.00    -0.168 NA
ATOM      6  C   UNL     1      -2.456 -11.109   3.643  0.00  0.00    +0.131 A 
ATOM      7  N   UNL     1      -2.821 -10.832   4.891  0.00  0.00    -0.220 NA
ATOM      8  C   UNL     1      -3.015  -9.586   5.284  0.00  0.00    +0.225 A 
ATOM      9  N   UNL     1      -2.863  -8.555   4.482  0.00  0.00    -0.216 NA
ENDROOT
BRANCH   1  13
ATOM     10  C   UNL     1      -2.195  -3.826   0.879  0.00  0.00    +0.057 C 
ATOM     11  C   UNL     1      -3.546  -4.450   1.234  0.00  0.00    +0.021 C 
ATOM     12  C   UNL     1      -3.430  -5.975   1.192  0.00  0.00    +0.028 C 
ATOM     13  C   UNL     1      -2.376  -6.434   2.201  0.00  0.00    +0.110 C 
ATOM     14  C   UNL     1      -1.024  -5.810   1.847  0.00  0.00    +0.028 C 
ATOM     15  C   UNL     1      -1.140  -4.285   1.889  0.00  0.00    +0.021 C 
BRANCH  10  20
ATOM     16  C   UNL     1      -2.266   1.721  -0.108  0.00  0.00    -0.096 C 
ATOM     17  N   UNL     1      -2.139   0.261  -0.201  0.00  0.00    +0.379 N 
ATOM     18  C   UNL     1      -3.440  -0.362   0.076  0.00  0.00    -0.064 C 
ATOM     19  C   UNL     1      -3.312  -1.883  -0.039  0.00  0.00    +0.066 C 
ATOM     20  N   UNL     1      -2.306  -2.361   0.920  0.00  0.00    -0.303 NA
ATOM     21  C   UNL     1      -1.004  -1.727   0.670  0.00  0.00    +0.066 C 
ATOM     22  C   UNL     1      -1.151  -0.208   0.779  0.00  0.00    -0.064 C 
ATOM     23  H   UNL     1      -1.837   0.008  -1.130  0.00  0.00    -0.082 HD
ENDBRANCH  10  20
ENDBRANCH   1  13
BRANCH   4  24
ATOM     24  C   UNL     1      -1.568 -11.041   0.424  0.00  0.00    +0.006 A 
ATOM     25  C   UNL     1      -2.352 -12.194   0.418  0.00  0.00    +0.012 A 
ATOM     26  C   UNL     1      -2.045 -13.234  -0.435  0.00  0.00    +0.027 A 
ATOM     27  C   UNL     1      -0.955 -13.134  -1.289  0.00  0.00    +0.076 A 
ATOM     28  C   UNL     1      -0.168 -11.983  -1.288  0.00  0.00    +0.142 A 
ATOM     29  C   UNL     1      -0.476 -10.937  -0.438  0.00  0.00    +0.057 A 
BRANCH  27  30
ATOM     30  N   UNL     1      -0.645 -14.191  -2.153  0.00  0.00    -0.277 N 
ATOM     31  C   UNL     1      -1.586 -15.105  -2.463  0.00  0.00    +0.265 C 
ATOM     32  O   UNL     1      -2.729 -14.959  -2.072  0.00  0.00    -0.268 OA
ATOM     33  H   UNL     1       0.246 -14.266  -2.528  0.00  0.00    +0.155 HD
BRANCH  31  34
ATOM     34  C   UNL     1      -1.231 -16.280  -3.273  0.00  0.00    +0.103 A 
ATOM     35  C   UNL     1      -2.088 -17.263  -3.654  0.00  0.00    +0.040 A 
ATOM     36  C   UNL     1      -1.355 -18.202  -4.418  0.00  0.00    +0.000 A 
ATOM     37  C   UNL     1      -1.700 -19.398  -5.061  0.00  0.00    +0.010 A 
ATOM     38  C   UNL     1      -0.748 -20.104  -5.737  0.00  0.00    +0.001 A 
ATOM     39  C   UNL     1       0.563 -19.648  -5.796  0.00  0.00    +0.002 A 
ATOM     40  C   UNL     1       0.927 -18.476  -5.172  0.00  0.00    +0.026 A 
ATOM     41  C   UNL     1      -0.026 -17.738  -4.476  0.00  0.00    +0.047 A 
ATOM     42  N   UNL     1       0.027 -16.557  -3.773  0.00  0.00    -0.351 N 
ATOM     43  H   UNL     1       0.818 -16.010  -3.648  0.00  0.00    +0.166 HD
ENDBRANCH  31  34
ENDBRANCH  27  30
BRANCH  28  44
ATOM     44  O   UNL     1       0.899 -11.887  -2.125  0.00  0.00    -0.493 OA
ATOM     45  C   UNL     1       1.661 -10.680  -2.070  0.00  0.00    +0.277 C 
ENDBRANCH  28  44
ENDBRANCH   4  24
BRANCH   6  46
ATOM     46  N   UNL     1      -2.255 -12.414   3.237  0.00  0.00    -0.342 N 
ATOM     47  H   UNL     1      -1.804 -12.597   2.398  0.00  0.00    +0.144 HD
ATOM     48  H   UNL     1      -2.564 -13.147   3.791  0.00  0.00    +0.144 HD
ENDBRANCH   6  46
TORSDOF 7
