REMARK  Name = CHEMBL259084
REMARK  3 active torsions:
REMARK  status: ('A' for Active; 'I' for Inactive)
REMARK    1  A    between atoms: C_4  and  C_8
REMARK    2  A    between atoms: N_24  and  C_25
REMARK    3  A    between atoms: C_28  and  C_31
REMARK                            x       y       z     vdW  Elec       q    Type
REMARK                         _______ _______ _______ _____ _____    ______ ____
ROOT
ATOM      1  C   UNL     1       3.837  -1.069  -0.338  0.00  0.00    +0.056 C 
ATOM      2  N   UNL     1       4.256  -1.189   0.869  0.00  0.00    -0.379 N 
ATOM      3  C   UNL     1       5.555  -1.766   1.196  0.00  0.00    +0.152 C 
ATOM      4  C   UNL     1       6.645  -0.877   0.668  0.00  0.00    +0.016 A 
ATOM      5  C   UNL     1       7.515  -0.263   1.556  0.00  0.00    +0.122 A 
ATOM      6  N   UNL     1       8.467   0.526   1.083  0.00  0.00    -0.222 NA
ATOM      7  C   UNL     1       8.591   0.735  -0.220  0.00  0.00    +0.220 A 
ATOM      8  N   UNL     1       7.783   0.164  -1.096  0.00  0.00    -0.214 NA
ATOM      9  C   UNL     1       6.804  -0.651  -0.690  0.00  0.00    +0.082 A 
ATOM     10  C   UNL     1       5.944  -1.289  -1.710  0.00  0.00    +0.010 A 
ATOM     11  C   UNL     1       4.570  -1.491  -1.543  0.00  0.00    +0.009 A 
ATOM     12  C   UNL     1       3.836  -2.118  -2.560  0.00  0.00    +0.030 A 
ATOM     13  C   UNL     1       4.457  -2.534  -3.718  0.00  0.00    +0.042 A 
ATOM     14  C   UNL     1       5.818  -2.334  -3.888  0.00  0.00    +0.020 A 
ATOM     15  C   UNL     1       6.560  -1.711  -2.895  0.00  0.00    +0.012 A 
ATOM     16 CL   UNL     1       3.533  -3.308  -4.966  0.00  0.00    -0.084 Cl
ATOM     17  N   UNL     1       9.596   1.573  -0.675  0.00  0.00    -0.284 N 
ATOM     18  H   UNL     1       9.650   1.799  -1.617  0.00  0.00    +0.155 HD
ATOM     19  H   UNL     1       3.686  -0.884   1.593  0.00  0.00    +0.160 HD
ENDROOT
BRANCH   1  23
ATOM     20  C   UNL     1       0.002   0.677  -0.906  0.00  0.00    +0.006 A 
ATOM     21  C   UNL     1       1.127   1.480  -0.886  0.00  0.00    +0.039 A 
ATOM     22  C   UNL     1       2.377   0.920  -0.702  0.00  0.00    +0.135 A 
ATOM     23  C   UNL     1       2.502  -0.462  -0.535  0.00  0.00    +0.069 A 
ATOM     24  C   UNL     1       1.360  -1.267  -0.556  0.00  0.00    +0.135 A 
ATOM     25  C   UNL     1       0.117  -0.692  -0.741  0.00  0.00    +0.039 A 
ATOM     26  F   UNL     1       1.470  -2.604  -0.396  0.00  0.00    -0.205 F 
ATOM     27  F   UNL     1       3.476   1.706  -0.684  0.00  0.00    -0.205 F 
ENDBRANCH   1  23
BRANCH  17  28
ATOM     28  C   UNL     1      10.529   2.091   0.218  0.00  0.00    +0.034 A 
ATOM     29  C   UNL     1      11.047   3.368   0.018  0.00  0.00    +0.024 A 
ATOM     30  C   UNL     1      11.963   3.880   0.893  0.00  0.00    +0.017 A 
ATOM     31  C   UNL     1      12.380   3.119   1.992  0.00  0.00    +0.063 A 
ATOM     32  C   UNL     1      11.856   1.836   2.189  0.00  0.00    +0.017 A 
ATOM     33  C   UNL     1      10.937   1.333   1.313  0.00  0.00    +0.024 A 
BRANCH  31  34
ATOM     34  C   UNL     1      13.366   3.667   2.936  0.00  0.00    +0.387 C 
ATOM     35  O   UNL     1      13.823   4.788   2.762  0.00  0.00    -0.241 OA
ATOM     36  O   UNL     1      13.729   3.001   3.896  0.00  0.00    -0.241 OA
ENDBRANCH  31  34
ENDBRANCH  17  28
TORSDOF 3
