REMARK  Name = CHEMBL406418
REMARK  14 active torsions:
REMARK  status: ('A' for Active; 'I' for Inactive)
REMARK    1  A    between atoms: CG1_1  and  CB_2
REMARK    2  A    between atoms: CB_2  and  CG2_3
REMARK    3  A    between atoms: CB_2  and  CA_4
REMARK    4  A    between atoms: CA_4  and  C_6
REMARK    5  A    between atoms: CA_4  and  N_8
REMARK    6  A    between atoms: C_6  and  O_7
REMARK    7  A    between atoms: N_8  and  C_9
REMARK    8  A    between atoms: C_11  and  C_32
REMARK    9  A    between atoms: C_17  and  C_18
REMARK   10  A    between atoms: N_21  and  C_22
REMARK   11  A    between atoms: C_24  and  O_30
REMARK   12  A    between atoms: C_26  and  O_28
REMARK   13  A    between atoms: O_28  and  C_29
REMARK   14  A    between atoms: O_30  and  C_31
REMARK                            x       y       z     vdW  Elec       q    Type
REMARK                         _______ _______ _______ _____ _____    ______ ____
ROOT
ATOM      1  C   UNK A   0      -2.340  -2.675  -0.194  0.00  0.00    +0.125 A 
ATOM      2  C   UNK A   0      -3.471  -2.072  -0.712  0.00  0.00    +0.067 A 
ATOM      3  C   UNK A   0      -4.552  -2.865  -1.083  0.00  0.00    +0.050 A 
ATOM      4  N   UNK A   0      -4.494  -4.174  -0.940  0.00  0.00    -0.232 NA
ATOM      5  C   UNK A   0      -3.409  -4.768  -0.442  0.00  0.00    +0.172 A 
ATOM      6  N   UNK A   0      -2.318  -4.037  -0.068  0.00  0.00    -0.198 N 
ATOM      7  N   UNK A   0      -1.340  -4.917   0.407  0.00  0.00    -0.147 NA
ATOM      8  C   UNK A   0      -1.785  -6.148   0.332  0.00  0.00    +0.160 A 
ATOM      9  C   UNK A   0      -3.099  -6.120  -0.192  0.00  0.00    +0.122 A 
ATOM     10  N   UNK A   0      -1.087  -7.291   0.715  0.00  0.00    -0.297 N 
ATOM     11  H   UNK A   0      -1.468  -8.168   0.555  0.00  0.00    +0.154 HD
ENDROOT
BRANCH  10  12
ATOM     12  C   UNK A   0       0.162  -7.173   1.331  0.00  0.00    +0.039 A 
ATOM     13  C   UNK A   0       1.103  -8.184   1.192  0.00  0.00    +0.069 A 
ATOM     14  C   UNK A   0       2.342  -8.066   1.802  0.00  0.00    +0.125 A 
ATOM     15  C   UNK A   0       2.642  -6.938   2.552  0.00  0.00    +0.091 A 
ATOM     16  C   UNK A   0       1.702  -5.928   2.692  0.00  0.00    +0.125 A 
ATOM     17  C   UNK A   0       0.465  -6.041   2.077  0.00  0.00    +0.069 A 
BRANCH  16  18
ATOM     18  O   UNK A   0       1.996  -4.823   3.427  0.00  0.00    -0.495 OA
ATOM     19  C   UNK A   0       3.292  -4.770   4.028  0.00  0.00    +0.277 C 
ENDBRANCH  16  18
BRANCH  14  20
ATOM     20  O   UNK A   0       3.264  -9.056   1.667  0.00  0.00    -0.495 OA
ATOM     21  C   UNK A   0       4.519  -8.868   2.323  0.00  0.00    +0.277 C 
ENDBRANCH  14  20
ENDBRANCH  10  12
BRANCH   9  22
ATOM     22  C   UNK A   0      -3.963  -7.272  -0.441  0.00  0.00    +0.249 C 
ATOM     23  O   UNK A   0      -3.925  -7.841  -1.517  0.00  0.00    -0.270 OA
ATOM     24  N   UNK A   0      -4.802  -7.705   0.521  0.00  0.00    -0.325 N 
ATOM     25  H   UNK A   0      -4.833  -7.252   1.378  0.00  0.00    +0.145 HD
ATOM     26  H   UNK A   0      -5.375  -8.470   0.356  0.00  0.00    +0.145 HD
ENDBRANCH   9  22
BRANCH   3  27
ATOM     27  C   UNK A   0      -5.793  -2.225  -1.649  0.00  0.00    +0.038 C 
ATOM     28  C   UNK A   0      -7.089  -2.368  -0.848  0.00  0.00    +0.010 C 
ATOM     29  C   UNK A   0      -6.902  -3.154  -2.147  0.00  0.00    +0.010 C 
ENDBRANCH   3  27
BRANCH   1  30
ATOM     30  N   VAL A   1      -1.253  -1.919   0.182  0.00  0.00    -0.324 N 
ATOM     31  H   VAL A   1      -0.462  -2.352   0.541  0.00  0.00    +0.148 HD
BRANCH  30  32
ATOM     32  CA  VAL A   1      -1.290  -0.461   0.041  0.00  0.00    +0.100 C 
BRANCH  32  34
ATOM     33  CG1 VAL A   1       0.837  -0.610  -1.261  0.00  0.00    +0.009 C 
ATOM     34  CB  VAL A   1       0.137   0.076  -0.085  0.00  0.00    +0.005 C 
ATOM     35  CG2 VAL A   1       0.094   1.586  -0.328  0.00  0.00    +0.009 C 
ENDBRANCH  32  34
BRANCH  32  36
ATOM     36  C   VAL A   1      -1.958   0.153   1.273  0.00  0.00    +0.178 C 
BRANCH  36  37
ATOM     37  O   VAL A   1      -1.155  -0.100   2.427  0.00  0.00    -0.393 OA
ATOM     38  H   VAL A   1      -1.519   0.262   3.247  0.00  0.00    +0.209 HD
ENDBRANCH  36  37
ENDBRANCH  32  36
ENDBRANCH  30  32
ENDBRANCH   1  30
TORSDOF 10
