REMARK  Name = CHEMBL569038
REMARK  8 active torsions:
REMARK  status: ('A' for Active; 'I' for Inactive)
REMARK    1  A    between atoms: C_1  and  O_2
REMARK    2  A    between atoms: O_2  and  C_3
REMARK    3  A    between atoms: C_5  and  N_11
REMARK    4  A    between atoms: N_11  and  C_12
REMARK    5  A    between atoms: C_16  and  C_24
REMARK    6  A    between atoms: C_21  and  C_22
REMARK    7  A    between atoms: C_25  and  C_30
REMARK    8  A    between atoms: C_30  and  N_31
REMARK                            x       y       z     vdW  Elec       q    Type
REMARK                         _______ _______ _______ _____ _____    ______ ____
ROOT
ATOM      1  C   UNL     1      -5.987   1.460   3.749  0.00  0.00    +0.060 A 
ATOM      2  C   UNL     1      -6.846   2.339   3.047  0.00  0.00    +0.023 A 
ATOM      3  C   UNL     1      -8.240   2.211   3.136  0.00  0.00    +0.012 A 
ATOM      4  C   UNL     1      -9.046   3.068   2.454  0.00  0.00    +0.011 A 
ATOM      5  C   UNL     1      -8.498   4.085   1.658  0.00  0.00    +0.003 A 
ATOM      6  C   UNL     1      -7.127   4.234   1.551  0.00  0.00    +0.038 A 
ATOM      7  C   UNL     1      -6.279   3.360   2.248  0.00  0.00    +0.073 A 
ATOM      8  N   UNL     1      -4.946   3.488   2.160  0.00  0.00    -0.254 NA
ATOM      9  C   UNL     1      -4.130   2.689   2.798  0.00  0.00    +0.132 A 
ATOM     10  C   UNL     1      -4.604   1.652   3.617  0.00  0.00    +0.091 A 
ENDROOT
BRANCH   5  11
ATOM     11  C   UNL     1      -9.397   5.007   0.922  0.00  0.00    +0.075 A 
ATOM     12  C   UNL     1     -10.429   4.491   0.141  0.00  0.00    -0.007 A 
ATOM     13  C   UNL     1     -11.260   5.364  -0.539  0.00  0.00    +0.008 A 
ATOM     14  C   UNL     1     -11.031   6.727  -0.416  0.00  0.00    +0.020 A 
ATOM     15  C   UNL     1      -9.988   7.171   0.377  0.00  0.00    +0.111 A 
ATOM     16  N   UNL     1      -9.215   6.318   1.017  0.00  0.00    -0.255 NA
BRANCH  12  17
ATOM     17  C   UNL     1     -10.637   3.002   0.038  0.00  0.00    +0.121 C 
BRANCH  17  18
ATOM     18  N   UNL     1     -12.061   2.721  -0.191  0.00  0.00    -0.294 NA
ATOM     19  C   UNL     1     -12.841   2.912   1.041  0.00  0.00    +0.113 C 
ATOM     20  C   UNL     1     -14.322   2.668   0.744  0.00  0.00    +0.175 C 
ATOM     21  O   UNL     1     -14.484   1.356   0.198  0.00  0.00    -0.377 OA
ATOM     22  C   UNL     1     -13.739   1.136  -1.003  0.00  0.00    +0.175 C 
ATOM     23  C   UNL     1     -12.252   1.364  -0.723  0.00  0.00    +0.113 C 
ENDBRANCH  17  18
ENDBRANCH  12  17
ENDBRANCH   5  11
BRANCH   1  24
ATOM     24  N   UNL     1      -6.494   0.449   4.540  0.00  0.00    -0.312 N 
ATOM     25  H   UNL     1      -7.014  -0.266   4.140  0.00  0.00    +0.152 HD
BRANCH  24  28
ATOM     26  C   UNL     1      -5.263  -0.540   7.864  0.00  0.00    +0.140 A 
ATOM     27  C   UNL     1      -5.496  -0.549   6.497  0.00  0.00    +0.071 A 
ATOM     28  C   UNL     1      -6.258   0.456   5.918  0.00  0.00    +0.053 A 
ATOM     29  C   UNL     1      -6.786   1.469   6.710  0.00  0.00    +0.064 A 
ATOM     30  C   UNL     1      -6.552   1.476   8.072  0.00  0.00    +0.045 A 
ATOM     31  C   UNL     1      -5.797   0.471   8.651  0.00  0.00    +0.084 A 
ATOM     32 CL   UNL     1      -5.512   0.479  10.363  0.00  0.00    -0.080 Cl
ATOM     33 CL   UNL     1      -7.740   2.727   5.988  0.00  0.00    -0.082 Cl
BRANCH  26  35
ATOM     34  C   UNL     1      -3.911  -2.470   7.552  0.00  0.00    +0.277 C 
ATOM     35  O   UNL     1      -4.518  -1.523   8.433  0.00  0.00    -0.494 OA
ENDBRANCH  26  35
ENDBRANCH  24  28
ENDBRANCH   1  24
BRANCH  10  36
ATOM     36  C   UNL     1      -3.686   0.797   4.307  0.00  0.00    +0.103 C 
ATOM     37  N   UNL     1      -2.957   0.119   4.854  0.00  0.00    -0.191 NA
ENDBRANCH  10  36
TORSDOF 7
