REMARK  Name = CHEMBL355330
REMARK  4 active torsions:
REMARK  status: ('A' for Active; 'I' for Inactive)
REMARK    1  A    between atoms: C_3  and  C_8
REMARK    2  A    between atoms: C_5  and  O_7
REMARK    3  A    between atoms: N_10  and  C_18
REMARK    4  A    between atoms: C_13  and  N_17
REMARK                            x       y       z     vdW  Elec       q    Type
REMARK                         _______ _______ _______ _____ _____    ______ ____
ROOT
ATOM      1  C   UNL     1       3.659   2.171  -0.022  0.00  0.00    +0.012 A 
ATOM      2  C   UNL     1       4.723   1.980   0.795  0.00  0.00    +0.097 A 
ATOM      3  N   UNL     1       5.709   2.875   0.484  0.00  0.00    -0.328 N 
ATOM      4  C   UNL     1       5.311   3.679  -0.551  0.00  0.00    +0.147 A 
ATOM      5  C   UNL     1       4.016   3.276  -0.921  0.00  0.00    +0.066 A 
ATOM      6  C   UNL     1       3.378   3.945  -1.974  0.00  0.00    +0.129 A 
ATOM      7  N   UNL     1       4.029   4.933  -2.581  0.00  0.00    -0.220 NA
ATOM      8  C   UNL     1       5.246   5.278  -2.204  0.00  0.00    +0.225 A 
ATOM      9  N   UNL     1       5.880   4.683  -1.217  0.00  0.00    -0.218 NA
ENDROOT
BRANCH   1  12
ATOM     10  C   UNL     1      -0.017   1.378   0.010  0.00  0.00    +0.004 A 
ATOM     11  C   UNL     1       1.167   2.088   0.002  0.00  0.00    +0.009 A 
ATOM     12  C   UNL     1       2.386   1.411  -0.013  0.00  0.00    -0.012 A 
ATOM     13  C   UNL     1       2.404   0.018  -0.021  0.00  0.00    +0.054 A 
ATOM     14  C   UNL     1       1.211  -0.686  -0.013  0.00  0.00    +0.117 A 
ATOM     15  C   UNL     1       0.002  -0.004   0.002  0.00  0.00    +0.045 A 
BRANCH  14  16
ATOM     16  O   UNL     1       1.225  -2.045  -0.021  0.00  0.00    -0.507 OA
ATOM     17  H   UNL     1       1.237  -2.443   0.860  0.00  0.00    +0.292 HD
ENDBRANCH  14  16
ENDBRANCH   1  12
BRANCH   3  18
ATOM     18  C   UNL     1       7.006   2.962   1.160  0.00  0.00    +0.089 C 
ATOM     19  C   UNL     1       7.588   1.595   1.554  0.00  0.00    +0.025 C 
ATOM     20  C   UNL     1       8.040   2.254   2.868  0.00  0.00    +0.004 C 
ATOM     21  C   UNL     1       6.896   3.261   2.665  0.00  0.00    +0.025 C 
ENDBRANCH   3  18
BRANCH   6  22
ATOM     22  N   UNL     1       2.102   3.586  -2.372  0.00  0.00    -0.343 N 
ATOM     23  H   UNL     1       1.639   2.863  -1.920  0.00  0.00    +0.144 HD
ATOM     24  H   UNL     1       1.671   4.057  -3.102  0.00  0.00    +0.144 HD
ENDBRANCH   6  22
TORSDOF 4
