REMARK  Name = CHEMBL210766
REMARK  2 active torsions:
REMARK  status: ('A' for Active; 'I' for Inactive)
REMARK    1  A    between atoms: C_6  and  C_7
REMARK    2  A    between atoms: N_12  and  C_15
REMARK                            x       y       z     vdW  Elec       q    Type
REMARK                         _______ _______ _______ _____ _____    ______ ____
ROOT
ATOM      1  C   UNL     1      -1.255  -0.759   0.011  0.00  0.00    +0.026 C 
ATOM      2  C   UNL     1      -1.236  -2.131  -0.101  0.00  0.00    +0.102 C 
ATOM      3  C   UNL     1      -2.394  -3.040  -0.220  0.00  0.00    +0.266 C 
ATOM      4  O   UNL     1      -3.567  -2.720  -0.238  0.00  0.00    -0.268 OA
ATOM      5  N   UNL     1      -1.901  -4.290  -0.304  0.00  0.00    -0.223 N 
ATOM      6  N   UNL     1      -0.508  -4.274  -0.250  0.00  0.00    -0.184 N 
ATOM      7  C   UNL     1      -0.052  -3.013  -0.135  0.00  0.00    +0.272 C 
ATOM      8  O   UNL     1       1.112  -2.666  -0.068  0.00  0.00    -0.268 OA
ATOM      9  H   UNL     1      -2.441  -5.091  -0.390  0.00  0.00    +0.174 HD
ENDROOT
BRANCH   1  15
ATOM     10  C   UNL     1       1.000  -0.389  -0.968  0.00  0.00    +0.009 A 
ATOM     11  C   UNL     1       2.172   0.332  -1.039  0.00  0.00    +0.015 A 
ATOM     12  C   UNL     1       2.360   1.439  -0.228  0.00  0.00    +0.013 A 
ATOM     13  C   UNL     1       1.372   1.832   0.661  0.00  0.00    +0.015 A 
ATOM     14  C   UNL     1       0.194   1.123   0.745  0.00  0.00    +0.009 A 
ATOM     15  C   UNL     1      -0.004   0.002  -0.072  0.00  0.00    -0.024 A 
ATOM     16  I   UNL     1       4.148   2.525  -0.345  0.00  0.00    -0.044 I 
ENDBRANCH   1  15
BRANCH   6  17
ATOM     17  C   UNL     1       0.304  -5.411  -0.313  0.00  0.00    +0.056 A 
ATOM     18  C   UNL     1       1.685  -5.285  -0.244  0.00  0.00    +0.026 A 
ATOM     19  C   UNL     1       2.484  -6.409  -0.306  0.00  0.00    +0.016 A 
ATOM     20  C   UNL     1       1.910  -7.661  -0.437  0.00  0.00    +0.013 A 
ATOM     21  C   UNL     1       0.535  -7.790  -0.506  0.00  0.00    +0.016 A 
ATOM     22  C   UNL     1      -0.270  -6.670  -0.439  0.00  0.00    +0.026 A 
ATOM     23  I   UNL     1       3.126  -9.364  -0.531  0.00  0.00    -0.044 I 
ENDBRANCH   6  17
TORSDOF 2
