REMARK  Name = CHEMBL260861
REMARK  13 active torsions:
REMARK  status: ('A' for Active; 'I' for Inactive)
REMARK    1  A    between atoms: C_1  and  O_2
REMARK    2  A    between atoms: O_2  and  C_3
REMARK    3  A    between atoms: C_5  and  N_11
REMARK    4  A    between atoms: C_7  and  O_9
REMARK    5  A    between atoms: O_9  and  C_10
REMARK    6  A    between atoms: C_13  and  C_36
REMARK    7  A    between atoms: C_16  and  C_33
REMARK    8  A    between atoms: C_18  and  N_21
REMARK    9  A    between atoms: N_21  and  CA_22
REMARK   10  A    between atoms: CA_22  and  CB_24
REMARK   11  A    between atoms: CA_22  and  C_31
REMARK   12  A    between atoms: CB_24  and  CG_25
REMARK   13  A    between atoms: C_31  and  O_32
REMARK                            x       y       z     vdW  Elec       q    Type
REMARK                         _______ _______ _______ _____ _____    ______ ____
ROOT
ATOM      1  N   UNK A   0       1.385  -4.025   2.208  0.00  0.00    -0.297 N 
ATOM      2  C   UNK A   0       2.113  -4.652   3.216  0.00  0.00    +0.160 A 
ATOM      3  C   UNK A   0       2.344  -6.043   3.326  0.00  0.00    +0.122 A 
ATOM      4  C   UNK A   0       3.121  -6.238   4.485  0.00  0.00    +0.172 A 
ATOM      5  N   UNK A   0       3.619  -7.335   5.057  0.00  0.00    -0.232 NA
ATOM      6  C   UNK A   0       4.332  -7.265   6.164  0.00  0.00    +0.050 A 
ATOM      7  C   UNK A   0       4.579  -6.033   6.761  0.00  0.00    +0.067 A 
ATOM      8  C   UNK A   0       4.068  -4.889   6.178  0.00  0.00    +0.125 A 
ATOM      9  N   UNK A   0       3.334  -5.004   5.030  0.00  0.00    -0.198 N 
ATOM     10  N   UNK A   0       2.705  -4.051   4.221  0.00  0.00    -0.147 NA
ATOM     11  H   UNK A   0       1.052  -4.541   1.458  0.00  0.00    +0.154 HD
ENDROOT
BRANCH   1  14
ATOM     12  C   UNK A   0       0.733  -0.551   1.182  0.00  0.00    +0.125 A 
ATOM     13  C   UNK A   0       0.982  -1.913   1.112  0.00  0.00    +0.069 A 
ATOM     14  C   UNK A   0       1.135  -2.652   2.278  0.00  0.00    +0.039 A 
ATOM     15  C   UNK A   0       1.038  -2.025   3.514  0.00  0.00    +0.069 A 
ATOM     16  C   UNK A   0       0.790  -0.663   3.582  0.00  0.00    +0.125 A 
ATOM     17  C   UNK A   0       0.642   0.075   2.417  0.00  0.00    +0.091 A 
BRANCH  12  19
ATOM     18  C   UNK A   0       0.336   1.571   0.188  0.00  0.00    +0.277 C 
ATOM     19  O   UNK A   0       0.584   0.172   0.041  0.00  0.00    -0.495 OA
ENDBRANCH  12  19
BRANCH  16  20
ATOM     20  O   UNK A   0       0.695  -0.050   4.791  0.00  0.00    -0.495 OA
ATOM     21  C   UNK A   0       0.437   1.356   4.787  0.00  0.00    +0.277 C 
ENDBRANCH  16  20
ENDBRANCH   1  14
BRANCH   3  22
ATOM     22  C   UNK A   0       1.867  -7.080   2.412  0.00  0.00    +0.249 C 
ATOM     23  O   UNK A   0       2.548  -7.411   1.459  0.00  0.00    -0.270 OA
ATOM     24  N   UNK A   0       0.674  -7.669   2.625  0.00  0.00    -0.325 N 
ATOM     25  H   UNK A   0       0.131  -7.405   3.385  0.00  0.00    +0.145 HD
ATOM     26  H   UNK A   0       0.358  -8.357   2.019  0.00  0.00    +0.145 HD
ENDBRANCH   3  22
BRANCH   6  27
ATOM     27  C   UNK A   0       4.880  -8.524   6.784  0.00  0.00    +0.038 C 
ATOM     28  C   UNK A   0       3.873  -9.557   7.295  0.00  0.00    +0.010 C 
ATOM     29  C   UNK A   0       4.676  -9.835   6.022  0.00  0.00    +0.010 C 
ENDBRANCH   6  27
BRANCH   8  30
ATOM     30  N   PHE A   1       4.294  -3.654   6.743  0.00  0.00    -0.324 N 
ATOM     31  H   PHE A   1       3.932  -2.856   6.327  0.00  0.00    +0.148 HD
BRANCH  30  32
ATOM     32  CA  PHE A   1       5.082  -3.545   7.974  0.00  0.00    +0.101 C 
BRANCH  32  33
ATOM     33  CB  PHE A   1       5.707  -2.151   8.057  0.00  0.00    +0.059 C 
BRANCH  33  34
ATOM     34  CG  PHE A   1       6.696  -1.975   6.934  0.00  0.00    -0.046 A 
ATOM     35  CD2 PHE A   1       8.019  -2.332   7.115  0.00  0.00    +0.004 A 
ATOM     36  CE2 PHE A   1       8.926  -2.171   6.084  0.00  0.00    +0.000 A 
ATOM     37  CZ  PHE A   1       8.509  -1.653   4.872  0.00  0.00    +0.000 A 
ATOM     38  CE1 PHE A   1       7.186  -1.297   4.690  0.00  0.00    +0.000 A 
ATOM     39  CD1 PHE A   1       6.278  -1.462   5.720  0.00  0.00    +0.004 A 
ENDBRANCH  33  34
ENDBRANCH  32  33
BRANCH  32  40
ATOM     40  C   PHE A   1       4.173  -3.770   9.183  0.00  0.00    +0.178 C 
BRANCH  40  41
ATOM     41  O   PHE A   1       3.209  -2.717   9.257  0.00  0.00    -0.393 OA
ATOM     42  H   PHE A   1       2.598  -2.795  10.002  0.00  0.00    +0.209 HD
ENDBRANCH  40  41
ENDBRANCH  32  40
ENDBRANCH  30  32
ENDBRANCH   8  30
TORSDOF 11
