REMARK  Name = CHEMBL315575
REMARK  7 active torsions:
REMARK  status: ('A' for Active; 'I' for Inactive)
REMARK    1  A    between atoms: C_1  and  C_2
REMARK    2  A    between atoms: N_15  and  O_16
REMARK    3  A    between atoms: O_16  and  C_17
REMARK    4  A    between atoms: C_17  and  C_18
REMARK    5  A    between atoms: N_23  and  C_26
REMARK    6  A    between atoms: C_30  and  O_36
REMARK    7  A    between atoms: C_32  and  O_35
REMARK                            x       y       z     vdW  Elec       q    Type
REMARK                         _______ _______ _______ _____ _____    ______ ____
ROOT
ATOM      1  C   UNL     1       0.087   1.567   0.169  0.00  0.00    +0.052 C 
ATOM      2  C   UNL     1       0.100   0.036   0.178  0.00  0.00    +0.176 C 
ATOM      3  C   UNL     1      -1.340  -0.469   0.254  0.00  0.00    +0.079 C 
ATOM      4  C   UNL     1      -1.629  -1.293  -1.005  0.00  0.00    +0.155 C 
ATOM      5  C   UNL     1      -1.434  -0.616  -2.363  0.00  0.00    +0.170 C 
ATOM      6  O   UNL     1      -2.728  -0.929  -1.845  0.00  0.00    -0.364 OA
ATOM      7  C   UNL     1      -0.849  -1.477  -3.457  0.00  0.00    +0.007 C 
ATOM      8  C   UNL     1       0.464  -1.453  -3.667  0.00  0.00    -0.002 C 
ATOM      9  C   UNL     1       1.343  -0.592  -2.901  0.00  0.00    +0.002 C 
ATOM     10  C   UNL     1       2.585  -0.885  -2.498  0.00  0.00    +0.027 C 
ATOM     11  C   UNL     1       3.353   0.115  -1.761  0.00  0.00    +0.084 C 
ATOM     12  N   UNL     1       3.062   1.374  -1.886  0.00  0.00    -0.089 NA
ATOM     13  C   UNL     1       4.460  -0.282  -0.817  0.00  0.00    +0.096 C 
ATOM     14  C   UNL     1       4.332   0.587   0.418  0.00  0.00    -0.002 A 
ATOM     15  C   UNL     1       3.228   0.443   1.257  0.00  0.00    +0.105 A 
ATOM     16  C   UNL     1       3.120   1.273   2.396  0.00  0.00    +0.135 A 
ATOM     17  C   UNL     1       4.098   2.216   2.655  0.00  0.00    +0.093 A 
ATOM     18  C   UNL     1       5.189   2.345   1.808  0.00  0.00    +0.139 A 
ATOM     19  C   UNL     1       5.298   1.521   0.689  0.00  0.00    +0.087 A 
ATOM     20 CL   UNL     1       6.670   1.686  -0.366  0.00  0.00    -0.079 Cl
ATOM     21  C   UNL     1       2.191  -0.546   1.005  0.00  0.00    +0.343 C 
ATOM     22  O   UNL     1       2.504  -1.579   0.451  0.00  0.00    -0.245 OA
ATOM     23  O   UNL     1       0.888  -0.407   1.290  0.00  0.00    -0.458 OA
ENDROOT
BRANCH  18  24
ATOM     24  O   UNL     1       6.143   3.274   2.063  0.00  0.00    -0.505 OA
ATOM     25  H   UNL     1       6.865   2.953   2.620  0.00  0.00    +0.292 HD
ENDBRANCH  18  24
BRANCH  16  26
ATOM     26  O   UNL     1       2.066   1.145   3.238  0.00  0.00    -0.506 OA
ATOM     27  H   UNL     1       2.211   0.515   3.957  0.00  0.00    +0.292 HD
ENDBRANCH  16  26
BRANCH  12  28
ATOM     28  O   UNL     1       2.121   1.790  -2.859  0.00  0.00    -0.384 OA
BRANCH  28  29
ATOM     29  C   UNL     1       1.898   3.201  -2.885  0.00  0.00    +0.358 C 
BRANCH  29  30
ATOM     30  C   UNL     1       0.885   3.529  -3.952  0.00  0.00    +0.256 C 
ATOM     31  O   UNL     1       0.402   2.642  -4.623  0.00  0.00    -0.272 OA
ATOM     32  N   UNL     1       0.516   4.809  -4.159  0.00  0.00    -0.302 N 
ATOM     33  C   UNL     1       1.092   5.902  -3.361  0.00  0.00    +0.089 C 
ATOM     34  C   UNL     1       1.592   6.990  -4.317  0.00  0.00    -0.060 C 
ATOM     35  N   UNL     1       0.497   7.401  -5.205  0.00  0.00    +0.380 N 
ATOM     36  C   UNL     1       0.098   6.276  -6.061  0.00  0.00    -0.060 C 
ATOM     37  C   UNL     1      -0.471   5.153  -5.195  0.00  0.00    +0.089 C 
ATOM     38  C   UNL     1       0.944   8.519  -6.046  0.00  0.00    -0.096 C 
ATOM     39  H   UNL     1      -0.292   7.695  -4.649  0.00  0.00    -0.082 HD
ENDBRANCH  29  30
ENDBRANCH  28  29
ENDBRANCH  12  28
TORSDOF 5
