REMARK  Name = CHEMBL1084302
REMARK  8 active torsions:
REMARK  status: ('A' for Active; 'I' for Inactive)
REMARK    1  A    between atoms: C_1  and  N_2
REMARK    2  A    between atoms: N_5  and  C_8
REMARK    3  A    between atoms: C_12  and  C_14
REMARK    4  A    between atoms: C_21  and  C_24
REMARK    5  A    between atoms: C_22  and  N_23
REMARK    6  A    between atoms: C_27  and  N_30
REMARK    7  A    between atoms: N_33  and  C_34
REMARK    8  A    between atoms: N_33  and  C_35
REMARK                            x       y       z     vdW  Elec       q    Type
REMARK                         _______ _______ _______ _____ _____    ______ ____
ROOT
ATOM      1  C   UNL     1       0.255  -5.910   4.316  0.00  0.00    +0.046 A 
ATOM      2  C   UNL     1       1.635  -6.098   4.178  0.00  0.00    +0.145 A 
ATOM      3  N   UNL     1       2.124  -6.498   5.326  0.00  0.00    -0.171 NA
ATOM      4  N   UNL     1       1.088  -6.589   6.262  0.00  0.00    -0.200 N 
ATOM      5  C   UNL     1      -0.076  -6.220   5.642  0.00  0.00    +0.165 A 
ATOM      6  N   UNL     1      -1.237  -6.208   6.305  0.00  0.00    -0.235 NA
ATOM      7  C   UNL     1      -1.304  -6.546   7.573  0.00  0.00    +0.125 A 
ATOM      8  C   UNL     1      -0.142  -6.930   8.264  0.00  0.00    +0.040 A 
ATOM      9  C   UNL     1       1.070  -6.954   7.581  0.00  0.00    +0.129 A 
ENDROOT
BRANCH   1  14
ATOM     10  C   UNL     1      -1.268  -3.917   1.512  0.00  0.00    +0.030 A 
ATOM     11  C   UNL     1      -2.440  -4.629   1.282  0.00  0.00    +0.023 A 
ATOM     12  C   UNL     1      -2.730  -5.750   2.036  0.00  0.00    +0.002 A 
ATOM     13  C   UNL     1      -1.859  -6.170   3.022  0.00  0.00    +0.009 A 
ATOM     14  C   UNL     1      -0.681  -5.462   3.259  0.00  0.00    -0.011 A 
ATOM     15  C   UNL     1      -0.384  -4.335   2.495  0.00  0.00    +0.031 A 
BRANCH  10  20
ATOM     16  C   UNL     1      -1.294   1.318  -0.082  0.00  0.00    +0.105 C 
ATOM     17  N   UNL     1      -0.989  -0.119  -0.067  0.00  0.00    -0.302 NA
ATOM     18  C   UNL     1      -2.212  -0.918  -0.221  0.00  0.00    +0.103 C 
ATOM     19  C   UNL     1      -1.836  -2.395  -0.382  0.00  0.00    +0.120 C 
ATOM     20  N   UNL     1      -0.978  -2.784   0.747  0.00  0.00    -0.327 N 
ATOM     21  C   UNL     1       0.195  -1.949   1.050  0.00  0.00    +0.120 C 
ATOM     22  C   UNL     1      -0.261  -0.489   1.154  0.00  0.00    +0.103 C 
ENDBRANCH  10  20
ENDBRANCH   1  14
BRANCH   8  23
ATOM     23  C   UNL     1      -0.208  -7.312   9.695  0.00  0.00    -0.013 A 
ATOM     24  C   UNL     1       0.094  -8.617  10.085  0.00  0.00    +0.010 A 
ATOM     25  C   UNL     1       0.033  -8.969  11.416  0.00  0.00    +0.024 A 
ATOM     26  C   UNL     1      -0.332  -8.026  12.370  0.00  0.00    +0.035 A 
ATOM     27  C   UNL     1      -0.634  -6.726  11.985  0.00  0.00    +0.024 A 
ATOM     28  C   UNL     1      -0.568  -6.367  10.655  0.00  0.00    +0.010 A 
BRANCH  26  29
ATOM     29  N   UNL     1      -0.394  -8.387  13.721  0.00  0.00    -0.269 N 
ATOM     30  C   UNL     1      -0.030  -7.504  14.672  0.00  0.00    +0.306 C 
ATOM     31  O   UNL     1       0.274  -6.369  14.362  0.00  0.00    -0.252 OA
ATOM     32  N   UNL     1      -0.004  -7.880  15.966  0.00  0.00    -0.285 N 
ATOM     33  C   UNL     1      -0.370  -9.249  16.339  0.00  0.00    +0.134 C 
ATOM     34  H   UNL     1      -0.700  -9.273  13.973  0.00  0.00    +0.156 HD
BRANCH  32  35
ATOM     35  C   UNL     1       0.392  -6.921  17.000  0.00  0.00    +0.077 C 
ATOM     36  C   UNL     1       1.625  -7.446  17.738  0.00  0.00    +0.022 C 
ATOM     37  C   UNL     1       2.039  -6.444  18.817  0.00  0.00    +0.002 C 
ATOM     38  C   UNL     1       0.889  -6.261  19.810  0.00  0.00    +0.000 C 
ATOM     39  C   UNL     1      -0.344  -5.736  19.072  0.00  0.00    +0.002 C 
ATOM     40  C   UNL     1      -0.757  -6.738  17.993  0.00  0.00    +0.022 C 
ENDBRANCH  32  35
ENDBRANCH  26  29
ENDBRANCH   8  23
BRANCH   9  41
ATOM     41  N   UNL     1       2.229  -7.324   8.223  0.00  0.00    -0.343 N 
ATOM     42  H   UNL     1       3.070  -7.327   7.741  0.00  0.00    +0.144 HD
ATOM     43  H   UNL     1       2.205  -7.581   9.158  0.00  0.00    +0.144 HD
ENDBRANCH   9  41
TORSDOF 6
