REMARK  Name = CHEMBL276934
REMARK  10 active torsions:
REMARK  status: ('A' for Active; 'I' for Inactive)
REMARK    1  A    between atoms: C_1  and  O_2
REMARK    2  A    between atoms: O_2  and  C_3
REMARK    3  A    between atoms: C_8  and  C_9
REMARK    4  A    between atoms: C_11  and  C_14
REMARK    5  A    between atoms: C_14  and  N_15
REMARK    6  A    between atoms: C_23  and  C_36
REMARK    7  A    between atoms: C_24  and  N_25
REMARK    8  A    between atoms: N_25  and  C_26
REMARK    9  A    between atoms: C_28  and  O_34
REMARK   10  A    between atoms: O_34  and  C_35
REMARK                            x       y       z     vdW  Elec       q    Type
REMARK                         _______ _______ _______ _____ _____    ______ ____
ROOT
ATOM      1  C   UNL     1      -1.155  -0.428   0.797  0.00  0.00    +0.129 A 
ATOM      2  C   UNL     1      -2.317   0.245   0.552  0.00  0.00    +0.058 A 
ATOM      3  C   UNL     1      -3.526  -0.459   0.452  0.00  0.00    +0.026 A 
ATOM      4  C   UNL     1      -3.542  -1.867   0.604  0.00  0.00    +0.074 A 
ATOM      5  C   UNL     1      -2.339  -2.542   0.856  0.00  0.00    +0.040 A 
ATOM      6  C   UNL     1      -1.158  -1.827   0.945  0.00  0.00    +0.029 A 
ATOM      7  N   UNL     1      -4.696  -2.544   0.507  0.00  0.00    -0.254 NA
ATOM      8  C   UNL     1      -5.834  -1.944   0.273  0.00  0.00    +0.132 A 
ATOM      9  C   UNL     1      -5.912  -0.552   0.108  0.00  0.00    +0.091 A 
ATOM     10  C   UNL     1      -4.742   0.217   0.198  0.00  0.00    +0.060 A 
ENDROOT
BRANCH   6  11
ATOM     11  C   UNL     1       0.116  -2.541   1.205  0.00  0.00    +0.024 A 
ATOM     12  C   UNL     1       0.377  -3.533   2.255  0.00  0.00    +0.054 A 
ATOM     13  C   UNL     1       1.660  -3.903   2.105  0.00  0.00    +0.119 A 
ATOM     14  O   UNL     1       2.190  -3.232   1.071  0.00  0.00    -0.466 OA
ATOM     15  C   UNL     1       1.281  -2.417   0.517  0.00  0.00    +0.203 A 
BRANCH  13  16
ATOM     16  C   UNL     1       2.386  -4.909   2.960  0.00  0.00    +0.159 C 
BRANCH  16  17
ATOM     17  N   UNL     1       2.229  -6.249   2.378  0.00  0.00    -0.291 NA
ATOM     18  C   UNL     1       0.829  -6.691   2.443  0.00  0.00    +0.113 C 
ATOM     19  C   UNL     1       0.701  -8.063   1.775  0.00  0.00    +0.175 C 
ATOM     20  O   UNL     1       1.589  -8.984   2.414  0.00  0.00    -0.377 OA
ATOM     21  C   UNL     1       2.962  -8.585   2.369  0.00  0.00    +0.175 C 
ATOM     22  C   UNL     1       3.113  -7.218   3.043  0.00  0.00    +0.113 C 
ENDBRANCH  16  17
ENDBRANCH  13  16
ENDBRANCH   6  11
BRANCH   1  24
ATOM     23  C   UNL     1      -0.051   1.676   0.734  0.00  0.00    +0.277 C 
ATOM     24  O   UNL     1       0.014   0.258   0.894  0.00  0.00    -0.494 OA
ENDBRANCH   1  24
BRANCH  10  25
ATOM     25  N   UNL     1      -4.777   1.588   0.042  0.00  0.00    -0.312 N 
ATOM     26  H   UNL     1      -3.974   2.067  -0.218  0.00  0.00    +0.152 HD
BRANCH  25  27
ATOM     27  C   UNL     1      -5.968   2.287   0.260  0.00  0.00    +0.053 A 
ATOM     28  C   UNL     1      -6.615   2.906  -0.801  0.00  0.00    +0.071 A 
ATOM     29  C   UNL     1      -7.795   3.598  -0.581  0.00  0.00    +0.140 A 
ATOM     30  C   UNL     1      -8.329   3.670   0.699  0.00  0.00    +0.084 A 
ATOM     31  C   UNL     1      -7.685   3.053   1.754  0.00  0.00    +0.045 A 
ATOM     32  C   UNL     1      -6.510   2.357   1.538  0.00  0.00    +0.064 A 
ATOM     33 CL   UNL     1      -5.707   1.577   2.865  0.00  0.00    -0.082 Cl
ATOM     34 CL   UNL     1      -9.808   4.537   0.973  0.00  0.00    -0.080 Cl
BRANCH  29  35
ATOM     35  O   UNL     1      -8.430   4.206  -1.619  0.00  0.00    -0.494 OA
ATOM     36  C   UNL     1      -7.888   3.995  -2.924  0.00  0.00    +0.277 C 
ENDBRANCH  29  35
ENDBRANCH  25  27
ENDBRANCH  10  25
BRANCH   9  37
ATOM     37  C   UNL     1      -7.173   0.077  -0.149  0.00  0.00    +0.103 C 
ATOM     38  N   UNL     1      -8.173   0.576  -0.353  0.00  0.00    -0.191 NA
ENDBRANCH   9  37
TORSDOF 8
