REMARK  Name = CHEMBL431136
REMARK  8 active torsions:
REMARK  status: ('A' for Active; 'I' for Inactive)
REMARK    1  A    between atoms: C_1  and  O_2
REMARK    2  A    between atoms: O_2  and  C_3
REMARK    3  A    between atoms: C_5  and  N_11
REMARK    4  A    between atoms: N_11  and  C_12
REMARK    5  A    between atoms: C_16  and  C_24
REMARK    6  A    between atoms: C_21  and  C_22
REMARK    7  A    between atoms: C_26  and  C_29
REMARK    8  A    between atoms: C_29  and  N_30
REMARK                            x       y       z     vdW  Elec       q    Type
REMARK                         _______ _______ _______ _____ _____    ______ ____
ROOT
ATOM      1  C   UNL     1      -4.637   1.721  -0.236  0.00  0.00    +0.060 A 
ATOM      2  C   UNL     1      -5.779   2.524  -0.014  0.00  0.00    +0.023 A 
ATOM      3  C   UNL     1      -6.986   1.957   0.425  0.00  0.00    +0.012 A 
ATOM      4  C   UNL     1      -8.072   2.747   0.633  0.00  0.00    +0.010 A 
ATOM      5  C   UNL     1      -8.002   4.133   0.413  0.00  0.00    -0.009 A 
ATOM      6  C   UNL     1      -6.822   4.719  -0.021  0.00  0.00    +0.037 A 
ATOM      7  C   UNL     1      -5.692   3.919  -0.240  0.00  0.00    +0.073 A 
ATOM      8  N   UNL     1      -4.540   4.466  -0.658  0.00  0.00    -0.254 NA
ATOM      9  C   UNL     1      -3.468   3.746  -0.871  0.00  0.00    +0.132 A 
ATOM     10  C   UNL     1      -3.462   2.357  -0.668  0.00  0.00    +0.091 A 
ENDROOT
BRANCH   5  11
ATOM     11  C   UNL     1      -9.194   4.973   0.645  0.00  0.00    +0.020 A 
ATOM     12  C   UNL     1     -10.442   4.602   1.073  0.00  0.00    +0.021 A 
ATOM     13  C   UNL     1     -11.407   5.572   1.218  0.00  0.00    -0.026 A 
ATOM     14  C   UNL     1     -11.096   6.864   0.933  0.00  0.00    +0.050 A 
ATOM     15  S   UNL     1      -9.383   6.737   0.448  0.00  0.00    -0.096 S 
BRANCH  13  16
ATOM     16  C   UNL     1     -12.792   5.207   1.686  0.00  0.00    +0.120 C 
BRANCH  16  17
ATOM     17  N   UNL     1     -12.850   5.283   3.152  0.00  0.00    -0.297 NA
ATOM     18  C   UNL     1     -12.629   6.654   3.615  0.00  0.00    +0.095 C 
ATOM     19  C   UNL     1     -12.238   6.645   5.098  0.00  0.00    +0.084 C 
ATOM     20  S   UNL     1     -13.611   5.923   6.048  0.00  0.00    -0.158 S 
ATOM     21  C   UNL     1     -13.953   4.379   5.148  0.00  0.00    +0.084 C 
ATOM     22  C   UNL     1     -14.100   4.711   3.658  0.00  0.00    +0.095 C 
ENDBRANCH  16  17
ENDBRANCH  13  16
ENDBRANCH   5  11
BRANCH   1  23
ATOM     23  N   UNL     1      -4.673   0.357  -0.029  0.00  0.00    -0.312 N 
ATOM     24  H   UNL     1      -5.520  -0.115  -0.055  0.00  0.00    +0.152 HD
BRANCH  23  27
ATOM     25  C   UNL     1      -1.843  -1.954  -0.464  0.00  0.00    +0.140 A 
ATOM     26  C   UNL     1      -3.017  -1.260  -0.712  0.00  0.00    +0.071 A 
ATOM     27  C   UNL     1      -3.489  -0.345   0.219  0.00  0.00    +0.053 A 
ATOM     28  C   UNL     1      -2.784  -0.126   1.397  0.00  0.00    +0.064 A 
ATOM     29  C   UNL     1      -1.613  -0.819   1.640  0.00  0.00    +0.045 A 
ATOM     30  C   UNL     1      -1.145  -1.736   0.716  0.00  0.00    +0.084 A 
ATOM     31 CL   UNL     1       0.323  -2.610   1.029  0.00  0.00    -0.080 Cl
ATOM     32 CL   UNL     1      -3.373   1.018   2.561  0.00  0.00    -0.082 Cl
BRANCH  25  34
ATOM     33  C   UNL     1      -2.082  -2.941  -2.614  0.00  0.00    +0.277 C 
ATOM     34  O   UNL     1      -1.378  -2.851  -1.373  0.00  0.00    -0.494 OA
ENDBRANCH  25  34
ENDBRANCH  23  27
ENDBRANCH   1  23
BRANCH  10  35
ATOM     35  C   UNL     1      -2.272   1.596  -0.903  0.00  0.00    +0.103 C 
ATOM     36  N   UNL     1      -1.328   0.993  -1.090  0.00  0.00    -0.191 NA
ENDBRANCH  10  35
TORSDOF 7
