REMARK  Name = CHEMBL413418
REMARK  7 active torsions:
REMARK  status: ('A' for Active; 'I' for Inactive)
REMARK    1  A    between atoms: C_1  and  N_2
REMARK    2  A    between atoms: N_5  and  C_8
REMARK    3  A    between atoms: C_8  and  C_9
REMARK    4  A    between atoms: C_12  and  C_15
REMARK    5  A    between atoms: C_20  and  O_26
REMARK    6  A    between atoms: C_21  and  C_24
REMARK    7  A    between atoms: O_26  and  C_27
REMARK                            x       y       z     vdW  Elec       q    Type
REMARK                         _______ _______ _______ _____ _____    ______ ____
ROOT
ATOM      1  C   UNL     1       1.422  -5.801   6.265  0.00  0.00    +0.022 A 
ATOM      2  C   UNL     1       0.741  -6.059   7.412  0.00  0.00    +0.044 A 
ATOM      3  C   UNL     1       1.430  -6.493   8.557  0.00  0.00    +0.082 A 
ATOM      4  C   UNL     1       2.828  -6.629   8.405  0.00  0.00    +0.082 A 
ATOM      5  S   UNL     1       3.110  -6.163   6.716  0.00  0.00    -0.083 S 
ATOM      6  C   UNL     1       3.640  -7.046   9.441  0.00  0.00    +0.163 A 
ATOM      7  C   UNL     1       3.030  -7.341  10.677  0.00  0.00    +0.113 A 
ATOM      8  C   UNL     1       1.640  -7.191  10.778  0.00  0.00    +0.134 A 
ATOM      9  N   UNL     1       0.910  -6.793   9.773  0.00  0.00    -0.253 NA
ENDROOT
BRANCH   1  13
ATOM     10  C   UNL     1      -0.094  -4.478   2.524  0.00  0.00    -0.033 A 
ATOM     11  C   UNL     1       1.262  -4.705   2.676  0.00  0.00    +0.005 A 
ATOM     12  C   UNL     1       1.761  -5.135   3.888  0.00  0.00    +0.009 A 
ATOM     13  C   UNL     1       0.894  -5.340   4.963  0.00  0.00    -0.011 A 
ATOM     14  C   UNL     1      -0.472  -5.109   4.802  0.00  0.00    +0.009 A 
ATOM     15  C   UNL     1      -0.958  -4.675   3.586  0.00  0.00    +0.005 A 
BRANCH  10  16
ATOM     16  C   UNL     1      -0.632  -4.009   1.196  0.00  0.00    +0.119 C 
BRANCH  16  21
ATOM     17  C   UNL     1      -0.018   1.465   0.010  0.00  0.00    -0.096 C 
ATOM     18  N   UNL     1       0.002  -0.004   0.002  0.00  0.00    +0.379 N 
ATOM     19  C   UNL     1      -1.376  -0.512   0.011  0.00  0.00    -0.064 C 
ATOM     20  C   UNL     1      -1.356  -2.042  -0.017  0.00  0.00    +0.066 C 
ATOM     21  N   UNL     1      -0.624  -2.541   1.156  0.00  0.00    -0.302 NA
ATOM     22  C   UNL     1       0.750  -2.020   1.175  0.00  0.00    +0.066 C 
ATOM     23  C   UNL     1       0.713  -0.490   1.192  0.00  0.00    -0.064 C 
ATOM     24  H   UNL     1       0.475  -0.329  -0.828  0.00  0.00    -0.082 HD
ENDBRANCH  16  21
ENDBRANCH  10  16
ENDBRANCH   1  13
BRANCH   7  25
ATOM     25  C   UNL     1       3.807  -7.780  11.797  0.00  0.00    +0.104 C 
ATOM     26  N   UNL     1       4.424  -8.128  12.685  0.00  0.00    -0.191 NA
ENDBRANCH   7  25
BRANCH   6  27
ATOM     27  O   UNL     1       4.979  -7.170   9.274  0.00  0.00    -0.452 OA
BRANCH  27  28
ATOM     28  C   UNL     1       5.758  -6.088   9.540  0.00  0.00    +0.147 A 
ATOM     29  C   UNL     1       5.178  -4.904   9.973  0.00  0.00    +0.049 A 
ATOM     30  C   UNL     1       5.971  -3.806  10.242  0.00  0.00    +0.023 A 
ATOM     31  C   UNL     1       7.343  -3.885  10.081  0.00  0.00    +0.043 A 
ATOM     32  C   UNL     1       7.925  -5.064   9.649  0.00  0.00    +0.043 A 
ATOM     33  C   UNL     1       7.135  -6.168   9.384  0.00  0.00    +0.085 A 
ATOM     34 CL   UNL     1       7.865  -7.649   8.849  0.00  0.00    -0.080 Cl
ATOM     35 CL   UNL     1       8.337  -2.502  10.419  0.00  0.00    -0.083 Cl
ENDBRANCH  27  28
ENDBRANCH   6  27
TORSDOF 6
