REMARK  Name = CHEMBL61967
REMARK  8 active torsions:
REMARK  status: ('A' for Active; 'I' for Inactive)
REMARK    1  A    between atoms: C_1  and  O_2
REMARK    2  A    between atoms: O_2  and  C_3
REMARK    3  A    between atoms: C_5  and  N_11
REMARK    4  A    between atoms: N_11  and  C_12
REMARK    5  A    between atoms: C_16  and  C_24
REMARK    6  A    between atoms: C_21  and  C_22
REMARK    7  A    between atoms: C_28  and  C_29
REMARK    8  A    between atoms: C_29  and  N_30
REMARK                            x       y       z     vdW  Elec       q    Type
REMARK                         _______ _______ _______ _____ _____    ______ ____
ROOT
ATOM      1  C   UNL     1       2.662   0.987   4.176  0.00  0.00    +0.060 A 
ATOM      2  C   UNL     1       3.283   1.956   4.998  0.00  0.00    +0.023 A 
ATOM      3  C   UNL     1       4.386   1.624   5.799  0.00  0.00    +0.012 A 
ATOM      4  C   UNL     1       4.968   2.571   6.581  0.00  0.00    +0.009 A 
ATOM      5  C   UNL     1       4.475   3.885   6.598  0.00  0.00    -0.015 A 
ATOM      6  C   UNL     1       3.388   4.241   5.818  0.00  0.00    +0.037 A 
ATOM      7  C   UNL     1       2.775   3.278   5.004  0.00  0.00    +0.073 A 
ATOM      8  N   UNL     1       1.721   3.601   4.240  0.00  0.00    -0.254 NA
ATOM      9  C   UNL     1       1.128   2.725   3.470  0.00  0.00    +0.132 A 
ATOM     10  C   UNL     1       1.567   1.393   3.397  0.00  0.00    +0.091 A 
ENDROOT
BRANCH   5  11
ATOM     11  C   UNL     1       5.125   4.902   7.459  0.00  0.00    -0.009 A 
ATOM     12  C   UNL     1       5.608   6.065   6.926  0.00  0.00    +0.054 A 
ATOM     13  S   UNL     1       6.262   6.889   8.368  0.00  0.00    -0.104 S 
ATOM     14  C   UNL     1       5.855   5.646   9.582  0.00  0.00    +0.047 A 
ATOM     15  C   UNL     1       5.252   4.698   8.831  0.00  0.00    -0.049 A 
BRANCH  15  16
ATOM     16  C   UNL     1       4.729   3.436   9.467  0.00  0.00    -0.042 C 
BRANCH  16  17
ATOM     17  N   UNL     1       3.268   3.517   9.587  0.00  0.00    +0.385 N 
ATOM     18  C   UNL     1       2.912   4.595  10.520  0.00  0.00    -0.050 C 
ATOM     19  C   UNL     1       1.388   4.678  10.644  0.00  0.00    +0.141 C 
ATOM     20  O   UNL     1       0.881   3.414  11.083  0.00  0.00    -0.383 OA
ATOM     21  C   UNL     1       1.223   2.327  10.218  0.00  0.00    +0.141 C 
ATOM     22  C   UNL     1       2.746   2.240  10.094  0.00  0.00    -0.050 C 
ATOM     23  H   UNL     1       2.866   3.709   8.682  0.00  0.00    -0.081 HD
ENDBRANCH  16  17
ENDBRANCH  15  16
ENDBRANCH   5  11
BRANCH   1  24
ATOM     24  N   UNL     1       3.121  -0.314   4.136  0.00  0.00    -0.312 N 
ATOM     25  H   UNL     1       3.647  -0.665   4.871  0.00  0.00    +0.152 HD
BRANCH  24  28
ATOM     26  C   UNL     1       1.679  -3.005   2.083  0.00  0.00    +0.140 A 
ATOM     27  C   UNL     1       1.967  -2.204   3.176  0.00  0.00    +0.071 A 
ATOM     28  C   UNL     1       2.829  -1.125   3.035  0.00  0.00    +0.053 A 
ATOM     29  C   UNL     1       3.401  -0.852   1.797  0.00  0.00    +0.064 A 
ATOM     30  C   UNL     1       3.111  -1.653   0.710  0.00  0.00    +0.045 A 
ATOM     31  C   UNL     1       2.257  -2.732   0.851  0.00  0.00    +0.084 A 
ATOM     32 CL   UNL     1       1.902  -3.741  -0.517  0.00  0.00    -0.080 Cl
ATOM     33 CL   UNL     1       4.479   0.497   1.619  0.00  0.00    -0.082 Cl
BRANCH  26  35
ATOM     34  C   UNL     1       0.191  -4.220   3.484  0.00  0.00    +0.277 C 
ATOM     35  O   UNL     1       0.835  -4.062   2.219  0.00  0.00    -0.494 OA
ENDBRANCH  26  35
ENDBRANCH  24  28
ENDBRANCH   1  24
BRANCH  10  36
ATOM     36  C   UNL     1       0.901   0.458   2.541  0.00  0.00    +0.103 C 
ATOM     37  N   UNL     1       0.373  -0.284   1.862  0.00  0.00    -0.191 NA
ENDBRANCH  10  36
TORSDOF 7
