REMARK  Name = CHEMBL584054
REMARK  10 active torsions:
REMARK  status: ('A' for Active; 'I' for Inactive)
REMARK    1  A    between atoms: C_1  and  N_2
REMARK    2  A    between atoms: N_2  and  C_3
REMARK    3  A    between atoms: N_2  and  C_4
REMARK    4  A    between atoms: C_4  and  C_5
REMARK    5  A    between atoms: C_8  and  C_11
REMARK    6  A    between atoms: C_19  and  C_32
REMARK    7  A    between atoms: C_20  and  N_21
REMARK    8  A    between atoms: N_21  and  C_22
REMARK    9  A    between atoms: C_24  and  O_30
REMARK   10  A    between atoms: O_30  and  C_31
REMARK                            x       y       z     vdW  Elec       q    Type
REMARK                         _______ _______ _______ _____ _____    ______ ____
ROOT
ATOM      1  C   UNL     1      -4.830   0.646  -4.554  0.00  0.00    +0.002 A 
ATOM      2  C   UNL     1      -5.406   1.906  -4.769  0.00  0.00    +0.011 A 
ATOM      3  C   UNL     1      -5.779   2.295  -6.018  0.00  0.00    +0.012 A 
ATOM      4  C   UNL     1      -5.586   1.431  -7.107  0.00  0.00    +0.023 A 
ATOM      5  C   UNL     1      -5.005   0.156  -6.905  0.00  0.00    +0.073 A 
ATOM      6  C   UNL     1      -4.623  -0.224  -5.610  0.00  0.00    +0.038 A 
ATOM      7  N   UNL     1      -4.819  -0.673  -7.942  0.00  0.00    -0.254 NA
ATOM      8  C   UNL     1      -5.160  -0.345  -9.163  0.00  0.00    +0.132 A 
ATOM      9  C   UNL     1      -5.742   0.898  -9.455  0.00  0.00    +0.091 A 
ATOM     10  C   UNL     1      -5.965   1.814  -8.415  0.00  0.00    +0.060 A 
ENDROOT
BRANCH   1  14
ATOM     11  C   UNL     1      -3.692  -0.524  -0.676  0.00  0.00    -0.046 A 
ATOM     12  C   UNL     1      -4.264   0.729  -0.844  0.00  0.00    +0.005 A 
ATOM     13  C   UNL     1      -4.640   1.119  -2.118  0.00  0.00    +0.028 A 
ATOM     14  C   UNL     1      -4.432   0.243  -3.183  0.00  0.00    +0.071 A 
ATOM     15  N   UNL     1      -3.882  -0.947  -2.979  0.00  0.00    -0.255 NA
ATOM     16  C   UNL     1      -3.510  -1.340  -1.778  0.00  0.00    +0.113 A 
BRANCH  11  17
ATOM     17  C   UNL     1      -3.267  -0.989   0.693  0.00  0.00    -0.042 C 
BRANCH  17  19
ATOM     18  C   UNL     1      -1.787   0.878   0.978  0.00  0.00    -0.096 C 
ATOM     19  N   UNL     1      -1.874  -0.588   0.935  0.00  0.00    +0.379 N 
ATOM     20  C   UNL     1      -1.422  -1.143   2.218  0.00  0.00    -0.096 C 
ATOM     21  H   UNL     1      -1.289  -0.938   0.192  0.00  0.00    -0.082 HD
ENDBRANCH  17  19
ENDBRANCH  11  17
ENDBRANCH   1  14
BRANCH  10  22
ATOM     22  N   UNL     1      -6.535   3.046  -8.661  0.00  0.00    -0.312 N 
ATOM     23  H   UNL     1      -6.395   3.778  -8.040  0.00  0.00    +0.152 HD
BRANCH  22  24
ATOM     24  C   UNL     1      -7.316   3.240  -9.805  0.00  0.00    +0.053 A 
ATOM     25  C   UNL     1      -6.873   4.084 -10.814  0.00  0.00    +0.071 A 
ATOM     26  C   UNL     1      -7.648   4.274 -11.946  0.00  0.00    +0.140 A 
ATOM     27  C   UNL     1      -8.867   3.620 -12.070  0.00  0.00    +0.084 A 
ATOM     28  C   UNL     1      -9.308   2.779 -11.064  0.00  0.00    +0.045 A 
ATOM     29  C   UNL     1      -8.534   2.582  -9.936  0.00  0.00    +0.064 A 
ATOM     30 CL   UNL     1      -9.086   1.520  -8.679  0.00  0.00    -0.082 Cl
ATOM     31 CL   UNL     1      -9.839   3.858 -13.488  0.00  0.00    -0.080 Cl
BRANCH  26  32
ATOM     32  O   UNL     1      -7.217   5.101 -12.935  0.00  0.00    -0.494 OA
ATOM     33  C   UNL     1      -5.905   5.650 -12.795  0.00  0.00    +0.277 C 
ENDBRANCH  26  32
ENDBRANCH  22  24
ENDBRANCH  10  22
BRANCH   9  34
ATOM     34  C   UNL     1      -6.104   1.229 -10.800  0.00  0.00    +0.103 C 
ATOM     35  N   UNL     1      -6.391   1.492 -11.868  0.00  0.00    -0.191 NA
ENDBRANCH   9  34
TORSDOF 7
