REMARK  Name = CHEMBL373132
REMARK  8 active torsions:
REMARK  status: ('A' for Active; 'I' for Inactive)
REMARK    1  A    between atoms: C_1  and  O_2
REMARK    2  A    between atoms: O_2  and  C_3
REMARK    3  A    between atoms: C_5  and  N_11
REMARK    4  A    between atoms: N_11  and  C_12
REMARK    5  A    between atoms: C_13  and  C_34
REMARK    6  A    between atoms: C_19  and  C_21
REMARK    7  A    between atoms: C_24  and  C_27
REMARK    8  A    between atoms: C_27  and  N_28
REMARK                            x       y       z     vdW  Elec       q    Type
REMARK                         _______ _______ _______ _____ _____    ______ ____
ROOT
ATOM      1  C   UNL     1       2.249   1.861  -4.364  0.00  0.00    +0.066 A 
ATOM      2  C   UNL     1       1.322   2.550  -3.553  0.00  0.00    +0.092 A 
ATOM      3  C   UNL     1       1.210   3.937  -3.714  0.00  0.00    +0.132 A 
ATOM      4  N   UNL     1       1.929   4.595  -4.582  0.00  0.00    -0.253 NA
ATOM      5  C   UNL     1       2.837   3.999  -5.393  0.00  0.00    +0.080 A 
ATOM      6  C   UNL     1       2.993   2.602  -5.265  0.00  0.00    +0.060 A 
ATOM      7  S   UNL     1       4.247   2.211  -6.458  0.00  0.00    -0.085 S 
ATOM      8  C   UNL     1       4.534   3.860  -7.077  0.00  0.00    +0.022 A 
ATOM      9  C   UNL     1       3.659   4.609  -6.356  0.00  0.00    +0.044 A 
ENDROOT
BRANCH   8  10
ATOM     10  C   UNL     1       5.481   4.300  -8.124  0.00  0.00    -0.011 A 
ATOM     11  C   UNL     1       5.566   5.650  -8.469  0.00  0.00    +0.009 A 
ATOM     12  C   UNL     1       6.452   6.054  -9.446  0.00  0.00    +0.005 A 
ATOM     13  C   UNL     1       7.254   5.125 -10.084  0.00  0.00    -0.033 A 
ATOM     14  C   UNL     1       7.175   3.785  -9.747  0.00  0.00    +0.005 A 
ATOM     15  C   UNL     1       6.298   3.369  -8.767  0.00  0.00    +0.009 A 
BRANCH  13  16
ATOM     16  C   UNL     1       8.219   5.573 -11.152  0.00  0.00    +0.119 C 
BRANCH  16  17
ATOM     17  N   UNL     1       9.511   5.904 -10.537  0.00  0.00    -0.297 NA
ATOM     18  C   UNL     1       9.382   7.040  -9.622  0.00  0.00    +0.095 C 
ATOM     19  C   UNL     1      10.581   7.079  -8.668  0.00  0.00    +0.084 C 
ATOM     20  S   UNL     1      12.093   7.295  -9.658  0.00  0.00    -0.158 S 
ATOM     21  C   UNL     1      11.931   6.000 -10.925  0.00  0.00    +0.084 C 
ATOM     22  C   UNL     1      10.540   6.115 -11.558  0.00  0.00    +0.095 C 
ENDBRANCH  16  17
ENDBRANCH  13  16
ENDBRANCH   8  10
BRANCH   1  23
ATOM     23  N   UNL     1       2.413   0.488  -4.258  0.00  0.00    -0.311 N 
ATOM     24  H   UNL     1       1.732  -0.050  -3.825  0.00  0.00    +0.152 HD
BRANCH  23  27
ATOM     25  C   UNL     1       4.620  -1.496  -6.434  0.00  0.00    +0.140 A 
ATOM     26  C   UNL     1       3.480  -0.893  -5.925  0.00  0.00    +0.071 A 
ATOM     27  C   UNL     1       3.561  -0.121  -4.774  0.00  0.00    +0.054 A 
ATOM     28  C   UNL     1       4.785   0.046  -4.136  0.00  0.00    +0.064 A 
ATOM     29  C   UNL     1       5.919  -0.556  -4.647  0.00  0.00    +0.045 A 
ATOM     30  C   UNL     1       5.838  -1.330  -5.791  0.00  0.00    +0.084 A 
ATOM     31 CL   UNL     1       7.264  -2.090  -6.425  0.00  0.00    -0.080 Cl
ATOM     32 CL   UNL     1       4.888   1.011  -2.697  0.00  0.00    -0.082 Cl
BRANCH  25  34
ATOM     33  C   UNL     1       3.282  -2.291  -8.232  0.00  0.00    +0.277 C 
ATOM     34  O   UNL     1       4.543  -2.252  -7.561  0.00  0.00    -0.494 OA
ENDBRANCH  25  34
ENDBRANCH  23  27
ENDBRANCH   1  23
BRANCH   2  35
ATOM     35  C   UNL     1       0.521   1.852  -2.593  0.00  0.00    +0.103 C 
ATOM     36  N   UNL     1      -0.115   1.298  -1.832  0.00  0.00    -0.191 NA
ENDBRANCH   2  35
TORSDOF 7
