REMARK  Name = CHEMBL341579
REMARK  3 active torsions:
REMARK  status: ('A' for Active; 'I' for Inactive)
REMARK    1  A    between atoms: C_4  and  C_7
REMARK    2  A    between atoms: C_7  and  N_8
REMARK    3  A    between atoms: C_12  and  C_15
REMARK                            x       y       z     vdW  Elec       q    Type
REMARK                         _______ _______ _______ _____ _____    ______ ____
ROOT
ATOM      1  N   UNL     1       4.152  -0.952   1.338  0.00  0.00    -0.288 N 
ATOM      2  C   UNL     1       4.933  -0.023   1.976  0.00  0.00    +0.149 A 
ATOM      3  C   UNL     1       5.367  -0.244   3.302  0.00  0.00    +0.037 A 
ATOM      4  C   UNL     1       4.998  -1.427   3.983  0.00  0.00    +0.027 A 
ATOM      5  C   UNL     1       4.218  -2.348   3.338  0.00  0.00    +0.050 A 
ATOM      6  C   UNL     1       3.781  -2.086   1.965  0.00  0.00    +0.261 A 
ATOM      7  O   UNL     1       3.082  -2.898   1.385  0.00  0.00    -0.267 OA
ATOM      8  C   UNL     1       6.164   0.732   3.918  0.00  0.00    +0.126 A 
ATOM      9  N   UNL     1       6.477   1.816   3.235  0.00  0.00    -0.222 NA
ATOM     10  C   UNL     1       6.051   1.991   1.989  0.00  0.00    +0.214 A 
ATOM     11  N   UNL     1       5.297   1.099   1.365  0.00  0.00    -0.197 NA
ATOM     12  N   UNL     1       6.408   3.144   1.319  0.00  0.00    -0.327 N 
ATOM     13  H   UNL     1       6.960   3.810   1.760  0.00  0.00    +0.145 HD
ATOM     14  H   UNL     1       6.107   3.290   0.409  0.00  0.00    +0.145 HD
ENDROOT
BRANCH   5  15
ATOM     15  C   UNL     1       3.815  -3.598   4.024  0.00  0.00    +0.024 A 
ATOM     16  C   UNL     1       4.618  -4.735   3.938  0.00  0.00    +0.050 A 
ATOM     17  C   UNL     1       4.237  -5.897   4.580  0.00  0.00    +0.021 A 
ATOM     18  C   UNL     1       3.061  -5.935   5.307  0.00  0.00    +0.003 A 
ATOM     19  C   UNL     1       2.260  -4.811   5.397  0.00  0.00    +0.021 A 
ATOM     20  C   UNL     1       2.633  -3.641   4.764  0.00  0.00    +0.050 A 
ATOM     21 CL   UNL     1       1.630  -2.229   4.885  0.00  0.00    -0.083 Cl
ATOM     22 CL   UNL     1       6.094  -4.690   3.024  0.00  0.00    -0.083 Cl
ENDBRANCH   5  15
BRANCH   1  23
ATOM     23  C   UNL     1       3.711  -0.707  -0.038  0.00  0.00    +0.162 C 
BRANCH  23  27
ATOM     24  C   UNL     1      -0.017   1.378   0.010  0.00  0.00    +0.000 A 
ATOM     25  C   UNL     1       1.171   2.086   0.002  0.00  0.00    +0.000 A 
ATOM     26  C   UNL     1       2.377   1.411  -0.013  0.00  0.00    +0.005 A 
ATOM     27  C   UNL     1       2.396   0.029  -0.020  0.00  0.00    -0.028 A 
ATOM     28  C   UNL     1       1.208  -0.679  -0.012  0.00  0.00    +0.005 A 
ATOM     29  C   UNL     1       0.002  -0.004   0.002  0.00  0.00    +0.000 A 
ENDBRANCH  23  27
ENDBRANCH   1  23
TORSDOF 3
