REMARK  Name = CHEMBL262371
REMARK  11 active torsions:
REMARK  status: ('A' for Active; 'I' for Inactive)
REMARK    1  A    between atoms: C_1  and  N_2
REMARK    2  A    between atoms: N_5  and  C_8
REMARK    3  A    between atoms: C_8  and  C_9
REMARK    4  A    between atoms: C_9  and  C_10
REMARK    5  A    between atoms: C_10  and  O_11
REMARK    6  A    between atoms: O_11  and  C_12
REMARK    7  A    between atoms: C_16  and  O_18
REMARK    8  A    between atoms: O_18  and  C_19
REMARK    9  A    between atoms: N_29  and  C_30
REMARK   10  A    between atoms: C_32  and  O_37
REMARK   11  A    between atoms: O_37  and  C_38
REMARK                            x       y       z     vdW  Elec       q    Type
REMARK                         _______ _______ _______ _____ _____    ______ ____
ROOT
ATOM      1  C   UNL     1       0.460  -8.446   3.332  0.00  0.00    +0.126 A 
ATOM      2  C   UNL     1       0.007  -9.425   2.470  0.00  0.00    +0.074 A 
ATOM      3  C   UNL     1       0.288 -10.768   2.738  0.00  0.00    +0.083 A 
ATOM      4  C   UNL     1       1.036 -11.108   3.893  0.00  0.00    +0.082 A 
ATOM      5  C   UNL     1       1.487 -10.096   4.757  0.00  0.00    +0.137 A 
ATOM      6  C   UNL     1       1.201  -8.779   4.466  0.00  0.00    +0.092 A 
ATOM      7  C   UNL     1       1.304 -12.474   4.137  0.00  0.00    +0.137 A 
ATOM      8  N   UNL     1       0.842 -13.369   3.272  0.00  0.00    -0.220 NA
ATOM      9  C   UNL     1       0.148 -13.006   2.206  0.00  0.00    +0.223 A 
ATOM     10  N   UNL     1      -0.131 -11.754   1.929  0.00  0.00    -0.235 NA
ATOM     11  N   UNL     1       2.027 -12.867   5.244  0.00  0.00    -0.298 N 
ATOM     12  H   UNL     1       2.278 -12.214   5.916  0.00  0.00    +0.154 HD
ENDROOT
BRANCH  11  13
ATOM     13  C   UNL     1       2.398 -14.207   5.398  0.00  0.00    +0.054 A 
ATOM     14  C   UNL     1       2.134 -15.121   4.388  0.00  0.00    +0.070 A 
ATOM     15  C   UNL     1       2.503 -16.448   4.543  0.00  0.00    +0.122 A 
ATOM     16  C   UNL     1       3.136 -16.860   5.708  0.00  0.00    +0.047 A 
ATOM     17  C   UNL     1       3.398 -15.948   6.713  0.00  0.00    +0.025 A 
ATOM     18  C   UNL     1       3.037 -14.623   6.560  0.00  0.00    +0.062 A 
ATOM     19 CL   UNL     1       3.375 -13.480   7.822  0.00  0.00    -0.082 Cl
BRANCH  15  20
ATOM     20  O   UNL     1       2.245 -17.346   3.556  0.00  0.00    -0.495 OA
ATOM     21  C   UNL     1       2.653 -18.696   3.784  0.00  0.00    +0.277 C 
ENDBRANCH  15  20
ENDBRANCH  11  13
BRANCH   1  22
ATOM     22  O   UNL     1       0.186  -7.143   3.069  0.00  0.00    -0.492 OA
BRANCH  22  23
ATOM     23  C   UNL     1      -0.577  -6.864   1.893  0.00  0.00    +0.227 C 
BRANCH  23  24
ATOM     24  C   UNL     1      -0.784  -5.354   1.765  0.00  0.00    +0.022 C 
BRANCH  24  25
ATOM     25  C   UNL     1      -1.600  -5.056   0.506  0.00  0.00    -0.075 C 
BRANCH  25  30
ATOM     26  C   UNL     1      -1.786   0.300  -1.234  0.00  0.00    +0.104 C 
ATOM     27  N   UNL     1      -1.609  -1.148  -1.061  0.00  0.00    -0.309 NA
ATOM     28  C   UNL     1      -2.904  -1.818  -0.875  0.00  0.00    +0.065 C 
ATOM     29  C   UNL     1      -2.682  -3.328  -0.757  0.00  0.00    -0.063 C 
ATOM     30  N   UNL     1      -1.799  -3.606   0.383  0.00  0.00    +0.381 N 
ATOM     31  C   UNL     1      -0.501  -2.950   0.171  0.00  0.00    -0.063 C 
ATOM     32  C   UNL     1      -0.706  -1.438   0.062  0.00  0.00    +0.065 C 
ATOM     33  H   UNL     1      -2.220  -3.251   1.228  0.00  0.00    -0.082 HD
ENDBRANCH  25  30
ENDBRANCH  24  25
ENDBRANCH  23  24
ENDBRANCH  22  23
ENDBRANCH   1  22
BRANCH   5  34
ATOM     34  O   UNL     1       2.203 -10.412   5.865  0.00  0.00    -0.488 OA
BRANCH  34  35
ATOM     35  C   UNL     1       2.768  -9.327   6.604  0.00  0.00    +0.178 C 
ATOM     36  C   UNL     1       4.127  -8.953   6.006  0.00  0.00    +0.072 C 
ATOM     37  C   UNL     1       4.760  -7.843   6.850  0.00  0.00    +0.163 C 
ATOM     38  O   UNL     1       4.884  -8.288   8.203  0.00  0.00    -0.380 OA
ATOM     39  C   UNL     1       3.640  -8.607   8.829  0.00  0.00    +0.163 C 
ATOM     40  C   UNL     1       2.963  -9.747   8.064  0.00  0.00    +0.072 C 
ENDBRANCH  34  35
ENDBRANCH   5  34
TORSDOF 9
