REMARK  Name = CHEMBL220348
REMARK  9 active torsions:
REMARK  status: ('A' for Active; 'I' for Inactive)
REMARK    1  A    between atoms: C_1  and  N_2
REMARK    2  A    between atoms: N_5  and  C_8
REMARK    3  A    between atoms: C_8  and  C_9
REMARK    4  A    between atoms: C_11  and  C_14
REMARK    5  A    between atoms: C_20  and  N_26
REMARK    6  A    between atoms: C_21  and  C_24
REMARK    7  A    between atoms: N_26  and  C_27
REMARK    8  A    between atoms: C_29  and  O_35
REMARK    9  A    between atoms: O_35  and  C_36
REMARK                            x       y       z     vdW  Elec       q    Type
REMARK                         _______ _______ _______ _____ _____    ______ ____
ROOT
ATOM      1  C   UNL     1       0.192  -9.761   8.211  0.00  0.00    -0.014 A 
ATOM      2  C   UNL     1      -1.136  -9.642   8.647  0.00  0.00    +0.011 A 
ATOM      3  C   UNL     1      -1.569  -8.513   9.268  0.00  0.00    +0.029 A 
ATOM      4  C   UNL     1      -0.684  -7.442   9.482  0.00  0.00    +0.073 A 
ATOM      5  C   UNL     1       0.658  -7.554   9.045  0.00  0.00    +0.023 A 
ATOM      6  C   UNL     1       1.090  -8.727   8.412  0.00  0.00    +0.020 A 
ATOM      7  C   UNL     1       1.546  -6.473   9.263  0.00  0.00    +0.060 A 
ATOM      8  C   UNL     1       1.042  -5.334   9.909  0.00  0.00    +0.091 A 
ATOM      9  C   UNL     1      -0.304  -5.310  10.308  0.00  0.00    +0.132 A 
ATOM     10  N   UNL     1      -1.102  -6.325  10.094  0.00  0.00    -0.254 NA
ENDROOT
BRANCH   1  13
ATOM     11  C   UNL     1       0.651 -13.059   6.627  0.00  0.00    +0.119 A 
ATOM     12  C   UNL     1      -0.171 -12.193   7.242  0.00  0.00    +0.054 A 
ATOM     13  C   UNL     1       0.639 -11.005   7.536  0.00  0.00    +0.020 A 
ATOM     14  C   UNL     1       1.882 -11.279   7.062  0.00  0.00    +0.203 A 
ATOM     15  O   UNL     1       1.871 -12.510   6.529  0.00  0.00    -0.466 OA
BRANCH  11  16
ATOM     16  C   UNL     1       0.266 -14.430   6.132  0.00  0.00    +0.158 C 
BRANCH  16  21
ATOM     17  C   UNL     1      -0.726 -14.938   0.609  0.00  0.00    -0.096 C 
ATOM     18  N   UNL     1      -0.224 -15.072   1.983  0.00  0.00    +0.379 N 
ATOM     19  C   UNL     1      -1.331 -15.442   2.874  0.00  0.00    -0.064 C 
ATOM     20  C   UNL     1      -0.805 -15.600   4.302  0.00  0.00    +0.066 C 
ATOM     21  N   UNL     1      -0.201 -14.335   4.742  0.00  0.00    -0.299 NA
ATOM     22  C   UNL     1       0.893 -13.939   3.845  0.00  0.00    +0.066 C 
ATOM     23  C   UNL     1       0.353 -13.794   2.420  0.00  0.00    -0.064 C 
ATOM     24  H   UNL     1       0.485 -15.789   2.013  0.00  0.00    -0.082 HD
ENDBRANCH  16  21
ENDBRANCH  11  16
ENDBRANCH   1  13
BRANCH   8  25
ATOM     25  C   UNL     1       1.891  -4.208  10.158  0.00  0.00    +0.103 C 
ATOM     26  N   UNL     1       2.565  -3.315  10.356  0.00  0.00    -0.191 NA
ENDBRANCH   8  25
BRANCH   7  27
ATOM     27  N   UNL     1       2.862  -6.538   8.855  0.00  0.00    -0.312 N 
ATOM     28  H   UNL     1       3.129  -6.139   8.012  0.00  0.00    +0.152 HD
BRANCH  27  29
ATOM     29  C   UNL     1       3.812  -7.178   9.657  0.00  0.00    +0.053 A 
ATOM     30  C   UNL     1       3.414  -7.850  10.805  0.00  0.00    +0.071 A 
ATOM     31  C   UNL     1       4.358  -8.483  11.597  0.00  0.00    +0.140 A 
ATOM     32  C   UNL     1       5.700  -8.444  11.243  0.00  0.00    +0.084 A 
ATOM     33  C   UNL     1       6.096  -7.773  10.101  0.00  0.00    +0.045 A 
ATOM     34  C   UNL     1       5.156  -7.145   9.304  0.00  0.00    +0.064 A 
ATOM     35 CL   UNL     1       5.656  -6.311   7.867  0.00  0.00    -0.082 Cl
ATOM     36 CL   UNL     1       6.882  -9.236  12.237  0.00  0.00    -0.080 Cl
BRANCH  31  37
ATOM     37  O   UNL     1       3.970  -9.142  12.721  0.00  0.00    -0.494 OA
ATOM     38  C   UNL     1       2.565  -9.246  12.960  0.00  0.00    +0.277 C 
ENDBRANCH  31  37
ENDBRANCH  27  29
ENDBRANCH   7  27
TORSDOF 7
