REMARK  Name = CHEMBL526321
REMARK  10 active torsions:
REMARK  status: ('A' for Active; 'I' for Inactive)
REMARK    1  A    between atoms: C_1  and  N_2
REMARK    2  A    between atoms: N_5  and  C_8
REMARK    3  A    between atoms: C_8  and  C_9
REMARK    4  A    between atoms: C_9  and  C_10
REMARK    5  A    between atoms: C_10  and  O_11
REMARK    6  A    between atoms: O_11  and  C_12
REMARK    7  A    between atoms: C_17  and  O_18
REMARK    8  A    between atoms: O_18  and  C_19
REMARK    9  A    between atoms: C_20  and  N_26
REMARK   10  A    between atoms: C_21  and  C_24
REMARK                            x       y       z     vdW  Elec       q    Type
REMARK                         _______ _______ _______ _____ _____    ______ ____
ROOT
ATOM      1  C   UNL     1       3.390  -8.946   3.022  0.00  0.00    +0.164 A 
ATOM      2  C   UNL     1       2.293  -9.367   2.306  0.00  0.00    +0.075 A 
ATOM      3  C   UNL     1       1.451 -10.356   2.839  0.00  0.00    +0.052 A 
ATOM      4  C   UNL     1       1.749 -10.904   4.110  0.00  0.00    +0.024 A 
ATOM      5  C   UNL     1       2.874 -10.457   4.819  0.00  0.00    +0.061 A 
ATOM      6  C   UNL     1       3.681  -9.498   4.277  0.00  0.00    +0.162 A 
ATOM      7  C   UNL     1       0.900 -11.900   4.644  0.00  0.00    +0.062 A 
ATOM      8  C   UNL     1      -0.205 -12.297   3.878  0.00  0.00    +0.089 A 
ATOM      9  C   UNL     1      -0.425 -11.699   2.626  0.00  0.00    +0.103 A 
ATOM     10  N   UNL     1       0.378 -10.779   2.155  0.00  0.00    -0.359 N 
ATOM     11  H   UNL     1       0.191 -10.391   1.286  0.00  0.00    +0.165 HD
ENDROOT
BRANCH   7  12
ATOM     12  N   UNL     1       1.151 -12.465   5.881  0.00  0.00    -0.283 N 
ATOM     13  C   UNL     1       1.397 -13.820   5.984  0.00  0.00    +0.198 A 
ATOM     14  N   UNL     1       1.307 -14.715   4.956  0.00  0.00    -0.326 N 
ATOM     15  H   UNL     1       1.063 -14.514   4.039  0.00  0.00    +0.169 HD
ATOM     16  C   UNL     1       1.628 -15.961   5.467  0.00  0.00    +0.067 A 
ATOM     17  C   UNL     1       1.709 -17.233   4.920  0.00  0.00    +0.028 A 
ATOM     18  C   UNL     1       2.066 -18.301   5.716  0.00  0.00    +0.002 A 
ATOM     19  C   UNL     1       2.344 -18.113   7.062  0.00  0.00    +0.002 A 
ATOM     20  C   UNL     1       2.268 -16.857   7.622  0.00  0.00    +0.030 A 
ATOM     21  C   UNL     1       1.909 -15.764   6.829  0.00  0.00    +0.091 A 
ATOM     22  N   UNL     1       1.756 -14.438   7.081  0.00  0.00    -0.214 NA
ATOM     23  H   UNL     1       1.155 -11.909   6.676  0.00  0.00    +0.155 HD
ENDBRANCH   7  12
BRANCH   6  24
ATOM     24  O   UNL     1       4.774  -9.070   4.965  0.00  0.00    -0.491 OA
ATOM     25  C   UNL     1       5.016  -9.672   6.238  0.00  0.00    +0.277 C 
ENDBRANCH   6  24
BRANCH   8  26
ATOM     26  C   UNL     1      -1.101 -13.302   4.366  0.00  0.00    +0.102 C 
ATOM     27  N   UNL     1      -1.812 -14.099   4.754  0.00  0.00    -0.191 NA
ENDBRANCH   8  26
BRANCH   1  28
ATOM     28  O   UNL     1       4.203  -7.988   2.505  0.00  0.00    -0.488 OA
BRANCH  28  29
ATOM     29  C   UNL     1       3.854  -7.465   1.222  0.00  0.00    +0.230 C 
BRANCH  29  30
ATOM     30  C   UNL     1       4.878  -6.406   0.807  0.00  0.00    +0.056 C 
BRANCH  30  31
ATOM     31  C   UNL     1       4.503  -5.846  -0.567  0.00  0.00    +0.087 C 
BRANCH  31  36
ATOM     32  C   UNL     1       8.342  -2.593  -3.102  0.00  0.00    -0.096 C 
ATOM     33  N   UNL     1       7.367  -3.634  -2.752  0.00  0.00    +0.379 N 
ATOM     34  C   UNL     1       6.058  -3.015  -2.506  0.00  0.00    -0.064 C 
ATOM     35  C   UNL     1       5.037  -4.102  -2.160  0.00  0.00    +0.066 C 
ATOM     36  N   UNL     1       5.487  -4.829  -0.965  0.00  0.00    -0.306 NA
ATOM     37  C   UNL     1       6.808  -5.434  -1.188  0.00  0.00    +0.066 C 
ATOM     38  C   UNL     1       7.814  -4.336  -1.542  0.00  0.00    -0.064 C 
ATOM     39  H   UNL     1       7.290  -4.292  -3.514  0.00  0.00    -0.082 HD
ENDBRANCH  31  36
ENDBRANCH  30  31
ENDBRANCH  29  30
ENDBRANCH  28  29
ENDBRANCH   1  28
TORSDOF 8
