REMARK  Name = CHEMBL104807
REMARK  9 active torsions:
REMARK  status: ('A' for Active; 'I' for Inactive)
REMARK    1  A    between atoms: C_1  and  C_2
REMARK    2  A    between atoms: C_5  and  C_8
REMARK    3  A    between atoms: N_15  and  C_17
REMARK    4  A    between atoms: C_21  and  C_23
REMARK    5  A    between atoms: N_25  and  C_26
REMARK    6  A    between atoms: C_26  and  C_27
REMARK    7  A    between atoms: C_30  and  P_37
REMARK    8  A    between atoms: C_31  and  P_33
REMARK    9  A    between atoms: P_37  and  O_40
REMARK                            x       y       z     vdW  Elec       q    Type
REMARK                         _______ _______ _______ _____ _____    ______ ____
ROOT
ATOM      1  C   UNL     1      -4.644   0.323   6.183  0.00  0.00    +0.064 C 
ATOM      2  C   UNL     1      -5.664   0.651   5.378  0.00  0.00    +0.001 C 
ATOM      3  C   UNL     1      -6.940   1.202   5.955  0.00  0.00    +0.034 C 
ATOM      4  C   UNL     1      -7.231   0.546   7.304  0.00  0.00    +0.044 C 
ATOM      5  C   UNL     1      -6.008   0.611   8.181  0.00  0.00    +0.017 C 
ATOM      6  C   UNL     1      -4.780   0.496   7.635  0.00  0.00    +0.036 C 
ENDROOT
BRANCH   1  14
ATOM      7  C   UNL     1      -2.004  -0.882   4.114  0.00  0.00    +0.105 A 
ATOM      8  C   UNL     1      -1.397  -1.010   5.438  0.00  0.00    +0.086 A 
ATOM      9  C   UNL     1      -0.157  -1.457   5.923  0.00  0.00    +0.131 A 
ATOM     10  N   UNL     1       0.054  -1.432   7.236  0.00  0.00    -0.220 NA
ATOM     11  C   UNL     1      -0.876  -0.998   8.068  0.00  0.00    +0.225 A 
ATOM     12  N   UNL     1      -2.051  -0.572   7.659  0.00  0.00    -0.216 NA
ATOM     13  C   UNL     1      -2.357  -0.558   6.362  0.00  0.00    +0.169 A 
ATOM     14  N   UNL     1      -3.456  -0.186   5.642  0.00  0.00    -0.214 N 
ATOM     15  N   UNL     1      -3.210  -0.390   4.280  0.00  0.00    -0.164 NA
ATOM     16  N   UNL     1       0.820  -1.912   5.058  0.00  0.00    -0.342 N 
ATOM     17  H   UNL     1       0.680  -1.861   4.100  0.00  0.00    +0.144 HD
ATOM     18  H   UNL     1       1.645  -2.281   5.409  0.00  0.00    +0.144 HD
BRANCH   7  23
ATOM     19  C   UNL     1      -1.861  -0.467  -0.392  0.00  0.00    +0.012 C 
ATOM     20  C   UNL     1      -0.688  -1.324   0.087  0.00  0.00    +0.012 C 
ATOM     21  C   UNL     1      -1.225  -2.586   0.761  0.00  0.00    +0.035 C 
ATOM     22  C   UNL     1      -1.873  -2.231   2.073  0.00  0.00    -0.016 C 
ATOM     23  C   UNL     1      -1.372  -1.236   2.821  0.00  0.00    -0.001 C 
ATOM     24  C   UNL     1      -0.185  -0.494   2.345  0.00  0.00    +0.006 C 
ATOM     25  C   UNL     1       0.144  -0.533   1.061  0.00  0.00    -0.023 C 
ENDBRANCH   7  23
ENDBRANCH   1  14
BRANCH   5  26
ATOM     26  C   UNL     1      -6.153   0.794   9.626  0.00  0.00    +0.240 C 
ATOM     27  O   UNL     1      -5.165   0.846  10.335  0.00  0.00    -0.271 OA
ATOM     28  N   UNL     1      -7.380   0.904  10.172  0.00  0.00    -0.307 N 
ATOM     29  H   UNL     1      -8.168   0.862   9.607  0.00  0.00    +0.149 HD
BRANCH  28  30
ATOM     30  C   UNL     1      -7.525   1.086  11.618  0.00  0.00    +0.139 C 
BRANCH  30  31
ATOM     31  C   UNL     1      -8.988   1.180  11.968  0.00  0.00    -0.029 A 
ATOM     32  C   UNL     1      -9.618   2.411  11.978  0.00  0.00    +0.006 A 
ATOM     33  C   UNL     1     -10.960   2.497  12.299  0.00  0.00    +0.017 A 
ATOM     34  C   UNL     1     -11.671   1.353  12.611  0.00  0.00    +0.080 A 
ATOM     35  C   UNL     1     -11.041   0.123  12.601  0.00  0.00    +0.083 A 
ATOM     36  C   UNL     1      -9.700   0.036  12.275  0.00  0.00    +0.022 A 
BRANCH  35  37
ATOM     37  P   UNL     1     -11.974  -1.378  13.010  0.00  0.00    +0.417 P 
ATOM     38  O   UNL     1     -13.255  -1.458  12.112  0.00  0.00    -0.248 OA
ATOM     39  O   UNL     1     -11.076  -2.636  12.754  0.00  0.00    -0.135 OA
ATOM     40  O   UNL     1     -12.395  -1.335  14.518  0.00  0.00    -0.135 OA
ENDBRANCH  35  37
BRANCH  34  41
ATOM     41  P   UNL     1     -13.431   1.466  13.034  0.00  0.00    +0.389 P 
ATOM     42  O   UNL     1     -14.283   1.163  11.781  0.00  0.00    -0.251 OA
ATOM     43  O   UNL     1     -13.762   0.442  14.142  0.00  0.00    -0.136 OA
BRANCH  41  44
ATOM     44  O   UNL     1     -13.762   2.951  13.560  0.00  0.00    -0.319 OA
ATOM     45  H   UNL     1     -14.688   3.085  13.805  0.00  0.00    +0.220 HD
ENDBRANCH  41  44
ENDBRANCH  34  41
ENDBRANCH  30  31
ENDBRANCH  28  30
ENDBRANCH   5  26
TORSDOF 8
