REMARK  Name = CHEMBL230820
REMARK  10 active torsions:
REMARK  status: ('A' for Active; 'I' for Inactive)
REMARK    1  A    between atoms: C_1  and  C_2
REMARK    2  A    between atoms: C_6  and  C_42
REMARK    3  A    between atoms: C_7  and  C_8
REMARK    4  A    between atoms: C_10  and  C_41
REMARK    5  A    between atoms: N_18  and  C_19
REMARK    6  A    between atoms: C_23  and  N_25
REMARK    7  A    between atoms: N_25  and  C_26
REMARK    8  A    between atoms: C_26  and  C_27
REMARK    9  A    between atoms: C_27  and  N_28
REMARK   10  A    between atoms: C_33  and  C_35
REMARK                            x       y       z     vdW  Elec       q    Type
REMARK                         _______ _______ _______ _____ _____    ______ ____
ROOT
ATOM      1  C   UNL     1      -2.697   3.982   8.200  0.00  0.00    +0.035 A 
ATOM      2  C   UNL     1      -3.791   4.234   7.380  0.00  0.00    +0.023 A 
ATOM      3  C   UNL     1      -4.565   5.360   7.583  0.00  0.00    +0.004 A 
ATOM      4  C   UNL     1      -4.254   6.240   8.602  0.00  0.00    +0.023 A 
ATOM      5  C   UNL     1      -3.162   5.995   9.425  0.00  0.00    +0.038 A 
ATOM      6  C   UNL     1      -2.386   4.861   9.227  0.00  0.00    +0.046 A 
ENDROOT
BRANCH   1  17
ATOM      7  C   UNL     1      -0.258   0.044   2.669  0.00  0.00    -0.015 A 
ATOM      8  C   UNL     1       0.376  -0.601   3.744  0.00  0.00    +0.014 A 
ATOM      9  C   UNL     1       0.180  -0.182   5.022  0.00  0.00    -0.022 A 
ATOM     10  C   UNL     1      -0.666   0.909   5.280  0.00  0.00    +0.097 A 
ATOM     11  C   UNL     1      -1.312   1.569   4.201  0.00  0.00    +0.112 A 
ATOM     12  C   UNL     1      -1.093   1.124   2.889  0.00  0.00    +0.040 A 
ATOM     13  N   UNL     1      -2.115   2.607   4.464  0.00  0.00    -0.144 NA
ATOM     14  N   UNL     1      -2.288   2.991   5.682  0.00  0.00    -0.112 NA
ATOM     15  C   UNL     1      -1.688   2.382   6.708  0.00  0.00    +0.240 A 
ATOM     16  N   UNL     1      -0.883   1.351   6.524  0.00  0.00    -0.211 NA
ATOM     17  N   UNL     1      -1.915   2.842   7.994  0.00  0.00    -0.282 N 
ATOM     18  C   UNL     1       0.870  -0.887   6.161  0.00  0.00    +0.046 C 
ATOM     19  H   UNL     1      -1.532   2.374   8.751  0.00  0.00    +0.155 HD
BRANCH   7  26
ATOM     20  C   UNL     1       1.100   1.752   0.770  0.00  0.00    +0.044 C 
ATOM     21  C   UNL     1       0.628   0.381   0.363  0.00  0.00    -0.042 A 
ATOM     22  C   UNL     1       0.847  -0.073  -0.922  0.00  0.00    +0.004 A 
ATOM     23  C   UNL     1       0.414  -1.332  -1.297  0.00  0.00    +0.001 A 
ATOM     24  C   UNL     1      -0.241  -2.143  -0.389  0.00  0.00    +0.004 A 
ATOM     25  C   UNL     1      -0.466  -1.700   0.899  0.00  0.00    -0.042 A 
ATOM     26  C   UNL     1      -0.026  -0.435   1.285  0.00  0.00    -0.012 A 
ATOM     27  C   UNL     1      -1.180  -2.585   1.888  0.00  0.00    +0.044 C 
ENDBRANCH   7  26
ENDBRANCH   1  17
BRANCH   5  28
ATOM     28  N   UNL     1      -2.848   6.887  10.456  0.00  0.00    -0.269 N 
ATOM     29  C   UNL     1      -1.706   6.734  11.155  0.00  0.00    +0.251 C 
ATOM     30  O   UNL     1      -0.903   5.881  10.829  0.00  0.00    -0.270 OA
BRANCH  29  31
ATOM     31  C   UNL     1      -1.430   7.603  12.318  0.00  0.00    +0.037 A 
ATOM     32  C   UNL     1      -2.478   8.254  12.972  0.00  0.00    +0.013 A 
ATOM     33  C   UNL     1      -2.213   9.064  14.057  0.00  0.00    +0.001 A 
ATOM     34  C   UNL     1      -0.912   9.231  14.497  0.00  0.00    +0.000 A 
ATOM     35  C   UNL     1       0.131   8.589  13.854  0.00  0.00    +0.001 A 
ATOM     36  C   UNL     1      -0.120   7.772  12.772  0.00  0.00    +0.013 A 
ENDBRANCH  29  31
BRANCH  28  37
ATOM     37  C   UNL     1      -3.761   7.987  10.775  0.00  0.00    +0.095 C 
BRANCH  37  38
ATOM     38  C   UNL     1      -4.982   7.439  11.517  0.00  0.00    -0.059 C 
BRANCH  38  39
ATOM     39  N   UNL     1      -5.897   8.542  11.838  0.00  0.00    +0.381 N 
ATOM     40  C   UNL     1      -6.507   9.079  10.594  0.00  0.00    -0.079 C 
ATOM     41  C   UNL     1      -7.792   9.779  11.104  0.00  0.00    -0.020 C 
ATOM     42  C   UNL     1      -8.274   8.838  12.231  0.00  0.00    -0.020 C 
ATOM     43  C   UNL     1      -7.023   8.049  12.659  0.00  0.00    -0.079 C 
ATOM     44  H   UNL     1      -5.403   9.273  12.328  0.00  0.00    -0.082 HD
ENDBRANCH  38  39
ENDBRANCH  37  38
ENDBRANCH  28  37
ENDBRANCH   5  28
TORSDOF 7
