REMARK  Name = CHEMBL380706
REMARK  5 active torsions:
REMARK  status: ('A' for Active; 'I' for Inactive)
REMARK    1  A    between atoms: C_4  and  C_7
REMARK    2  A    between atoms: C_7  and  O_8
REMARK    3  A    between atoms: O_8  and  C_9
REMARK    4  A    between atoms: C_14  and  C_15
REMARK    5  A    between atoms: N_20  and  C_23
REMARK                            x       y       z     vdW  Elec       q    Type
REMARK                         _______ _______ _______ _____ _____    ______ ____
ROOT
ATOM      1  C   UNL     1       5.045  -1.449   3.935  0.00  0.00    +0.030 C 
ATOM      2  C   UNL     1       5.035  -2.234   5.070  0.00  0.00    +0.102 C 
ATOM      3  C   UNL     1       4.249  -2.023   6.301  0.00  0.00    +0.266 C 
ATOM      4  O   UNL     1       3.471  -1.112   6.517  0.00  0.00    -0.268 OA
ATOM      5  N   UNL     1       4.556  -3.032   7.138  0.00  0.00    -0.223 N 
ATOM      6  N   UNL     1       5.485  -3.891   6.551  0.00  0.00    -0.184 N 
ATOM      7  C   UNL     1       5.804  -3.469   5.313  0.00  0.00    +0.272 C 
ATOM      8  O   UNL     1       6.580  -4.003   4.543  0.00  0.00    -0.268 OA
ATOM      9  H   UNL     1       4.183  -3.145   8.026  0.00  0.00    +0.174 HD
ENDROOT
BRANCH   1  15
ATOM     10  C   UNL     1       5.599  -1.658   1.518  0.00  0.00    +0.128 A 
ATOM     11  C   UNL     1       6.519  -1.915   0.513  0.00  0.00    +0.046 A 
ATOM     12  C   UNL     1       7.822  -2.239   0.833  0.00  0.00    +0.004 A 
ATOM     13  C   UNL     1       8.225  -2.311   2.158  0.00  0.00    +0.001 A 
ATOM     14  C   UNL     1       7.329  -2.060   3.172  0.00  0.00    +0.011 A 
ATOM     15  C   UNL     1       6.003  -1.724   2.864  0.00  0.00    +0.018 A 
BRANCH  10  16
ATOM     16  O   UNL     1       4.318  -1.340   1.205  0.00  0.00    -0.487 OA
BRANCH  16  17
ATOM     17  C   UNL     1       3.982  -1.293  -0.183  0.00  0.00    +0.264 C 
BRANCH  17  21
ATOM     18  C   UNL     1      -0.139  -0.255  -0.618  0.00  0.00    +0.000 A 
ATOM     19  C   UNL     1       0.824   0.737  -0.579  0.00  0.00    +0.000 A 
ATOM     20  C   UNL     1       2.157   0.401  -0.438  0.00  0.00    +0.007 A 
ATOM     21  C   UNL     1       2.528  -0.927  -0.336  0.00  0.00    -0.010 A 
ATOM     22  C   UNL     1       1.566  -1.919  -0.374  0.00  0.00    +0.007 A 
ATOM     23  C   UNL     1       0.233  -1.583  -0.516  0.00  0.00    +0.000 A 
ENDBRANCH  17  21
ENDBRANCH  16  17
ENDBRANCH  10  16
ENDBRANCH   1  15
BRANCH   6  24
ATOM     24  C   UNL     1       6.008  -5.035   7.162  0.00  0.00    +0.056 A 
ATOM     25  C   UNL     1       6.936  -5.820   6.491  0.00  0.00    +0.025 A 
ATOM     26  C   UNL     1       7.450  -6.949   7.097  0.00  0.00    +0.002 A 
ATOM     27  C   UNL     1       7.042  -7.298   8.371  0.00  0.00    +0.000 A 
ATOM     28  C   UNL     1       6.119  -6.518   9.043  0.00  0.00    +0.002 A 
ATOM     29  C   UNL     1       5.605  -5.384   8.445  0.00  0.00    +0.025 A 
ENDBRANCH   6  24
TORSDOF 5
