REMARK  Name = CHEMBL336093
REMARK  3 active torsions:
REMARK  status: ('A' for Active; 'I' for Inactive)
REMARK    1  A    between atoms: C_4  and  C_8
REMARK    2  A    between atoms: N_16  and  C_19
REMARK    3  A    between atoms: C_19  and  C_20
REMARK                            x       y       z     vdW  Elec       q    Type
REMARK                         _______ _______ _______ _____ _____    ______ ____
ROOT
ATOM      1  C   UNL     1       3.699  -0.687  -0.037  0.00  0.00    +0.050 A 
ATOM      2  C   UNL     1       4.312  -1.034   1.137  0.00  0.00    +0.027 A 
ATOM      3  C   UNL     1       5.546  -1.721   1.089  0.00  0.00    +0.037 A 
ATOM      4  C   UNL     1       6.214  -2.099   2.264  0.00  0.00    +0.126 A 
ATOM      5  N   UNL     1       7.364  -2.739   2.159  0.00  0.00    -0.222 NA
ATOM      6  C   UNL     1       7.886  -3.024   0.971  0.00  0.00    +0.214 A 
ATOM      7  N   UNL     1       7.294  -2.688  -0.164  0.00  0.00    -0.197 NA
ATOM      8  C   UNL     1       6.133  -2.041  -0.154  0.00  0.00    +0.149 A 
ATOM      9  N   UNL     1       5.512  -1.689  -1.326  0.00  0.00    -0.288 N 
ATOM     10  C   UNL     1       4.332  -1.040  -1.310  0.00  0.00    +0.261 A 
ATOM     11  O   UNL     1       3.792  -0.739  -2.360  0.00  0.00    -0.267 OA
ATOM     12  N   UNL     1       9.092  -3.694   0.918  0.00  0.00    -0.327 N 
ATOM     13  H   UNL     1       9.542  -3.949   1.739  0.00  0.00    +0.145 HD
ATOM     14  H   UNL     1       9.490  -3.911   0.060  0.00  0.00    +0.145 HD
ENDROOT
BRANCH   1  18
ATOM     15  C   UNL     1      -0.017   1.379   0.010  0.00  0.00    +0.003 A 
ATOM     16  C   UNL     1       1.168   2.093   0.002  0.00  0.00    +0.021 A 
ATOM     17  C   UNL     1       2.378   1.428  -0.013  0.00  0.00    +0.050 A 
ATOM     18  C   UNL     1       2.405   0.033  -0.021  0.00  0.00    +0.024 A 
ATOM     19  C   UNL     1       1.206  -0.681  -0.013  0.00  0.00    +0.050 A 
ATOM     20  C   UNL     1       0.002  -0.004   0.002  0.00  0.00    +0.021 A 
ATOM     21 CL   UNL     1       1.227  -2.417  -0.022  0.00  0.00    -0.083 Cl
ATOM     22 CL   UNL     1       3.864   2.326  -0.023  0.00  0.00    -0.083 Cl
ENDBRANCH   1  18
BRANCH   9  23
ATOM     23  C   UNL     1       6.135  -2.030  -2.607  0.00  0.00    +0.162 C 
BRANCH  23  24
ATOM     24  C   UNL     1       5.658  -3.388  -3.053  0.00  0.00    -0.025 A 
ATOM     25  C   UNL     1       6.339  -4.537  -2.681  0.00  0.00    +0.025 A 
ATOM     26  C   UNL     1       5.872  -5.765  -3.109  0.00  0.00    +0.111 A 
ATOM     27  N   UNL     1       4.793  -5.851  -3.862  0.00  0.00    -0.263 NA
ATOM     28  C   UNL     1       4.120  -4.780  -4.235  0.00  0.00    +0.111 A 
ATOM     29  C   UNL     1       4.524  -3.518  -3.840  0.00  0.00    +0.025 A 
ENDBRANCH  23  24
ENDBRANCH   9  23
TORSDOF 3
