REMARK  Name = CHEMBL106839
REMARK  4 active torsions:
REMARK  status: ('A' for Active; 'I' for Inactive)
REMARK    1  A    between atoms: C_1  and  N_2
REMARK    2  A    between atoms: C_5  and  N_21
REMARK    3  A    between atoms: C_10  and  C_13
REMARK    4  A    between atoms: N_21  and  C_22
REMARK                            x       y       z     vdW  Elec       q    Type
REMARK                         _______ _______ _______ _____ _____    ______ ____
ROOT
ATOM      1  C   UNL     1      -0.050   1.400   0.727  0.00  0.00    +0.152 C 
ATOM      2  N   UNL     1      -0.019  -0.045   0.488  0.00  0.00    -0.311 N 
ATOM      3  C   UNL     1      -1.195  -0.725   0.264  0.00  0.00    +0.056 A 
ATOM      4  C   UNL     1      -2.417  -0.062   0.260  0.00  0.00    +0.070 A 
ATOM      5  C   UNL     1      -3.574  -0.792   0.029  0.00  0.00    +0.125 A 
ATOM      6  N   UNL     1      -3.532  -2.103  -0.186  0.00  0.00    -0.239 NA
ATOM      7  C   UNL     1      -2.402  -2.776  -0.193  0.00  0.00    +0.122 A 
ATOM      8  C   UNL     1      -1.187  -2.117   0.032  0.00  0.00    +0.018 A 
ATOM      9  C   UNL     1       0.038  -2.826   0.028  0.00  0.00    +0.025 A 
ATOM     10  C   UNL     1       1.202  -2.143   0.252  0.00  0.00    +0.050 A 
ATOM     11  C   UNL     1       1.160  -0.698   0.483  0.00  0.00    +0.259 A 
ATOM     12  O   UNL     1       2.194  -0.083   0.678  0.00  0.00    -0.267 OA
ENDROOT
BRANCH  10  13
ATOM     13  C   UNL     1       2.499  -2.861   0.254  0.00  0.00    +0.024 A 
ATOM     14  C   UNL     1       2.997  -3.404   1.439  0.00  0.00    +0.050 A 
ATOM     15  C   UNL     1       4.206  -4.072   1.434  0.00  0.00    +0.021 A 
ATOM     16  C   UNL     1       4.923  -4.203   0.258  0.00  0.00    +0.003 A 
ATOM     17  C   UNL     1       4.434  -3.666  -0.920  0.00  0.00    +0.021 A 
ATOM     18  C   UNL     1       3.224  -3.001  -0.930  0.00  0.00    +0.050 A 
ATOM     19 CL   UNL     1       2.609  -2.336  -2.411  0.00  0.00    -0.083 Cl
ATOM     20 CL   UNL     1       2.101  -3.239   2.916  0.00  0.00    -0.083 Cl
ENDBRANCH  10  13
BRANCH   5  21
ATOM     21  N   UNL     1      -4.800  -0.140   0.024  0.00  0.00    -0.299 N 
ATOM     22  H   UNL     1      -4.835   0.827   0.092  0.00  0.00    +0.154 HD
BRANCH  21  23
ATOM     23  C   UNL     1      -5.979  -0.875  -0.080  0.00  0.00    +0.035 A 
ATOM     24  C   UNL     1      -6.090  -2.136   0.505  0.00  0.00    +0.041 A 
ATOM     25  C   UNL     1      -7.275  -2.831   0.379  0.00  0.00    +0.084 A 
ATOM     26  N   UNL     1      -8.293  -2.317  -0.285  0.00  0.00    -0.367 N 
ATOM     27  C   UNL     1      -8.227  -1.127  -0.853  0.00  0.00    +0.084 A 
ATOM     28  C   UNL     1      -7.081  -0.366  -0.768  0.00  0.00    +0.041 A 
ATOM     29  H   UNL     1      -9.114  -2.829  -0.358  0.00  0.00    +0.165 HD
ENDBRANCH  21  23
ENDBRANCH   5  21
TORSDOF 3
