REMARK  Name = CHEMBL43773
REMARK  9 active torsions:
REMARK  status: ('A' for Active; 'I' for Inactive)
REMARK    1  A    between atoms: C_1  and  N_2
REMARK    2  A    between atoms: N_5  and  C_8
REMARK    3  A    between atoms: C_11  and  N_14
REMARK    4  A    between atoms: C_17  and  C_19
REMARK    5  A    between atoms: C_22  and  N_27
REMARK    6  A    between atoms: C_23  and  O_25
REMARK    7  A    between atoms: O_25  and  C_26
REMARK    8  A    between atoms: C_28  and  C_30
REMARK    9  A    between atoms: C_39  and  N_43
REMARK                            x       y       z     vdW  Elec       q    Type
REMARK                         _______ _______ _______ _____ _____    ______ ____
ROOT
ATOM      1  N   UNL     1      -2.287  -7.903   2.176  0.00  0.00    -0.243 N 
ATOM      2  C   UNL     1      -2.522  -8.740   3.226  0.00  0.00    +0.164 A 
ATOM      3  C   UNL     1      -2.298 -10.050   2.762  0.00  0.00    +0.086 A 
ATOM      4  C   UNL     1      -1.912  -9.931   1.356  0.00  0.00    +0.105 A 
ATOM      5  N   UNL     1      -1.925  -8.654   1.054  0.00  0.00    -0.168 NA
ATOM      6  C   UNL     1      -2.472 -11.118   3.657  0.00  0.00    +0.131 A 
ATOM      7  N   UNL     1      -2.841 -10.842   4.904  0.00  0.00    -0.220 NA
ATOM      8  C   UNL     1      -3.041  -9.597   5.298  0.00  0.00    +0.225 A 
ATOM      9  N   UNL     1      -2.890  -8.566   4.495  0.00  0.00    -0.216 NA
ENDROOT
BRANCH   1  13
ATOM     10  C   UNL     1      -2.227  -3.834   0.895  0.00  0.00    +0.057 C 
ATOM     11  C   UNL     1      -3.577  -4.462   1.246  0.00  0.00    +0.021 C 
ATOM     12  C   UNL     1      -3.456  -5.987   1.204  0.00  0.00    +0.028 C 
ATOM     13  C   UNL     1      -2.403  -6.443   2.216  0.00  0.00    +0.110 C 
ATOM     14  C   UNL     1      -1.053  -5.814   1.865  0.00  0.00    +0.028 C 
ATOM     15  C   UNL     1      -1.174  -4.290   1.907  0.00  0.00    +0.021 C 
BRANCH  10  20
ATOM     16  C   UNL     1      -2.314   1.713  -0.093  0.00  0.00    -0.096 C 
ATOM     17  N   UNL     1      -2.182   0.253  -0.186  0.00  0.00    +0.379 N 
ATOM     18  C   UNL     1      -3.482  -0.375   0.088  0.00  0.00    -0.064 C 
ATOM     19  C   UNL     1      -3.349  -1.895  -0.026  0.00  0.00    +0.066 C 
ATOM     20  N   UNL     1      -2.344  -2.370   0.935  0.00  0.00    -0.303 NA
ATOM     21  C   UNL     1      -1.043  -1.732   0.689  0.00  0.00    +0.066 C 
ATOM     22  C   UNL     1      -1.195  -0.213   0.798  0.00  0.00    -0.064 C 
ATOM     23  H   UNL     1      -1.876   0.001  -1.114  0.00  0.00    -0.082 HD
ENDBRANCH  10  20
ENDBRANCH   1  13
BRANCH   4  24
ATOM     24  C   UNL     1      -1.575 -11.047   0.441  0.00  0.00    +0.006 A 
ATOM     25  C   UNL     1      -2.355 -12.203   0.432  0.00  0.00    +0.012 A 
ATOM     26  C   UNL     1      -2.042 -13.241  -0.420  0.00  0.00    +0.027 A 
ATOM     27  C   UNL     1      -0.949 -13.138  -1.271  0.00  0.00    +0.076 A 
ATOM     28  C   UNL     1      -0.166 -11.985  -1.266  0.00  0.00    +0.142 A 
ATOM     29  C   UNL     1      -0.481 -10.940  -0.417  0.00  0.00    +0.057 A 
BRANCH  27  30
ATOM     30  N   UNL     1      -0.634 -14.193  -2.134  0.00  0.00    -0.276 N 
ATOM     31  C   UNL     1      -1.571 -15.110  -2.448  0.00  0.00    +0.284 C 
ATOM     32  O   UNL     1      -2.716 -14.966  -2.062  0.00  0.00    -0.266 OA
ATOM     33  H   UNL     1       0.258 -14.265  -2.506  0.00  0.00    +0.155 HD
BRANCH  31  34
ATOM     34  C   UNL     1      -1.210 -16.283  -3.256  0.00  0.00    +0.191 A 
ATOM     35  C   UNL     1      -2.068 -17.264  -3.637  0.00  0.00    +0.063 A 
ATOM     36  C   UNL     1      -1.277 -18.213  -4.419  0.00  0.00    +0.021 A 
ATOM     37  C   UNL     1      -1.566 -19.411  -5.077  0.00  0.00    +0.011 A 
ATOM     38  C   UNL     1      -0.572 -20.077  -5.738  0.00  0.00    +0.001 A 
ATOM     39  C   UNL     1       0.721 -19.571  -5.758  0.00  0.00    +0.004 A 
ATOM     40  C   UNL     1       1.026 -18.391  -5.115  0.00  0.00    +0.047 A 
ATOM     41  C   UNL     1       0.031 -17.695  -4.437  0.00  0.00    +0.136 A 
ATOM     42  O   UNL     1       0.023 -16.544  -3.738  0.00  0.00    -0.450 OA
ENDBRANCH  31  34
ENDBRANCH  27  30
BRANCH  28  43
ATOM     43  O   UNL     1       0.904 -11.886  -2.099  0.00  0.00    -0.493 OA
ATOM     44  C   UNL     1       1.662 -10.676  -2.040  0.00  0.00    +0.277 C 
ENDBRANCH  28  43
ENDBRANCH   4  24
BRANCH   6  45
ATOM     45  N   UNL     1      -2.265 -12.422   3.252  0.00  0.00    -0.342 N 
ATOM     46  H   UNL     1      -1.814 -12.604   2.413  0.00  0.00    +0.144 HD
ATOM     47  H   UNL     1      -2.571 -13.157   3.807  0.00  0.00    +0.144 HD
ENDBRANCH   6  45
TORSDOF 7
