REMARK  Name = CHEMBL1084234
REMARK  8 active torsions:
REMARK  status: ('A' for Active; 'I' for Inactive)
REMARK    1  A    between atoms: C_1  and  N_2
REMARK    2  A    between atoms: N_5  and  C_8
REMARK    3  A    between atoms: C_11  and  C_14
REMARK    4  A    between atoms: C_21  and  C_24
REMARK    5  A    between atoms: C_22  and  N_23
REMARK    6  A    between atoms: C_27  and  N_30
REMARK    7  A    between atoms: N_33  and  C_34
REMARK    8  A    between atoms: C_34  and  C_35
REMARK                            x       y       z     vdW  Elec       q    Type
REMARK                         _______ _______ _______ _____ _____    ______ ____
ROOT
ATOM      1  C   UNL     1      -2.317  -6.710   4.323  0.00  0.00    +0.046 A 
ATOM      2  C   UNL     1      -3.500  -6.700   5.071  0.00  0.00    +0.145 A 
ATOM      3  N   UNL     1      -3.603  -7.835   5.717  0.00  0.00    -0.171 NA
ATOM      4  N   UNL     1      -2.494  -8.636   5.419  0.00  0.00    -0.200 N 
ATOM      5  C   UNL     1      -1.694  -7.943   4.549  0.00  0.00    +0.165 A 
ATOM      6  N   UNL     1      -0.556  -8.474   4.087  0.00  0.00    -0.235 NA
ATOM      7  C   UNL     1      -0.167  -9.676   4.447  0.00  0.00    +0.125 A 
ATOM      8  C   UNL     1      -0.947 -10.436   5.335  0.00  0.00    +0.040 A 
ATOM      9  C   UNL     1      -2.129  -9.891   5.827  0.00  0.00    +0.129 A 
ENDROOT
BRANCH   1  13
ATOM     10  C   UNL     1      -0.891  -3.583   1.817  0.00  0.00    +0.030 A 
ATOM     11  C   UNL     1      -2.202  -4.028   1.693  0.00  0.00    +0.024 A 
ATOM     12  C   UNL     1      -2.667  -5.042   2.504  0.00  0.00    +0.010 A 
ATOM     13  C   UNL     1      -1.820  -5.620   3.450  0.00  0.00    -0.013 A 
ATOM     14  C   UNL     1      -0.505  -5.172   3.572  0.00  0.00    +0.010 A 
ATOM     15  C   UNL     1      -0.044  -4.162   2.755  0.00  0.00    +0.024 A 
BRANCH  10  20
ATOM     16  C   UNL     1       0.086   1.493   0.063  0.00  0.00    -0.096 C 
ATOM     17  N   UNL     1       0.103   0.024   0.053  0.00  0.00    +0.380 N 
ATOM     18  C   UNL     1      -1.277  -0.479   0.043  0.00  0.00    -0.060 C 
ATOM     19  C   UNL     1      -1.261  -2.006  -0.083  0.00  0.00    +0.086 C 
ATOM     20  N   UNL     1      -0.423  -2.554   0.994  0.00  0.00    -0.333 N 
ATOM     21  C   UNL     1       0.923  -1.990   1.181  0.00  0.00    +0.086 C 
ATOM     22  C   UNL     1       0.804  -0.464   1.247  0.00  0.00    -0.060 C 
ATOM     23  H   UNL     1       0.582  -0.300  -0.773  0.00  0.00    -0.082 HD
ENDBRANCH  10  20
ENDBRANCH   1  13
BRANCH   8  24
ATOM     24  C   UNL     1      -0.515 -11.793   5.746  0.00  0.00    -0.013 A 
ATOM     25  C   UNL     1      -0.190 -12.049   7.078  0.00  0.00    +0.010 A 
ATOM     26  C   UNL     1       0.212 -13.312   7.458  0.00  0.00    +0.024 A 
ATOM     27  C   UNL     1       0.292 -14.330   6.515  0.00  0.00    +0.035 A 
ATOM     28  C   UNL     1      -0.032 -14.078   5.188  0.00  0.00    +0.024 A 
ATOM     29  C   UNL     1      -0.439 -12.817   4.803  0.00  0.00    +0.010 A 
BRANCH  27  30
ATOM     30  N   UNL     1       0.700 -15.611   6.903  0.00  0.00    -0.269 N 
ATOM     31  C   UNL     1       0.362 -16.087   8.118  0.00  0.00    +0.304 C 
ATOM     32  O   UNL     1      -0.381 -15.446   8.837  0.00  0.00    -0.253 OA
ATOM     33  N   UNL     1       0.846 -17.273   8.536  0.00  0.00    -0.299 N 
ATOM     34  H   UNL     1       1.227 -16.157   6.298  0.00  0.00    +0.156 HD
ATOM     35  H   UNL     1       1.438 -17.785   7.962  0.00  0.00    +0.150 HD
BRANCH  33  36
ATOM     36  C   UNL     1       0.477 -17.791   9.856  0.00  0.00    +0.109 C 
BRANCH  36  37
ATOM     37  C   UNL     1       1.157 -19.143  10.082  0.00  0.00    +0.006 C 
ATOM     38  C   UNL     1       0.609 -20.162   9.080  0.00  0.00    +0.005 C 
ATOM     39  C   UNL     1       1.288 -21.515   9.306  0.00  0.00    +0.000 C 
ATOM     40  C   UNL     1       1.005 -21.996  10.730  0.00  0.00    +0.000 C 
ATOM     41  C   UNL     1       1.553 -20.977  11.732  0.00  0.00    +0.000 C 
ATOM     42  C   UNL     1       0.874 -19.625  11.506  0.00  0.00    +0.005 C 
ENDBRANCH  36  37
ENDBRANCH  33  36
ENDBRANCH  27  30
ENDBRANCH   8  24
BRANCH   9  43
ATOM     43  N   UNL     1      -2.921 -10.604   6.696  0.00  0.00    -0.343 N 
ATOM     44  H   UNL     1      -3.748 -10.219   7.026  0.00  0.00    +0.144 HD
ATOM     45  H   UNL     1      -2.653 -11.492   6.979  0.00  0.00    +0.144 HD
ENDBRANCH   9  43
TORSDOF 7
