REMARK  6 active torsions:
REMARK  status: ('A' for Active; 'I' for Inactive)
REMARK    1  A    between atoms: C10_4  and  C15_7 
REMARK    2  A    between atoms: N12_5  and  C26_10 
REMARK    3  A    between atoms: C17_8  and  C11_14 
REMARK    4  A    between atoms: C17_8  and  C19_18 
REMARK    5  A    between atoms: C26_10  and  C27_19 
REMARK    6  A    between atoms: C32_22  and  C49_30 
ROOT
HETATM    1  C4  46C A 901      44.990   7.784  32.355  1.00 26.68     0.018 A 
HETATM    2  C5  46C A 901      43.781   7.766  33.186  1.00 22.46     0.050 A 
HETATM    3  C6  46C A 901      43.396   9.011  33.836  1.00 19.58     0.052 A 
HETATM    4  C10 46C A 901      46.953   8.915  31.290  1.00 27.82     0.004 A 
HETATM    5  N12 46C A 901      46.494   6.507  30.871  1.00 27.95    -0.310 N 
HETATM    6  C13 46C A 901      45.387   6.540  31.611  1.00 25.19     0.255 A 
HETATM    7  C1  46C A 901      44.222  10.210  33.640  1.00 20.75    -0.006 A 
HETATM    8  C2  46C A 901      45.431  10.214  32.813  1.00 21.54     0.087 A 
HETATM    9  C3  46C A 901      45.795   8.973  32.171  1.00 22.33    -0.029 A 
HETATM   10  C11 46C A 901      47.299   7.661  30.671  1.00 27.08     0.094 A 
HETATM   11 CL14 46C A 901      43.789  11.630  34.389  1.00 27.00    -0.093 Cl
HETATM   12  O16 46C A 901      44.671   5.546  31.680  1.00 25.30    -0.267 OA
ENDROOT
BRANCH   5  13
HETATM   13  C26 46C A 901      46.843   5.235  30.208  1.00 28.49     0.137 C 
BRANCH  13  14
HETATM   14  C27 46C A 901      47.965   4.511  30.882  1.00 30.63     0.004 A 
HETATM   15  C30 46C A 901      47.719   3.937  32.198  1.00 23.81     0.007 A 
HETATM   16  C31 46C A 901      48.816   3.261  32.877  1.00 26.03     0.016 A 
HETATM   17  C32 46C A 901      50.117   3.175  32.215  1.00 31.26     0.087 A 
HETATM   18  C33 46C A 901      50.371   3.749  30.886  1.00 32.12     0.016 A 
HETATM   19  C34 46C A 901      49.263   4.436  30.204  1.00 31.49     0.007 A 
BRANCH  17  20
HETATM   20  C49 46C A 901      51.237   2.455  32.953  1.00 34.61     0.177 C 
HETATM   21  O50 46C A 901      52.403   2.641  32.611  1.00 37.31    -0.648 OA
HETATM   22  O51 46C A 901      50.934   1.691  33.909  1.00 33.21    -0.648 OA
ENDBRANCH  17  20
ENDBRANCH  13  14
ENDBRANCH   5  13
BRANCH  10  23
HETATM   23  C17 46C A 901      48.516   7.586  29.757  1.00 32.07     0.176 C 
HETATM   24  O18 46C A 901      48.361   7.201  28.599  1.00 25.19    -0.291 OA
BRANCH  23  25
HETATM   25  C19 46C A 901      49.897   7.961  30.286  1.00 25.06     0.081 C 
HETATM   26  C20 46C A 901      50.931   8.074  29.185  1.00 28.49     0.013 C 
ENDBRANCH  23  25
ENDBRANCH  10  23
BRANCH   4  27
HETATM   27  C15 46C A 901      47.734  10.106  30.995  1.00 30.32    -0.067 A 
HETATM   28  C39 46C A 901      48.599  10.660  32.040  1.00 28.10     0.035 A 
HETATM   29  C40 46C A 901      49.375  11.870  31.740  1.00 29.54     0.004 A 
HETATM   30  C41 46C A 901      49.270  12.505  30.411  1.00 27.40     0.001 A 
HETATM   31  C42 46C A 901      48.391  11.924  29.376  1.00 27.72     0.004 A 
HETATM   32  C43 46C A 901      47.610  10.710  29.663  1.00 27.16     0.035 A 
ENDBRANCH   4  27
TORSDOF 6
