REMARK  Name = CHEMBL592288
REMARK  2 active torsions:
REMARK  status: ('A' for Active; 'I' for Inactive)
REMARK    1  A    between atoms: C_3  and  C_7
REMARK    2  A    between atoms: C_10  and  N_17
REMARK                            x       y       z     vdW  Elec       q    Type
REMARK                         _______ _______ _______ _____ _____    ______ ____
ROOT
ATOM      1  C   UNL     1       4.040   0.971   0.217  0.00  0.00    +0.116 A 
ATOM      2  C   UNL     1       4.793  -0.086   0.904  0.00  0.00    +0.031 A 
ATOM      3  C   UNL     1       4.436  -1.296   1.502  0.00  0.00    +0.035 A 
ATOM      4  C   UNL     1       5.413  -2.084   2.079  0.00  0.00    +0.033 A 
ATOM      5  C   UNL     1       6.747  -1.675   2.065  0.00  0.00    +0.025 A 
ATOM      6  C   UNL     1       7.107  -0.493   1.484  0.00  0.00    +0.029 A 
ATOM      7  C   UNL     1       6.140   0.319   0.895  0.00  0.00    +0.067 A 
ATOM      8  N   UNL     1       6.189   1.530   0.249  0.00  0.00    -0.276 N 
ATOM      9  H   UNL     1       6.992   2.051   0.093  0.00  0.00    +0.189 HD
ATOM     10  N   UNL     1       4.899   1.892  -0.152  0.00  0.00    -0.171 NA
ENDROOT
BRANCH   4  11
ATOM     11  N   UNL     1       5.064  -3.299   2.681  0.00  0.00    -0.299 N 
ATOM     12  C   UNL     1       5.912  -4.391   2.583  0.00  0.00    +0.128 A 
ATOM     13  C   UNL     1       5.636  -5.569   3.281  0.00  0.00    +0.063 A 
ATOM     14  C   UNL     1       6.509  -6.630   3.154  0.00  0.00    +0.118 A 
ATOM     15  N   UNL     1       7.577  -6.503   2.380  0.00  0.00    -0.223 NA
ATOM     16  C   UNL     1       7.815  -5.373   1.729  0.00  0.00    +0.214 A 
ATOM     17  N   UNL     1       6.999  -4.334   1.820  0.00  0.00    -0.200 NA
ATOM     18  N   UNL     1       8.941  -5.279   0.930  0.00  0.00    -0.327 N 
ATOM     19  H   UNL     1       4.227  -3.377   3.166  0.00  0.00    +0.154 HD
ATOM     20  H   UNL     1       9.544  -6.035   0.852  0.00  0.00    +0.145 HD
ATOM     21  H   UNL     1       9.127  -4.458   0.448  0.00  0.00    +0.145 HD
ENDBRANCH   4  11
BRANCH   1  24
ATOM     22  C   UNL     1       0.474   1.665  -0.289  0.00  0.00    +0.019 A 
ATOM     23  C   UNL     1       1.784   2.095  -0.021  0.00  0.00    +0.029 A 
ATOM     24  C   UNL     1       2.583   0.990  -0.021  0.00  0.00    +0.067 A 
ATOM     25  N   UNL     1       1.792  -0.100  -0.281  0.00  0.00    -0.359 N 
ATOM     26  H   UNL     1       2.097  -1.019  -0.339  0.00  0.00    +0.165 HD
ATOM     27  C   UNL     1       0.506   0.324  -0.443  0.00  0.00    +0.083 A 
ENDBRANCH   1  24
TORSDOF 2
