REMARK  Name = CHEMBL1208950
REMARK  5 active torsions:
REMARK  status: ('A' for Active; 'I' for Inactive)
REMARK    1  A    between atoms: C_1  and  N_2
REMARK    2  A    between atoms: N_5  and  C_8
REMARK    3  A    between atoms: C_11  and  N_14
REMARK    4  A    between atoms: N_14  and  C_15
REMARK    5  A    between atoms: C_22  and  C_25
REMARK                            x       y       z     vdW  Elec       q    Type
REMARK                         _______ _______ _______ _____ _____    ______ ____
ROOT
ATOM      1  C   UNL     1      -1.535  -7.173   5.255  0.00  0.00    +0.042 A 
ATOM      2  C   UNL     1      -0.303  -6.598   5.528  0.00  0.00    +0.041 A 
ATOM      3  C   UNL     1       0.487  -7.118   6.544  0.00  0.00    +0.085 A 
ATOM      4  N   UNL     1       0.103  -8.147   7.263  0.00  0.00    -0.361 N 
ATOM      5  C   UNL     1      -1.071  -8.752   7.056  0.00  0.00    +0.048 A 
ATOM      6  C   UNL     1      -1.940  -8.279   6.042  0.00  0.00    +0.020 A 
ATOM      7  C   UNL     1      -3.171  -8.909   5.830  0.00  0.00    +0.020 A 
ATOM      8  C   UNL     1      -3.529  -9.987   6.621  0.00  0.00    -0.017 A 
ATOM      9  C   UNL     1      -2.666 -10.446   7.628  0.00  0.00    +0.010 A 
ATOM     10  C   UNL     1      -1.461  -9.855   7.838  0.00  0.00    +0.027 A 
ATOM     11  H   UNL     1       0.688  -8.478   7.963  0.00  0.00    +0.165 HD
ENDROOT
BRANCH   8  12
ATOM     12  C   UNL     1      -4.832 -10.661   6.403  0.00  0.00    -0.018 A 
ATOM     13  C   UNL     1      -5.692 -10.214   5.401  0.00  0.00    +0.009 A 
ATOM     14  C   UNL     1      -6.903 -10.845   5.202  0.00  0.00    +0.016 A 
ATOM     15  C   UNL     1      -7.265 -11.920   5.995  0.00  0.00    +0.018 A 
ATOM     16  C   UNL     1      -6.415 -12.368   6.992  0.00  0.00    +0.016 A 
ATOM     17  C   UNL     1      -5.199 -11.748   7.195  0.00  0.00    +0.009 A 
ATOM     18 BR   UNL     1      -8.926 -12.779   5.718  0.00  0.00    -0.050 Br
ENDBRANCH   8  12
BRANCH   1  19
ATOM     19  N   UNL     1      -2.348  -6.678   4.247  0.00  0.00    -0.314 N 
ATOM     20  H   UNL     1      -3.249  -7.019   4.139  0.00  0.00    +0.152 HD
BRANCH  19  24
ATOM     21  C   UNL     1      -0.916  -3.721   1.680  0.00  0.00    +0.030 A 
ATOM     22  C   UNL     1      -2.225  -3.667   2.139  0.00  0.00    +0.025 A 
ATOM     23  C   UNL     1      -2.700  -4.646   2.989  0.00  0.00    +0.025 A 
ATOM     24  C   UNL     1      -1.867  -5.685   3.384  0.00  0.00    +0.031 A 
ATOM     25  C   UNL     1      -0.558  -5.739   2.925  0.00  0.00    +0.025 A 
ATOM     26  C   UNL     1      -0.085  -4.763   2.071  0.00  0.00    +0.025 A 
BRANCH  21  31
ATOM     27  C   UNL     1       1.224   1.042   0.084  0.00  0.00    -0.096 C 
ATOM     28  N   UNL     1       0.657  -0.306  -0.049  0.00  0.00    +0.380 N 
ATOM     29  C   UNL     1      -0.698  -0.324   0.517  0.00  0.00    -0.060 C 
ATOM     30  C   UNL     1      -1.333  -1.697   0.276  0.00  0.00    +0.086 C 
ATOM     31  N   UNL     1      -0.435  -2.729   0.818  0.00  0.00    -0.333 N 
ATOM     32  C   UNL     1       0.983  -2.687   0.429  0.00  0.00    +0.086 C 
ATOM     33  C   UNL     1       1.509  -1.267   0.663  0.00  0.00    -0.060 C 
ATOM     34  H   UNL     1       0.614  -0.556  -1.026  0.00  0.00    -0.082 HD
ENDBRANCH  21  31
ENDBRANCH  19  24
ENDBRANCH   1  19
TORSDOF 4
