REMARK  Name = CHEMBL461316
REMARK  9 active torsions:
REMARK  status: ('A' for Active; 'I' for Inactive)
REMARK    1  A    between atoms: C_1  and  C_2
REMARK    2  A    between atoms: C_2  and  N_3
REMARK    3  A    between atoms: N_3  and  C_4
REMARK    4  A    between atoms: N_3  and  C_6
REMARK    5  A    between atoms: C_4  and  C_5
REMARK    6  A    between atoms: C_6  and  C_7
REMARK    7  A    between atoms: C_10  and  C_13
REMARK    8  A    between atoms: C_14  and  C_15
REMARK    9  A    between atoms: C_17  and  C_21
REMARK                            x       y       z     vdW  Elec       q    Type
REMARK                         _______ _______ _______ _____ _____    ______ ____
ROOT
ATOM      1  C   UNL     1       0.983  -3.042   7.984  0.00  0.00    +0.064 A 
ATOM      2  C   UNL     1       0.214  -3.009   9.146  0.00  0.00    +0.037 A 
ATOM      3  C   UNL     1       0.839  -3.236  10.375  0.00  0.00    +0.002 A 
ATOM      4  C   UNL     1       2.218  -3.489  10.382  0.00  0.00    +0.029 A 
ATOM      5  C   UNL     1       2.907  -3.505   9.187  0.00  0.00    +0.112 A 
ATOM      6  N   UNL     1       2.289  -3.292   8.043  0.00  0.00    -0.256 NA
ENDROOT
BRANCH   3   7
ATOM      7  C   UNL     1       0.066  -3.211  11.635  0.00  0.00    +0.049 A 
ATOM      8  C   UNL     1       0.576  -3.413  12.877  0.00  0.00    +0.043 A 
ATOM      9  C   UNL     1      -0.490  -3.303  13.794  0.00  0.00    +0.083 A 
ATOM     10  C   UNL     1      -1.650  -3.029  13.053  0.00  0.00    +0.145 A 
ATOM     11  N   UNL     1      -1.288  -2.972  11.739  0.00  0.00    -0.339 N 
ATOM     12  H   UNL     1      -1.887  -2.794  10.997  0.00  0.00    +0.167 HD
ATOM     13  N   UNL     1      -2.816  -2.877  13.700  0.00  0.00    -0.220 NA
ATOM     14  C   UNL     1      -2.902  -2.977  14.994  0.00  0.00    +0.201 A 
ATOM     15  N   UNL     1      -1.835  -3.239  15.790  0.00  0.00    -0.313 N 
ATOM     16  H   UNL     1      -1.953  -3.304  16.750  0.00  0.00    +0.170 HD
ATOM     17  C   UNL     1      -0.607  -3.411  15.247  0.00  0.00    +0.261 A 
ATOM     18  O   UNL     1       0.364  -3.647  15.944  0.00  0.00    -0.267 OA
ENDBRANCH   3   7
BRANCH   1  20
ATOM     19  C   UNL     1       1.077  -2.842   5.554  0.00  0.00    +0.010 C 
ATOM     20  C   UNL     1       0.343  -2.805   6.678  0.00  0.00    +0.028 C 
BRANCH  19  24
ATOM     21  C   UNL     1      -0.765  -2.161   1.793  0.00  0.00    -0.064 A 
ATOM     22  C   UNL     1       0.592  -2.420   1.857  0.00  0.00    +0.002 A 
ATOM     23  C   UNL     1       1.198  -2.642   3.076  0.00  0.00    +0.008 A 
ATOM     24  C   UNL     1       0.438  -2.605   4.248  0.00  0.00    -0.025 A 
ATOM     25  C   UNL     1      -0.933  -2.342   4.175  0.00  0.00    +0.008 A 
ATOM     26  C   UNL     1      -1.524  -2.118   2.949  0.00  0.00    +0.002 A 
BRANCH  21  27
ATOM     27  C   UNL     1      -1.420  -1.919   0.457  0.00  0.00    -0.043 C 
BRANCH  27  28
ATOM     28  N   UNL     1      -1.374  -0.485   0.142  0.00  0.00    +0.382 N 
ATOM     29  H   UNL     1      -1.793   0.039   0.896  0.00  0.00    -0.081 HD
BRANCH  28  31
ATOM     30  C   UNL     1       0.081   1.451  -0.220  0.00  0.00    -0.017 C 
ATOM     31  C   UNL     1       0.024  -0.066  -0.029  0.00  0.00    -0.082 C 
ENDBRANCH  28  31
BRANCH  28  32
ATOM     32  C   UNL     1      -2.116  -0.233  -1.101  0.00  0.00    -0.082 C 
ATOM     33  C   UNL     1      -3.600  -0.533  -0.879  0.00  0.00    -0.017 C 
ENDBRANCH  28  32
ENDBRANCH  27  28
ENDBRANCH  21  27
ENDBRANCH  19  24
ENDBRANCH   1  20
TORSDOF 7
