REMARK  Name = CHEMBL181069
REMARK  2 active torsions:
REMARK  status: ('A' for Active; 'I' for Inactive)
REMARK    1  A    between atoms: C_15  and  C_20
REMARK    2  A    between atoms: C_16  and  N_19
REMARK                            x       y       z     vdW  Elec       q    Type
REMARK                         _______ _______ _______ _____ _____    ______ ____
ROOT
ATOM      1  C   UNL     1      -0.017   1.381   0.010  0.00  0.00    +0.056 A 
ATOM      2  C   UNL     1       1.169   2.099   0.002  0.00  0.00    -0.001 A 
ATOM      3  C   UNL     1       2.380   1.431  -0.013  0.00  0.00    +0.128 A 
ATOM      4  C   UNL     1       2.402   0.040  -0.021  0.00  0.00    +0.095 A 
ATOM      5  C   UNL     1       1.218  -0.678  -0.015  0.00  0.00    +0.166 A 
ATOM      6  C   UNL     1       0.002  -0.004   0.002  0.00  0.00    +0.163 A 
ATOM      7  O   UNL     1      -1.175  -0.690   0.016  0.00  0.00    -0.485 OA
ATOM      8  C   UNL     1      -1.120  -2.068  -0.370  0.00  0.00    +0.270 C 
ATOM      9  C   UNL     1       0.063  -2.723   0.356  0.00  0.00    +0.270 C 
ATOM     10  O   UNL     1       1.260  -2.038  -0.029  0.00  0.00    -0.485 OA
ATOM     11  O   UNL     1       3.567   2.096  -0.025  0.00  0.00    -0.487 OA
ATOM     12  C   UNL     1       3.554   3.473   0.354  0.00  0.00    +0.188 C 
ATOM     13  C   UNL     1       4.904   4.116   0.018  0.00  0.00    +0.101 C 
ATOM     14  C   UNL     1       4.847   5.560   0.472  0.00  0.00    +0.055 C 
ATOM     15  C   UNL     1       3.612   6.316   0.203  0.00  0.00    +0.089 C 
ATOM     16  C   UNL     1       2.483   5.658  -0.220  0.00  0.00    +0.028 C 
ATOM     17  C   UNL     1       2.448   4.177  -0.439  0.00  0.00    +0.079 C 
ATOM     18  C   UNL     1       1.101   3.606   0.013  0.00  0.00    +0.052 C 
ATOM     19  N   UNL     1       5.853   6.112   1.079  0.00  0.00    -0.303 NA
ATOM     20  H   UNL     1       6.658   5.599   1.248  0.00  0.00    +0.186 HD
ENDROOT
BRANCH  16  21
ATOM     21  N   UNL     1       1.354   6.380  -0.449  0.00  0.00    -0.360 N 
ATOM     22  H   UNL     1       1.356   7.340  -0.312  0.00  0.00    +0.142 HD
ATOM     23  H   UNL     1       0.546   5.934  -0.748  0.00  0.00    +0.142 HD
ENDBRANCH  16  21
BRANCH  15  24
ATOM     24  C   UNL     1       3.588   7.736   0.381  0.00  0.00    +0.102 C 
ATOM     25  N   UNL     1       3.569   8.863   0.523  0.00  0.00    -0.191 NA
ENDBRANCH  15  24
TORSDOF 2
