REMARK  Name = CHEMBL510545
REMARK  3 active torsions:
REMARK  status: ('A' for Active; 'I' for Inactive)
REMARK    1  A    between atoms: C_4  and  C_7
REMARK    2  A    between atoms: C_8  and  C_9
REMARK    3  A    between atoms: C_11  and  C_15
REMARK                            x       y       z     vdW  Elec       q    Type
REMARK                         _______ _______ _______ _____ _____    ______ ____
ROOT
ATOM      1  C   UNL     1       5.002  -2.740  -0.063  0.00  0.00    +0.064 A 
ATOM      2  C   UNL     1       5.018  -4.134  -0.076  0.00  0.00    +0.037 A 
ATOM      3  C   UNL     1       6.249  -4.794  -0.092  0.00  0.00    +0.002 A 
ATOM      4  C   UNL     1       7.418  -4.021  -0.095  0.00  0.00    +0.029 A 
ATOM      5  C   UNL     1       7.316  -2.645  -0.081  0.00  0.00    +0.112 A 
ATOM      6  N   UNL     1       6.140  -2.049  -0.071  0.00  0.00    -0.256 NA
ENDROOT
BRANCH   3   7
ATOM      7  C   UNL     1       6.317  -6.271  -0.107  0.00  0.00    +0.048 A 
ATOM      8  C   UNL     1       5.247  -7.117  -0.111  0.00  0.00    +0.041 A 
ATOM      9  C   UNL     1       5.763  -8.420  -0.125  0.00  0.00    +0.058 A 
ATOM     10  C   UNL     1       7.151  -8.318  -0.127  0.00  0.00    +0.030 A 
ATOM     11  N   UNL     1       7.472  -7.024  -0.123  0.00  0.00    -0.357 N 
ATOM     12  H   UNL     1       8.374  -6.668  -0.129  0.00  0.00    +0.166 HD
ATOM     13  C   UNL     1       8.020  -9.550  -0.136  0.00  0.00    +0.072 C 
ATOM     14  C   UNL     1       7.271 -10.687   0.560  0.00  0.00    +0.110 C 
ATOM     15  N   UNL     1       5.889 -10.811   0.117  0.00  0.00    -0.311 N 
ATOM     16  C   UNL     1       5.104  -9.737  -0.139  0.00  0.00    +0.246 C 
ATOM     17  O   UNL     1       3.916  -9.855  -0.368  0.00  0.00    -0.270 OA
ATOM     18  H   UNL     1       5.516 -11.698   0.000  0.00  0.00    +0.149 HD
ENDBRANCH   3   7
BRANCH   1  20
ATOM     19  C   UNL     1       3.692  -0.681  -0.038  0.00  0.00    +0.010 C 
ATOM     20  C   UNL     1       3.715  -2.024  -0.045  0.00  0.00    +0.028 C 
BRANCH  19  24
ATOM     21  C   UNL     1      -0.017   1.380   0.010  0.00  0.00    +0.000 A 
ATOM     22  C   UNL     1       1.168   2.095   0.002  0.00  0.00    +0.001 A 
ATOM     23  C   UNL     1       2.377   1.432  -0.013  0.00  0.00    +0.008 A 
ATOM     24  C   UNL     1       2.404   0.034  -0.021  0.00  0.00    -0.025 A 
ATOM     25  C   UNL     1       1.204  -0.681  -0.013  0.00  0.00    +0.008 A 
ATOM     26  C   UNL     1       0.002  -0.004   0.002  0.00  0.00    +0.001 A 
ENDBRANCH  19  24
ENDBRANCH   1  20
TORSDOF 3
