REMARK  Name = CHEMBL561334
REMARK  1 active torsions:
REMARK  status: ('A' for Active; 'I' for Inactive)
REMARK    1  A    between atoms: C_1  and  C_2
REMARK                            x       y       z     vdW  Elec       q    Type
REMARK                         _______ _______ _______ _____ _____    ______ ____
ROOT
ATOM      1  C   UNL     1      -0.019   1.526   0.010  0.00  0.00    +0.029 C 
ATOM      2  C   UNL     1       0.002  -0.004   0.002  0.00  0.00    +0.087 C 
ATOM      3  C   UNL     1       0.672  -0.473  -1.270  0.00  0.00    +0.123 C 
ATOM      4  N   UNL     1       0.474  -1.880  -1.521  0.00  0.00    -0.341 N 
ATOM      5  C   UNL     1       1.081  -2.888  -0.764  0.00  0.00    +0.055 A 
ATOM      6  C   UNL     1       1.393  -4.141  -1.359  0.00  0.00    +0.020 A 
ATOM      7  C   UNL     1       1.164  -4.550  -2.761  0.00  0.00    +0.010 A 
ATOM      8  C   UNL     1       0.575  -3.665  -3.674  0.00  0.00    +0.012 A 
ATOM      9  C   UNL     1       0.390  -4.097  -4.960  0.00  0.00    +0.020 A 
ATOM     10  C   UNL     1       0.785  -5.381  -5.321  0.00  0.00    +0.111 A 
ATOM     11  N   UNL     1       1.335  -6.202  -4.458  0.00  0.00    -0.255 NA
ATOM     12  C   UNL     1       1.540  -5.840  -3.187  0.00  0.00    +0.072 A 
ATOM     13  C   UNL     1       2.128  -6.742  -2.273  0.00  0.00    +0.029 A 
ATOM     14  C   UNL     1       2.339  -6.370  -0.986  0.00  0.00    +0.018 A 
ATOM     15  C   UNL     1       1.990  -5.103  -0.531  0.00  0.00    +0.023 A 
ATOM     16  S   UNL     1       2.124  -4.281   1.035  0.00  0.00    -0.082 S 
ATOM     17  C   UNL     1       1.403  -2.717   0.572  0.00  0.00    +0.096 A 
ATOM     18  C   UNL     1       1.241  -1.623   1.420  0.00  0.00    +0.253 C 
ATOM     19  O   UNL     1       1.708  -1.761   2.536  0.00  0.00    -0.270 OA
ATOM     20  N   UNL     1       0.664  -0.464   1.198  0.00  0.00    -0.307 N 
ATOM     21  H   UNL     1      -0.109  -2.139  -2.252  0.00  0.00    +0.146 HD
ATOM     22  H   UNL     1       0.684   0.164   1.937  0.00  0.00    +0.149 HD
ENDROOT
TORSDOF 0
