REMARK  Name = CHEMBL392596
REMARK  2 active torsions:
REMARK  status: ('A' for Active; 'I' for Inactive)
REMARK    1  A    between atoms: C_1  and  C_2
REMARK    2  A    between atoms: C_11  and  C_17
REMARK                            x       y       z     vdW  Elec       q    Type
REMARK                         _______ _______ _______ _____ _____    ______ ____
ROOT
ATOM      1  C   UNL     1      -0.022   1.518   0.010  0.00  0.00    +0.014 C 
ATOM      2  C   UNL     1       0.001  -0.011   0.000  0.00  0.00    +0.036 C 
ATOM      3  C   UNL     1      -1.432  -0.545   0.025  0.00  0.00    +0.112 C 
ATOM      4  N   UNL     1      -2.064  -0.387   1.328  0.00  0.00    -0.310 N 
ATOM      5  C   UNL     1      -1.392  -0.569   2.488  0.00  0.00    +0.261 C 
ATOM      6  O   UNL     1      -1.964  -0.562   3.562  0.00  0.00    -0.269 OA
ATOM      7  C   UNL     1       0.064  -0.776   2.393  0.00  0.00    +0.106 A 
ATOM      8  C   UNL     1       0.729  -0.513   1.220  0.00  0.00    -0.006 A 
ATOM      9  C   UNL     1       2.078  -0.795   1.430  0.00  0.00    +0.005 A 
ATOM     10  C   UNL     1       3.201  -0.710   0.597  0.00  0.00    +0.023 A 
ATOM     11  C   UNL     1       4.426  -1.085   1.153  0.00  0.00    +0.038 A 
ATOM     12  C   UNL     1       4.529  -1.525   2.478  0.00  0.00    +0.015 A 
ATOM     13  C   UNL     1       3.441  -1.612   3.304  0.00  0.00    +0.027 A 
ATOM     14  C   UNL     1       2.201  -1.244   2.777  0.00  0.00    +0.047 A 
ATOM     15  N   UNL     1       0.958  -1.220   3.335  0.00  0.00    -0.350 N 
ATOM     16  H   UNL     1       0.741  -1.475   4.245  0.00  0.00    +0.166 HD
ATOM     17  H   UNL     1      -3.002  -0.141   1.366  0.00  0.00    +0.149 HD
ENDROOT
BRANCH  11  18
ATOM     18  C   UNL     1       5.643  -1.016   0.321  0.00  0.00    +0.249 C 
ATOM     19  O   UNL     1       5.571  -0.636  -0.832  0.00  0.00    -0.270 OA
ATOM     20  N   UNL     1       6.835  -1.373   0.840  0.00  0.00    -0.265 N 
ATOM     21  C   UNL     1       7.965  -1.410   0.027  0.00  0.00    +0.143 A 
ATOM     22  C   UNL     1       9.175  -1.880   0.534  0.00  0.00    +0.154 A 
ATOM     23  N   UNL     1      10.243  -1.913  -0.239  0.00  0.00    -0.258 NA
ATOM     24  C   UNL     1      10.167  -1.501  -1.494  0.00  0.00    +0.130 A 
ATOM     25  C   UNL     1       8.969  -1.034  -2.000  0.00  0.00    +0.132 A 
ATOM     26  N   UNL     1       7.892  -1.003  -1.233  0.00  0.00    -0.237 NA
ATOM     27  H   UNL     1       6.905  -1.605   1.779  0.00  0.00    +0.157 HD
ENDBRANCH  11  18
TORSDOF 1
