REMARK  Name = CHEMBL467532
REMARK  5 active torsions:
REMARK  status: ('A' for Active; 'I' for Inactive)
REMARK    1  A    between atoms: C_1  and  C_2
REMARK    2  A    between atoms: C_2  and  C_3
REMARK    3  A    between atoms: C_2  and  N_10
REMARK    4  A    between atoms: C_7  and  O_9
REMARK    5  A    between atoms: C_12  and  N_17
REMARK                            x       y       z     vdW  Elec       q    Type
REMARK                         _______ _______ _______ _____ _____    ______ ____
ROOT
ATOM      1  N   UNL     1      -1.372  -0.511   0.012  0.00  0.00    -0.274 NA
ATOM      2  C   UNL     1      -1.794  -1.254  -0.956  0.00  0.00    +0.119 C 
ATOM      3  C   UNL     1      -3.089  -1.948  -1.317  0.00  0.00    +0.232 C 
ATOM      4  C   UNL     1      -2.616  -1.843  -2.751  0.00  0.00    +0.234 C 
ATOM      5  O   UNL     1      -3.133  -1.804  -3.842  0.00  0.00    -0.286 OA
ATOM      6  C   UNL     1      -1.224  -1.802  -2.215  0.00  0.00    +0.247 C 
ATOM      7  O   UNL     1      -0.120  -2.088  -2.625  0.00  0.00    -0.282 OA
ENDROOT
BRANCH   3   8
ATOM      8  N   UNL     1      -3.180  -3.324  -0.824  0.00  0.00    -0.266 NA
ATOM      9  C   UNL     1      -4.152  -3.667   0.004  0.00  0.00    +0.062 A 
ATOM     10  C   UNL     1      -5.161  -2.693   0.446  0.00  0.00    +0.045 A 
ATOM     11  C   UNL     1      -5.950  -3.026   1.488  0.00  0.00    +0.084 A 
ATOM     12  N   UNL     1      -5.807  -4.226   2.112  0.00  0.00    -0.367 N 
ATOM     13  C   UNL     1      -5.102  -5.253   1.562  0.00  0.00    +0.084 A 
ATOM     14  C   UNL     1      -4.273  -5.038   0.519  0.00  0.00    +0.045 A 
ATOM     15  H   UNL     1      -6.222  -4.356   2.980  0.00  0.00    +0.165 HD
ENDBRANCH   3   8
BRANCH   1  17
ATOM     16  C   UNL     1      -0.019   1.526   0.010  0.00  0.00    +0.038 C 
ATOM     17  C   UNL     1       0.002  -0.004   0.002  0.00  0.00    +0.133 C 
BRANCH  17  18
ATOM     18  C   UNL     1       0.731  -0.503   1.223  0.00  0.00    -0.020 A 
ATOM     19  C   UNL     1       0.080  -0.558   2.442  0.00  0.00    +0.006 A 
ATOM     20  C   UNL     1       0.746  -1.016   3.564  0.00  0.00    +0.004 A 
ATOM     21  C   UNL     1       2.064  -1.419   3.470  0.00  0.00    +0.045 A 
ATOM     22  C   UNL     1       2.719  -1.365   2.248  0.00  0.00    +0.117 A 
ATOM     23  C   UNL     1       2.047  -0.911   1.122  0.00  0.00    +0.051 A 
BRANCH  22  24
ATOM     24  O   UNL     1       4.016  -1.761   2.153  0.00  0.00    -0.507 OA
ATOM     25  H   UNL     1       4.126  -2.699   1.947  0.00  0.00    +0.292 HD
ENDBRANCH  22  24
ENDBRANCH  17  18
ENDBRANCH   1  17
TORSDOF 4
