REMARK  Name = CHEMBL403286
REMARK  6 active torsions:
REMARK  status: ('A' for Active; 'I' for Inactive)
REMARK    1  A    between atoms: C_1  and  C_2
REMARK    2  A    between atoms: C_11  and  C_16
REMARK    3  A    between atoms: C_21  and  C_24
REMARK    4  A    between atoms: N_26  and  C_27
REMARK    5  A    between atoms: N_30  and  C_33
REMARK    6  A    between atoms: C_33  and  C_34
REMARK                            x       y       z     vdW  Elec       q    Type
REMARK                         _______ _______ _______ _____ _____    ______ ____
ROOT
ATOM      1  C   UNL     1      -2.492  -1.149   4.941  0.00  0.00    +0.250 C 
ATOM      2  O   UNL     1      -3.461  -0.787   4.302  0.00  0.00    -0.270 OA
ATOM      3  N   UNL     1      -2.636  -1.531   6.225  0.00  0.00    -0.261 N 
ATOM      4  C   UNL     1      -3.890  -1.512   6.818  0.00  0.00    +0.165 A 
ATOM      5  N   UNL     1      -4.232  -1.839   8.048  0.00  0.00    -0.220 NA
ATOM      6  C   UNL     1      -5.518  -1.739   8.397  0.00  0.00    +0.135 A 
ATOM      7  C   UNL     1      -6.423  -1.303   7.469  0.00  0.00    +0.081 A 
ATOM      8  S   UNL     1      -5.458  -1.031   6.117  0.00  0.00    -0.060 S 
ATOM      9  H   UNL     1      -1.862  -1.820   6.734  0.00  0.00    +0.157 HD
ENDROOT
BRANCH   1  20
ATOM     10  C   UNL     1      -0.019   1.526   0.010  0.00  0.00    +0.032 C 
ATOM     11  C   UNL     1       0.002  -0.004   0.002  0.00  0.00    +0.102 C 
ATOM     12  C   UNL     1       0.722  -0.498  -1.252  0.00  0.00    +0.129 C 
ATOM     13  N   UNL     1       2.162  -0.276  -1.197  0.00  0.00    -0.308 N 
ATOM     14  C   UNL     1       2.870  -0.444  -0.056  0.00  0.00    +0.261 C 
ATOM     15  O   UNL     1       4.085  -0.382  -0.040  0.00  0.00    -0.269 OA
ATOM     16  C   UNL     1       2.090  -0.706   1.170  0.00  0.00    +0.106 A 
ATOM     17  N   UNL     1       0.711  -0.491   1.190  0.00  0.00    -0.332 N 
ATOM     18  C   UNL     1       0.246  -0.804   2.424  0.00  0.00    +0.051 A 
ATOM     19  C   UNL     1      -1.031  -0.768   2.976  0.00  0.00    +0.039 A 
ATOM     20  C   UNL     1      -1.157  -1.169   4.309  0.00  0.00    +0.039 A 
ATOM     21  C   UNL     1      -0.055  -1.589   5.063  0.00  0.00    +0.014 A 
ATOM     22  C   UNL     1       1.208  -1.630   4.539  0.00  0.00    +0.011 A 
ATOM     23  C   UNL     1       1.360  -1.231   3.201  0.00  0.00    +0.001 A 
ATOM     24  C   UNL     1       2.496  -1.154   2.376  0.00  0.00    +0.041 A 
ATOM     25  H   UNL     1       2.626   0.000  -2.003  0.00  0.00    +0.149 HD
ENDBRANCH   1  20
BRANCH   6  26
ATOM     26  C   UNL     1      -5.953  -2.092   9.758  0.00  0.00    +0.263 C 
ATOM     27  O   UNL     1      -7.127  -1.997  10.065  0.00  0.00    -0.269 OA
ATOM     28  N   UNL     1      -5.052  -2.519  10.664  0.00  0.00    -0.307 N 
ATOM     29  H   UNL     1      -4.117  -2.595  10.419  0.00  0.00    +0.149 HD
BRANCH  28  30
ATOM     30  C   UNL     1      -5.486  -2.871  12.019  0.00  0.00    +0.070 C 
ATOM     31  C   UNL     1      -5.526  -1.610  12.886  0.00  0.00    +0.004 C 
ATOM     32  C   UNL     1      -5.902  -1.995  14.319  0.00  0.00    -0.077 C 
ATOM     33  N   UNL     1      -4.905  -2.928  14.856  0.00  0.00    +0.382 N 
ATOM     34  C   UNL     1      -4.911  -4.169  14.072  0.00  0.00    -0.077 C 
ATOM     35  C   UNL     1      -4.497  -3.868  12.630  0.00  0.00    +0.004 C 
ATOM     36  H   UNL     1      -3.990  -2.506  14.809  0.00  0.00    -0.081 HD
BRANCH  33  37
ATOM     37  C   UNL     1      -5.228  -3.234  16.256  0.00  0.00    -0.043 C 
BRANCH  37  38
ATOM     38  C   UNL     1      -4.139  -4.094  16.846  0.00  0.00    -0.064 A 
ATOM     39  C   UNL     1      -4.224  -5.471  16.762  0.00  0.00    +0.002 A 
ATOM     40  C   UNL     1      -3.226  -6.259  17.303  0.00  0.00    +0.000 A 
ATOM     41  C   UNL     1      -2.143  -5.671  17.928  0.00  0.00    +0.000 A 
ATOM     42  C   UNL     1      -2.057  -4.293  18.011  0.00  0.00    +0.000 A 
ATOM     43  C   UNL     1      -3.053  -3.505  17.467  0.00  0.00    +0.002 A 
ENDBRANCH  37  38
ENDBRANCH  33  37
ENDBRANCH  28  30
ENDBRANCH   6  26
TORSDOF 5
