REMARK  Name = CHEMBL467532
REMARK  6 active torsions:
REMARK  status: ('A' for Active; 'I' for Inactive)
REMARK    1  A    between atoms: C_1  and  C_2
REMARK    2  A    between atoms: C_2  and  C_3
REMARK    3  A    between atoms: C_2  and  N_10
REMARK    4  A    between atoms: C_7  and  O_9
REMARK    5  A    between atoms: C_12  and  N_17
REMARK    6  A    between atoms: N_17  and  C_18
REMARK                            x       y       z     vdW  Elec       q    Type
REMARK                         _______ _______ _______ _____ _____    ______ ____
ROOT
ATOM      1  N   UNL     1      -1.372  -0.511   0.012  0.00  0.00    -0.274 NA
ATOM      2  C   UNL     1      -1.775  -1.264   0.980  0.00  0.00    +0.114 C 
ATOM      3  C   UNL     1      -1.173  -1.831   2.248  0.00  0.00    +0.198 C 
ATOM      4  C   UNL     1      -2.593  -1.874   2.771  0.00  0.00    +0.230 C 
ATOM      5  O   UNL     1      -3.127  -1.850   3.854  0.00  0.00    -0.286 OA
ATOM      6  C   UNL     1      -3.038  -1.955   1.349  0.00  0.00    +0.246 C 
ATOM      7  O   UNL     1      -4.004  -2.390   0.758  0.00  0.00    -0.282 OA
ENDROOT
BRANCH   1   9
ATOM      8  C   UNL     1      -0.019   1.526   0.010  0.00  0.00    +0.038 C 
ATOM      9  C   UNL     1       0.002  -0.004   0.002  0.00  0.00    +0.133 C 
BRANCH   9  10
ATOM     10  C   UNL     1       0.707  -0.490  -1.238  0.00  0.00    -0.020 A 
ATOM     11  C   UNL     1       0.037  -0.521  -2.447  0.00  0.00    +0.006 A 
ATOM     12  C   UNL     1       0.681  -0.967  -3.586  0.00  0.00    +0.004 A 
ATOM     13  C   UNL     1       1.997  -1.382  -3.519  0.00  0.00    +0.045 A 
ATOM     14  C   UNL     1       2.672  -1.352  -2.308  0.00  0.00    +0.117 A 
ATOM     15  C   UNL     1       2.025  -0.898  -1.167  0.00  0.00    +0.051 A 
BRANCH  14  16
ATOM     16  O   UNL     1       3.966  -1.760  -2.239  0.00  0.00    -0.507 OA
ATOM     17  H   UNL     1       4.610  -1.054  -2.390  0.00  0.00    +0.292 HD
ENDBRANCH  14  16
ENDBRANCH   9  10
ENDBRANCH   1   9
BRANCH   3  18
ATOM     18  N   UNL     1      -0.566  -3.152   2.075  0.00  0.00    -0.329 N 
ATOM     19  H   UNL     1      -0.866  -3.735   1.360  0.00  0.00    +0.147 HD
BRANCH  18  20
ATOM     20  C   UNL     1       0.443  -3.572   2.937  0.00  0.00    +0.031 A 
ATOM     21  C   UNL     1       0.886  -2.752   3.975  0.00  0.00    +0.042 A 
ATOM     22  C   UNL     1       1.887  -3.206   4.807  0.00  0.00    +0.112 A 
ATOM     23  N   UNL     1       2.425  -4.399   4.630  0.00  0.00    -0.263 NA
ATOM     24  C   UNL     1       2.034  -5.204   3.660  0.00  0.00    +0.112 A 
ATOM     25  C   UNL     1       1.034  -4.827   2.789  0.00  0.00    +0.042 A 
ENDBRANCH  18  20
ENDBRANCH   3  18
TORSDOF 5
