REMARK  Name = CHEMBL556392
REMARK  1 active torsions:
REMARK  status: ('A' for Active; 'I' for Inactive)
REMARK    1  A    between atoms: C_1  and  C_2
REMARK                            x       y       z     vdW  Elec       q    Type
REMARK                         _______ _______ _______ _____ _____    ______ ____
ROOT
ATOM      1  C   UNL     1      -0.019   1.526   0.010  0.00  0.00    +0.029 C 
ATOM      2  C   UNL     1       0.002  -0.004   0.002  0.00  0.00    +0.087 C 
ATOM      3  C   UNL     1       0.672  -0.473  -1.270  0.00  0.00    +0.123 C 
ATOM      4  N   UNL     1       0.473  -1.879  -1.521  0.00  0.00    -0.341 N 
ATOM      5  C   UNL     1       1.081  -2.888  -0.764  0.00  0.00    +0.055 A 
ATOM      6  C   UNL     1       1.390  -4.141  -1.359  0.00  0.00    +0.020 A 
ATOM      7  C   UNL     1       1.152  -4.552  -2.759  0.00  0.00    +0.010 A 
ATOM      8  C   UNL     1       0.562  -3.666  -3.669  0.00  0.00    +0.013 A 
ATOM      9  C   UNL     1       0.366  -4.098  -4.953  0.00  0.00    +0.041 A 
ATOM     10  C   UNL     1       0.752  -5.386  -5.314  0.00  0.00    +0.130 A 
ATOM     11  N   UNL     1       1.303  -6.209  -4.452  0.00  0.00    -0.235 NA
ATOM     12  C   UNL     1       1.521  -5.844  -3.183  0.00  0.00    +0.073 A 
ATOM     13  C   UNL     1       2.118  -6.743  -2.273  0.00  0.00    +0.029 A 
ATOM     14  C   UNL     1       2.340  -6.369  -0.988  0.00  0.00    +0.018 A 
ATOM     15  C   UNL     1       1.991  -5.103  -0.532  0.00  0.00    +0.023 A 
ATOM     16  S   UNL     1       2.128  -4.280   1.034  0.00  0.00    -0.082 S 
ATOM     17  C   UNL     1       1.404  -2.717   0.572  0.00  0.00    +0.096 A 
ATOM     18  C   UNL     1       1.241  -1.623   1.421  0.00  0.00    +0.253 C 
ATOM     19  O   UNL     1       1.706  -1.762   2.537  0.00  0.00    -0.270 OA
ATOM     20  N   UNL     1       0.664  -0.464   1.198  0.00  0.00    -0.307 N 
ATOM     21 CL   UNL     1       0.497  -5.919  -6.946  0.00  0.00    -0.062 Cl
ATOM     22  H   UNL     1      -0.110  -2.139  -2.251  0.00  0.00    +0.146 HD
ATOM     23  H   UNL     1       0.683   0.164   1.937  0.00  0.00    +0.149 HD
ENDROOT
TORSDOF 0
