REMARK  Name = CHEMBL361425
REMARK  3 active torsions:
REMARK  status: ('A' for Active; 'I' for Inactive)
REMARK    1  A    between atoms: C_6  and  O_7
REMARK    2  A    between atoms: C_12  and  C_17
REMARK    3  A    between atoms: C_13  and  N_16
REMARK                            x       y       z     vdW  Elec       q    Type
REMARK                         _______ _______ _______ _____ _____    ______ ____
ROOT
ATOM      1  C   UNL     1      -0.017   1.383   0.010  0.00  0.00    +0.046 A 
ATOM      2  C   UNL     1       1.170   2.088   0.002  0.00  0.00    +0.011 A 
ATOM      3  C   UNL     1       2.382   1.419  -0.013  0.00  0.00    -0.005 A 
ATOM      4  C   UNL     1       2.407   0.034  -0.021  0.00  0.00    +0.128 A 
ATOM      5  C   UNL     1       1.212  -0.677  -0.014  0.00  0.00    +0.091 A 
ATOM      6  C   UNL     1       0.002  -0.004   0.002  0.00  0.00    +0.120 A 
ATOM      7  O   UNL     1       3.575  -0.667  -0.035  0.00  0.00    -0.487 OA
ATOM      8  C   UNL     1       4.755   0.041   0.341  0.00  0.00    +0.192 C 
ATOM      9  C   UNL     1       5.988  -0.777   0.019  0.00  0.00    +0.090 C 
ATOM     10  C   UNL     1       7.276  -0.088   0.251  0.00  0.00    +0.036 C 
ATOM     11  C   UNL     1       7.290   1.375  -0.007  0.00  0.00    +0.088 C 
ATOM     12  C   UNL     1       6.127   2.027  -0.327  0.00  0.00    +0.028 C 
ATOM     13  C   UNL     1       4.811   1.337  -0.475  0.00  0.00    +0.080 C 
ATOM     14  C   UNL     1       3.656   2.231  -0.022  0.00  0.00    +0.052 C 
ATOM     15  N   UNL     1       8.342  -0.731   0.661  0.00  0.00    -0.400 N 
ATOM     16  H   UNL     1       8.301  -1.686   0.822  0.00  0.00    +0.156 HD
ATOM     17  H   UNL     1       9.172  -0.250   0.804  0.00  0.00    +0.156 HD
ENDROOT
BRANCH  12  18
ATOM     18  N   UNL     1       6.175   3.373  -0.520  0.00  0.00    -0.360 N 
ATOM     19  H   UNL     1       7.016   3.846  -0.430  0.00  0.00    +0.142 HD
ATOM     20  H   UNL     1       5.367   3.859  -0.747  0.00  0.00    +0.142 HD
ENDBRANCH  12  18
BRANCH   6  21
ATOM     21  O   UNL     1      -1.165  -0.701   0.009  0.00  0.00    -0.507 OA
ATOM     22  H   UNL     1      -1.511  -0.898  -0.872  0.00  0.00    +0.292 HD
ENDBRANCH   6  21
BRANCH  11  23
ATOM     23  C   UNL     1       8.519   2.104   0.077  0.00  0.00    +0.102 C 
ATOM     24  N   UNL     1       9.494   2.683   0.145  0.00  0.00    -0.191 NA
ENDBRANCH  11  23
TORSDOF 3
