REMARK  Name = CHEMBL1092754
REMARK  8 active torsions:
REMARK  status: ('A' for Active; 'I' for Inactive)
REMARK    1  A    between atoms: C_1  and  N_2
REMARK    2  A    between atoms: C_4  and  C_23
REMARK    3  A    between atoms: C_10  and  C_11
REMARK    4  A    between atoms: C_14  and  C_17
REMARK    5  A    between atoms: N_19  and  C_20
REMARK    6  A    between atoms: C_20  and  C_21
REMARK    7  A    between atoms: C_21  and  O_22
REMARK    8  A    between atoms: C_28  and  O_34
REMARK                            x       y       z     vdW  Elec       q    Type
REMARK                         _______ _______ _______ _____ _____    ______ ____
ROOT
ATOM      1  C   UNL     1      -0.419   1.416   0.057  0.00  0.00    +0.150 C 
ATOM      2  N   UNL     1      -0.102  -0.014   0.012  0.00  0.00    -0.334 N 
ATOM      3  C   UNL     1      -0.191  -0.790  -1.097  0.00  0.00    +0.096 A 
ATOM      4  C   UNL     1       0.181  -2.081  -0.785  0.00  0.00    +0.006 A 
ATOM      5  C   UNL     1       0.525  -2.073   0.646  0.00  0.00    +0.034 A 
ATOM      6  C   UNL     1       0.335  -0.754   1.089  0.00  0.00    +0.142 A 
ATOM      7  N   UNL     1       0.576  -0.442   2.356  0.00  0.00    -0.237 NA
ATOM      8  C   UNL     1       0.996  -1.336   3.227  0.00  0.00    +0.114 A 
ATOM      9  C   UNL     1       1.211  -2.654   2.870  0.00  0.00    +0.029 A 
ATOM     10  C   UNL     1       0.967  -3.050   1.552  0.00  0.00    -0.005 A 
ENDROOT
BRANCH   4  11
ATOM     11  C   UNL     1       0.225  -3.226  -1.693  0.00  0.00    +0.060 C 
ATOM     12  C   UNL     1       0.195  -3.029  -3.040  0.00  0.00    +0.176 C 
ATOM     13  C   UNL     1       0.226  -4.048  -4.030  0.00  0.00    +0.235 C 
ATOM     14  O   UNL     1       0.284  -5.253  -3.851  0.00  0.00    -0.283 OA
ATOM     15  C   UNL     1       0.172  -3.336  -5.318  0.00  0.00    +0.109 A 
ATOM     16  C   UNL     1       0.170  -3.756  -6.652  0.00  0.00    +0.131 A 
ATOM     17  C   UNL     1       0.111  -2.812  -7.665  0.00  0.00    +0.046 A 
ATOM     18  C   UNL     1       0.054  -1.464  -7.354  0.00  0.00    +0.007 A 
ATOM     19  C   UNL     1       0.056  -1.042  -6.039  0.00  0.00    +0.047 A 
ATOM     20  C   UNL     1       0.114  -1.969  -5.006  0.00  0.00    +0.143 A 
ATOM     21  O   UNL     1       0.124  -1.828  -3.663  0.00  0.00    -0.451 OA
BRANCH  16  22
ATOM     22  O   UNL     1       0.227  -5.078  -6.953  0.00  0.00    -0.506 OA
ATOM     23  H   UNL     1      -0.639  -5.502  -7.026  0.00  0.00    +0.292 HD
ENDBRANCH  16  22
ENDBRANCH   4  11
BRANCH  10  24
ATOM     24  C   UNL     1       1.185  -4.450   1.122  0.00  0.00    -0.017 A 
ATOM     25  C   UNL     1       2.051  -4.727   0.062  0.00  0.00    +0.009 A 
ATOM     26  C   UNL     1       2.254  -6.029  -0.338  0.00  0.00    +0.013 A 
ATOM     27  C   UNL     1       1.594  -7.072   0.316  0.00  0.00    +0.037 A 
ATOM     28  C   UNL     1       0.728  -6.793   1.376  0.00  0.00    +0.013 A 
ATOM     29  C   UNL     1       0.529  -5.492   1.779  0.00  0.00    +0.009 A 
BRANCH  27  30
ATOM     30  C   UNL     1       1.811  -8.468  -0.114  0.00  0.00    +0.244 C 
ATOM     31  O   UNL     1       2.565  -8.710  -1.036  0.00  0.00    -0.270 OA
ATOM     32  N   UNL     1       1.174  -9.475   0.518  0.00  0.00    -0.309 N 
ATOM     33  H   UNL     1       0.573  -9.281   1.254  0.00  0.00    +0.149 HD
BRANCH  32  34
ATOM     34  C   UNL     1       1.390 -10.860   0.092  0.00  0.00    +0.132 C 
BRANCH  34  35
ATOM     35  C   UNL     1       0.555 -11.798   0.966  0.00  0.00    +0.174 C 
BRANCH  35  36
ATOM     36  O   UNL     1      -0.834 -11.546   0.744  0.00  0.00    -0.393 OA
ATOM     37  H   UNL     1      -1.424 -12.106   1.267  0.00  0.00    +0.209 HD
ENDBRANCH  35  36
ENDBRANCH  34  35
ENDBRANCH  32  34
ENDBRANCH  27  30
ENDBRANCH  10  24
TORSDOF 7
