REMARK  Name = CHEMBL511410
REMARK  5 active torsions:
REMARK  status: ('A' for Active; 'I' for Inactive)
REMARK    1  A    between atoms: C_3  and  C_8
REMARK    2  A    between atoms: C_5  and  O_7
REMARK    3  A    between atoms: C_8  and  C_9
REMARK    4  A    between atoms: C_8  and  N_12
REMARK    5  A    between atoms: C_14  and  N_19
REMARK                            x       y       z     vdW  Elec       q    Type
REMARK                         _______ _______ _______ _____ _____    ______ ____
ROOT
ATOM      1  N   UNL     1       3.537   3.353  -0.902  0.00  0.00    -0.264 NA
ATOM      2  C   UNL     1       4.317   3.484  -1.921  0.00  0.00    +0.119 C 
ATOM      3  C   UNL     1       4.507   4.497  -3.030  0.00  0.00    +0.232 C 
ATOM      4  C   UNL     1       5.934   3.999  -3.091  0.00  0.00    +0.234 C 
ATOM      5  O   UNL     1       7.003   4.444  -3.438  0.00  0.00    -0.286 OA
ATOM      6  C   UNL     1       5.434   2.711  -2.525  0.00  0.00    +0.247 C 
ATOM      7  O   UNL     1       5.785   1.551  -2.548  0.00  0.00    -0.282 OA
ENDROOT
BRANCH   3   8
ATOM      8  N   UNL     1       3.727   4.207  -4.236  0.00  0.00    -0.266 NA
ATOM      9  C   UNL     1       2.834   5.078  -4.671  0.00  0.00    +0.062 A 
ATOM     10  C   UNL     1       2.602   6.352  -3.974  0.00  0.00    +0.045 A 
ATOM     11  C   UNL     1       1.504   7.064  -4.301  0.00  0.00    +0.084 A 
ATOM     12  N   UNL     1       0.637   6.609  -5.246  0.00  0.00    -0.367 N 
ATOM     13  C   UNL     1       0.961   5.605  -6.106  0.00  0.00    +0.084 A 
ATOM     14  C   UNL     1       2.034   4.819  -5.878  0.00  0.00    +0.045 A 
ATOM     15  H   UNL     1      -0.242   7.014  -5.309  0.00  0.00    +0.165 HD
ENDBRANCH   3   8
BRANCH   1  16
ATOM     16  C   UNL     1       3.671   2.190  -0.021  0.00  0.00    +0.221 C 
BRANCH  16  19
ATOM     17  C   UNL     1      -0.017   1.377   0.010  0.00  0.00    +0.004 A 
ATOM     18  C   UNL     1       1.171   2.086   0.002  0.00  0.00    +0.006 A 
ATOM     19  C   UNL     1       2.379   1.415  -0.013  0.00  0.00    -0.011 A 
ATOM     20  C   UNL     1       2.403   0.033  -0.021  0.00  0.00    +0.051 A 
ATOM     21  C   UNL     1       1.214  -0.680  -0.013  0.00  0.00    +0.117 A 
ATOM     22  C   UNL     1       0.002  -0.004   0.002  0.00  0.00    +0.045 A 
BRANCH  21  23
ATOM     23  O   UNL     1       1.235  -2.039  -0.021  0.00  0.00    -0.507 OA
ATOM     24  H   UNL     1       1.249  -2.437   0.860  0.00  0.00    +0.292 HD
ENDBRANCH  21  23
ENDBRANCH  16  19
BRANCH  16  25
ATOM     25  C   UNL     1       3.988   2.653   1.378  0.00  0.00    +0.240 C 
ATOM     26  O   UNL     1       4.092   3.837   1.616  0.00  0.00    -0.273 OA
ATOM     27  N   UNL     1       4.157   1.750   2.364  0.00  0.00    -0.327 N 
ATOM     28  H   UNL     1       4.074   0.802   2.174  0.00  0.00    +0.145 HD
ATOM     29  H   UNL     1       4.361   2.048   3.264  0.00  0.00    +0.145 HD
ENDBRANCH  16  25
ENDBRANCH   1  16
TORSDOF 5
