REMARK  Name = CHEMBL392876
REMARK  3 active torsions:
REMARK  status: ('A' for Active; 'I' for Inactive)
REMARK    1  A    between atoms: C_1  and  O_2
REMARK    2  A    between atoms: O_2  and  C_3
REMARK    3  A    between atoms: C_13  and  C_19
REMARK                            x       y       z     vdW  Elec       q    Type
REMARK                         _______ _______ _______ _____ _____    ______ ____
ROOT
ATOM      1  C   UNL     1       0.886  -1.592   0.055  0.00  0.00    +0.121 A 
ATOM      2  C   UNL     1       1.488  -0.599  -0.709  0.00  0.00    +0.047 A 
ATOM      3  C   UNL     1       2.079  -0.868  -1.930  0.00  0.00    +0.030 A 
ATOM      4  C   UNL     1       2.051  -2.187  -2.375  0.00  0.00    +0.047 A 
ATOM      5  C   UNL     1       1.438  -3.205  -1.596  0.00  0.00    +0.007 A 
ATOM      6  C   UNL     1       0.849  -2.914  -0.361  0.00  0.00    +0.056 A 
ATOM      7  C   UNL     1       1.595  -4.419  -2.351  0.00  0.00    -0.019 A 
ATOM      8  C   UNL     1       2.254  -4.115  -3.495  0.00  0.00    +0.017 A 
ATOM      9  N   UNL     1       2.532  -2.776  -3.513  0.00  0.00    -0.359 N 
ATOM     10  H   UNL     1       3.001  -2.314  -4.226  0.00  0.00    +0.166 HD
ATOM     11  C   UNL     1       2.589  -5.145  -4.545  0.00  0.00    +0.095 C 
ATOM     12  N   UNL     1       2.253  -6.489  -4.054  0.00  0.00    +0.393 N 
ATOM     13  C   UNL     1       3.168  -6.896  -2.972  0.00  0.00    -0.077 C 
ATOM     14  C   UNL     1       2.474  -6.573  -1.635  0.00  0.00    -0.012 C 
ATOM     15  C   UNL     1       1.163  -5.842  -2.049  0.00  0.00    +0.003 C 
ATOM     16  C   UNL     1       0.896  -6.466  -3.454  0.00  0.00    -0.069 C 
ATOM     17  H   UNL     1       2.283  -7.152  -4.814  0.00  0.00    -0.080 HD
ENDROOT
BRANCH  11  18
ATOM     18  C   UNL     1       4.062  -5.080  -4.859  0.00  0.00    +0.349 C 
ATOM     19  O   UNL     1       4.734  -6.098  -4.844  0.00  0.00    -0.248 OA
ATOM     20  O   UNL     1       4.581  -4.011  -5.127  0.00  0.00    -0.248 OA
ENDBRANCH  11  18
BRANCH   1  22
ATOM     21  C   UNL     1       0.385   0.117   1.632  0.00  0.00    +0.277 C 
ATOM     22  O   UNL     1       0.322  -1.258   1.247  0.00  0.00    -0.495 OA
ENDBRANCH   1  22
TORSDOF 2
