REMARK  Name = CHEMBL246300
REMARK  4 active torsions:
REMARK  status: ('A' for Active; 'I' for Inactive)
REMARK    1  A    between atoms: C_1  and  C_2
REMARK    2  A    between atoms: C_11  and  C_17
REMARK    3  A    between atoms: C_22  and  C_25
REMARK    4  A    between atoms: N_27  and  C_28
REMARK                            x       y       z     vdW  Elec       q    Type
REMARK                         _______ _______ _______ _____ _____    ______ ____
ROOT
ATOM      1  C   UNL     1      -2.419  -1.148   5.079  0.00  0.00    +0.250 C 
ATOM      2  O   UNL     1      -3.402  -0.784   4.464  0.00  0.00    -0.270 OA
ATOM      3  N   UNL     1      -2.531  -1.527   6.368  0.00  0.00    -0.261 N 
ATOM      4  C   UNL     1      -3.771  -1.504   6.992  0.00  0.00    +0.165 A 
ATOM      5  N   UNL     1      -4.082  -1.827   8.231  0.00  0.00    -0.220 NA
ATOM      6  C   UNL     1      -5.359  -1.721   8.611  0.00  0.00    +0.135 A 
ATOM      7  C   UNL     1      -6.285  -1.285   7.706  0.00  0.00    +0.081 A 
ATOM      8  S   UNL     1      -5.354  -1.019   6.330  0.00  0.00    -0.060 S 
ATOM      9  H   UNL     1      -1.746  -1.817   6.858  0.00  0.00    +0.157 HD
ENDROOT
BRANCH   1  20
ATOM     10  C   UNL     1      -0.019   1.526   0.010  0.00  0.00    +0.014 C 
ATOM     11  C   UNL     1       0.002  -0.004   0.002  0.00  0.00    +0.036 C 
ATOM     12  C   UNL     1       0.730  -0.499  -1.248  0.00  0.00    +0.112 C 
ATOM     13  N   UNL     1       2.172  -0.305  -1.168  0.00  0.00    -0.310 N 
ATOM     14  C   UNL     1       2.867  -0.487  -0.022  0.00  0.00    +0.261 C 
ATOM     15  O   UNL     1       4.083  -0.448  -0.003  0.00  0.00    -0.269 OA
ATOM     16  C   UNL     1       2.085  -0.734   1.203  0.00  0.00    +0.106 A 
ATOM     17  C   UNL     1       0.730  -0.505   1.222  0.00  0.00    -0.006 A 
ATOM     18  C   UNL     1       0.269  -0.820   2.500  0.00  0.00    +0.005 A 
ATOM     19  C   UNL     1      -1.004  -0.776   3.080  0.00  0.00    +0.023 A 
ATOM     20  C   UNL     1      -1.101  -1.173   4.415  0.00  0.00    +0.038 A 
ATOM     21  C   UNL     1       0.021  -1.595   5.140  0.00  0.00    +0.015 A 
ATOM     22  C   UNL     1       1.272  -1.641   4.586  0.00  0.00    +0.027 A 
ATOM     23  C   UNL     1       1.400  -1.250   3.252  0.00  0.00    +0.047 A 
ATOM     24  N   UNL     1       2.489  -1.186   2.435  0.00  0.00    -0.350 N 
ATOM     25  H   UNL     1       3.397  -1.421   2.682  0.00  0.00    +0.166 HD
ATOM     26  H   UNL     1       2.652  -0.035  -1.966  0.00  0.00    +0.149 HD
ENDBRANCH   1  20
BRANCH   6  27
ATOM     27  C   UNL     1      -5.761  -2.070   9.984  0.00  0.00    +0.263 C 
ATOM     28  O   UNL     1      -6.926  -1.971  10.320  0.00  0.00    -0.269 OA
ATOM     29  N   UNL     1      -4.839  -2.500  10.868  0.00  0.00    -0.307 N 
ATOM     30  H   UNL     1      -3.910  -2.579  10.600  0.00  0.00    +0.149 HD
BRANCH  29  31
ATOM     31  C   UNL     1      -5.240  -2.847  12.233  0.00  0.00    +0.073 C 
ATOM     32  C   UNL     1      -5.263  -1.583  13.095  0.00  0.00    +0.022 C 
ATOM     33  C   UNL     1      -5.682  -1.946  14.521  0.00  0.00    +0.002 C 
ATOM     34  C   UNL     1      -4.681  -2.944  15.108  0.00  0.00    +0.000 C 
ATOM     35  C   UNL     1      -4.658  -4.208  14.246  0.00  0.00    +0.002 C 
ATOM     36  C   UNL     1      -4.239  -3.846  12.820  0.00  0.00    +0.022 C 
ENDBRANCH  29  31
ENDBRANCH   6  27
TORSDOF 3
