REMARK  Name = CHEMBL374177
REMARK  3 active torsions:
REMARK  status: ('A' for Active; 'I' for Inactive)
REMARK    1  A    between atoms: C_3  and  O_24
REMARK    2  A    between atoms: C_6  and  C_7
REMARK    3  A    between atoms: C_9  and  C_13
REMARK                            x       y       z     vdW  Elec       q    Type
REMARK                         _______ _______ _______ _____ _____    ______ ____
ROOT
ATOM      1  C   UNL     1      -1.271  -0.764   0.011  0.00  0.00    +0.072 A 
ATOM      2  C   UNL     1      -1.242  -2.155   0.009  0.00  0.00    +0.038 A 
ATOM      3  C   UNL     1      -2.452  -2.855   0.017  0.00  0.00    +0.002 A 
ATOM      4  C   UNL     1      -3.644  -2.119   0.028  0.00  0.00    +0.029 A 
ATOM      5  C   UNL     1      -3.585  -0.742   0.029  0.00  0.00    +0.112 A 
ATOM      6  N   UNL     1      -2.427  -0.111   0.026  0.00  0.00    -0.255 NA
ENDROOT
BRANCH   3   7
ATOM      7  C   UNL     1      -2.473  -4.333   0.015  0.00  0.00    +0.048 A 
ATOM      8  C   UNL     1      -1.377  -5.145   0.011  0.00  0.00    +0.041 A 
ATOM      9  C   UNL     1      -1.851  -6.463   0.010  0.00  0.00    +0.058 A 
ATOM     10  C   UNL     1      -3.241  -6.407   0.013  0.00  0.00    +0.030 A 
ATOM     11  N   UNL     1      -3.603  -5.123   0.023  0.00  0.00    -0.357 N 
ATOM     12  H   UNL     1      -4.516  -4.796   0.032  0.00  0.00    +0.166 HD
ATOM     13  C   UNL     1      -4.070  -7.665   0.007  0.00  0.00    +0.072 C 
ATOM     14  C   UNL     1      -3.285  -8.770  -0.701  0.00  0.00    +0.110 C 
ATOM     15  N   UNL     1      -1.900  -8.854  -0.258  0.00  0.00    -0.311 N 
ATOM     16  C   UNL     1      -1.150  -7.759   0.010  0.00  0.00    +0.246 C 
ATOM     17  O   UNL     1       0.042  -7.841   0.238  0.00  0.00    -0.270 OA
ATOM     18  H   UNL     1      -1.499  -9.731  -0.151  0.00  0.00    +0.149 HD
ENDBRANCH   3   7
BRANCH   1  24
ATOM     19  C   UNL     1      -0.017   1.390   0.010  0.00  0.00    +0.013 A 
ATOM     20  C   UNL     1       1.169   2.094   0.002  0.00  0.00    +0.046 A 
ATOM     21  C   UNL     1       2.380   1.416  -0.013  0.00  0.00    +0.117 A 
ATOM     22  C   UNL     1       2.402   0.028  -0.021  0.00  0.00    +0.046 A 
ATOM     23  C   UNL     1       1.220  -0.682  -0.013  0.00  0.00    +0.013 A 
ATOM     24  C   UNL     1       0.002  -0.004   0.002  0.00  0.00    +0.001 A 
BRANCH  21  25
ATOM     25  O   UNL     1       3.547   2.113  -0.021  0.00  0.00    -0.507 OA
ATOM     26  H   UNL     1       3.893   2.310   0.860  0.00  0.00    +0.292 HD
ENDBRANCH  21  25
ENDBRANCH   1  24
TORSDOF 3
