REMARK  Name = CHEMBL511410
REMARK  5 active torsions:
REMARK  status: ('A' for Active; 'I' for Inactive)
REMARK    1  A    between atoms: C_3  and  C_8
REMARK    2  A    between atoms: C_5  and  O_7
REMARK    3  A    between atoms: C_8  and  C_9
REMARK    4  A    between atoms: C_8  and  N_12
REMARK    5  A    between atoms: C_14  and  N_19
REMARK                            x       y       z     vdW  Elec       q    Type
REMARK                         _______ _______ _______ _____ _____    ______ ____
ROOT
ATOM      1  N   UNL     1       3.554   3.344   0.874  0.00  0.00    -0.264 NA
ATOM      2  C   UNL     1       4.354   3.464   1.880  0.00  0.00    +0.119 C 
ATOM      3  C   UNL     1       5.506   2.674   2.461  0.00  0.00    +0.232 C 
ATOM      4  C   UNL     1       5.978   3.994   3.032  0.00  0.00    +0.234 C 
ATOM      5  O   UNL     1       7.033   4.472   3.374  0.00  0.00    -0.286 OA
ATOM      6  C   UNL     1       4.556   4.444   2.980  0.00  0.00    +0.247 C 
ATOM      7  O   UNL     1       3.872   5.251   3.571  0.00  0.00    -0.282 OA
ENDROOT
BRANCH   3   8
ATOM      8  N   UNL     1       5.103   1.700   3.478  0.00  0.00    -0.266 NA
ATOM      9  C   UNL     1       5.351   0.414   3.296  0.00  0.00    +0.062 A 
ATOM     10  C   UNL     1       6.035  -0.072   2.089  0.00  0.00    +0.045 A 
ATOM     11  C   UNL     1       6.014  -1.397   1.838  0.00  0.00    +0.084 A 
ATOM     12  N   UNL     1       5.371  -2.253   2.677  0.00  0.00    -0.367 N 
ATOM     13  C   UNL     1       4.986  -1.890   3.931  0.00  0.00    +0.084 A 
ATOM     14  C   UNL     1       4.960  -0.591   4.296  0.00  0.00    +0.045 A 
ATOM     15  H   UNL     1       5.180  -3.154   2.371  0.00  0.00    +0.165 HD
ENDBRANCH   3   8
BRANCH   1  16
ATOM     16  C   UNL     1       3.671   2.190  -0.021  0.00  0.00    +0.221 C 
BRANCH  16  19
ATOM     17  C   UNL     1      -0.017   1.377   0.010  0.00  0.00    +0.004 A 
ATOM     18  C   UNL     1       1.171   2.086   0.002  0.00  0.00    +0.006 A 
ATOM     19  C   UNL     1       2.379   1.415  -0.013  0.00  0.00    -0.011 A 
ATOM     20  C   UNL     1       2.403   0.033  -0.021  0.00  0.00    +0.051 A 
ATOM     21  C   UNL     1       1.214  -0.680  -0.013  0.00  0.00    +0.117 A 
ATOM     22  C   UNL     1       0.002  -0.004   0.002  0.00  0.00    +0.045 A 
BRANCH  21  23
ATOM     23  O   UNL     1       1.235  -2.039  -0.021  0.00  0.00    -0.507 OA
ATOM     24  H   UNL     1       1.249  -2.437   0.860  0.00  0.00    +0.292 HD
ENDBRANCH  21  23
ENDBRANCH  16  19
BRANCH  16  25
ATOM     25  C   UNL     1       3.962   2.668  -1.421  0.00  0.00    +0.240 C 
ATOM     26  O   UNL     1       4.061   3.855  -1.648  0.00  0.00    -0.273 OA
ATOM     27  N   UNL     1       4.111   1.775  -2.420  0.00  0.00    -0.327 N 
ATOM     28  H   UNL     1       4.032   0.826  -2.238  0.00  0.00    +0.145 HD
ATOM     29  H   UNL     1       4.298   2.083  -3.321  0.00  0.00    +0.145 HD
ENDBRANCH  16  25
ENDBRANCH   1  16
TORSDOF 5
