REMARK  Name = CHEMBL467532
REMARK  6 active torsions:
REMARK  status: ('A' for Active; 'I' for Inactive)
REMARK    1  A    between atoms: C_1  and  C_2
REMARK    2  A    between atoms: C_2  and  C_3
REMARK    3  A    between atoms: C_2  and  N_10
REMARK    4  A    between atoms: C_7  and  O_9
REMARK    5  A    between atoms: C_12  and  N_17
REMARK    6  A    between atoms: N_17  and  C_18
REMARK                            x       y       z     vdW  Elec       q    Type
REMARK                         _______ _______ _______ _____ _____    ______ ____
ROOT
ATOM      1  N   UNL     1       0.711  -0.489   1.189  0.00  0.00    -0.274 NA
ATOM      2  C   UNL     1       0.102  -1.244   2.040  0.00  0.00    +0.114 C 
ATOM      3  C   UNL     1      -1.282  -1.843   2.178  0.00  0.00    +0.198 C 
ATOM      4  C   UNL     1      -0.614  -2.919   3.006  0.00  0.00    +0.230 C 
ATOM      5  O   UNL     1      -0.837  -4.072   3.286  0.00  0.00    -0.286 OA
ATOM      6  C   UNL     1       0.449  -1.919   3.319  0.00  0.00    +0.246 C 
ATOM      7  O   UNL     1       1.244  -1.738   4.217  0.00  0.00    -0.282 OA
ENDROOT
BRANCH   1   9
ATOM      8  C   UNL     1      -0.019   1.526   0.010  0.00  0.00    +0.038 C 
ATOM      9  C   UNL     1       0.002  -0.004   0.002  0.00  0.00    +0.133 C 
BRANCH   9  10
ATOM     10  C   UNL     1       0.707  -0.490  -1.238  0.00  0.00    -0.020 A 
ATOM     11  C   UNL     1       2.089  -0.510  -1.283  0.00  0.00    +0.006 A 
ATOM     12  C   UNL     1       2.740  -0.956  -2.419  0.00  0.00    +0.004 A 
ATOM     13  C   UNL     1       2.010  -1.381  -3.512  0.00  0.00    +0.045 A 
ATOM     14  C   UNL     1       0.623  -1.362  -3.469  0.00  0.00    +0.117 A 
ATOM     15  C   UNL     1      -0.027  -0.920  -2.326  0.00  0.00    +0.051 A 
BRANCH  14  16
ATOM     16  O   UNL     1      -0.097  -1.780  -4.543  0.00  0.00    -0.507 OA
ATOM     17  H   UNL     1      -0.307  -2.723  -4.533  0.00  0.00    +0.292 HD
ENDBRANCH  14  16
ENDBRANCH   9  10
ENDBRANCH   1   9
BRANCH   3  18
ATOM     18  N   UNL     1      -2.215  -1.006   2.936  0.00  0.00    -0.329 N 
ATOM     19  H   UNL     1      -1.878  -0.370   3.586  0.00  0.00    +0.147 HD
BRANCH  18  20
ATOM     20  C   UNL     1      -3.586  -1.125   2.725  0.00  0.00    +0.031 A 
ATOM     21  C   UNL     1      -4.090  -2.038   1.799  0.00  0.00    +0.040 A 
ATOM     22  C   UNL     1      -5.455  -2.125   1.620  0.00  0.00    +0.084 A 
ATOM     23  N   UNL     1      -6.278  -1.359   2.310  0.00  0.00    -0.367 N 
ATOM     24  C   UNL     1      -5.840  -0.483   3.194  0.00  0.00    +0.084 A 
ATOM     25  C   UNL     1      -4.490  -0.338   3.437  0.00  0.00    +0.040 A 
ATOM     26  H   UNL     1      -7.234  -1.442   2.163  0.00  0.00    +0.165 HD
ENDBRANCH  18  20
ENDBRANCH   3  18
TORSDOF 5
