REMARK  Name = CHEMBL361425
REMARK  3 active torsions:
REMARK  status: ('A' for Active; 'I' for Inactive)
REMARK    1  A    between atoms: C_6  and  O_7
REMARK    2  A    between atoms: C_12  and  C_17
REMARK    3  A    between atoms: C_13  and  N_16
REMARK                            x       y       z     vdW  Elec       q    Type
REMARK                         _______ _______ _______ _____ _____    ______ ____
ROOT
ATOM      1  C   UNL     1      -0.017   1.383   0.010  0.00  0.00    +0.046 A 
ATOM      2  C   UNL     1       1.170   2.088   0.002  0.00  0.00    +0.011 A 
ATOM      3  C   UNL     1       2.383   1.420  -0.011  0.00  0.00    -0.005 A 
ATOM      4  C   UNL     1       2.407   0.035  -0.012  0.00  0.00    +0.128 A 
ATOM      5  C   UNL     1       1.213  -0.676  -0.010  0.00  0.00    +0.091 A 
ATOM      6  C   UNL     1       0.002  -0.004   0.002  0.00  0.00    +0.120 A 
ATOM      7  O   UNL     1       3.575  -0.656  -0.004  0.00  0.00    -0.487 OA
ATOM      8  C   UNL     1       4.778   0.027  -0.327  0.00  0.00    +0.188 C 
ATOM      9  C   UNL     1       4.877   0.284  -1.833  0.00  0.00    +0.101 C 
ATOM     10  C   UNL     1       6.249   0.875  -2.093  0.00  0.00    +0.055 C 
ATOM     11  C   UNL     1       6.766   1.861  -1.128  0.00  0.00    +0.089 C 
ATOM     12  C   UNL     1       6.113   2.085   0.057  0.00  0.00    +0.028 C 
ATOM     13  C   UNL     1       4.840   1.363   0.417  0.00  0.00    +0.079 C 
ATOM     14  C   UNL     1       3.654   2.227  -0.030  0.00  0.00    +0.052 C 
ATOM     15  N   UNL     1       6.945   0.524  -3.131  0.00  0.00    -0.303 NA
ATOM     16  H   UNL     1       7.821   0.912  -3.281  0.00  0.00    +0.186 HD
ENDROOT
BRANCH  12  17
ATOM     17  N   UNL     1       6.630   2.987   0.934  0.00  0.00    -0.360 N 
ATOM     18  H   UNL     1       7.449   3.460   0.717  0.00  0.00    +0.142 HD
ATOM     19  H   UNL     1       6.180   3.157   1.777  0.00  0.00    +0.142 HD
ENDBRANCH  12  17
BRANCH   6  20
ATOM     20  O   UNL     1      -1.164  -0.701   0.007  0.00  0.00    -0.507 OA
ATOM     21  H   UNL     1      -1.509  -0.898  -0.875  0.00  0.00    +0.292 HD
ENDBRANCH   6  20
BRANCH  11  22
ATOM     22  C   UNL     1       7.960   2.590  -1.430  0.00  0.00    +0.102 C 
ATOM     23  N   UNL     1       8.908   3.169  -1.669  0.00  0.00    -0.191 NA
ENDBRANCH  11  22
TORSDOF 3
