REMARK  Name = CHEMBL178413
REMARK  4 active torsions:
REMARK  status: ('A' for Active; 'I' for Inactive)
REMARK    1  A    between atoms: C_5  and  C_8
REMARK    2  A    between atoms: C_6  and  O_7
REMARK    3  A    between atoms: C_18  and  C_23
REMARK    4  A    between atoms: C_19  and  N_22
REMARK                            x       y       z     vdW  Elec       q    Type
REMARK                         _______ _______ _______ _____ _____    ______ ____
ROOT
ATOM      1  C   UNL     1      -0.017   1.381   0.010  0.00  0.00    +0.053 A 
ATOM      2  C   UNL     1       1.170   2.095   0.002  0.00  0.00    -0.002 A 
ATOM      3  C   UNL     1       2.379   1.424  -0.008  0.00  0.00    +0.125 A 
ATOM      4  C   UNL     1       2.397   0.033  -0.018  0.00  0.00    +0.055 A 
ATOM      5  C   UNL     1       1.214  -0.678  -0.014  0.00  0.00    +0.028 A 
ATOM      6  C   UNL     1       0.002  -0.004   0.002  0.00  0.00    +0.123 A 
ATOM      7  O   UNL     1       3.565   2.086   0.003  0.00  0.00    -0.488 OA
ATOM      8  C   UNL     1       3.576   3.469  -0.363  0.00  0.00    +0.188 C 
ATOM      9  C   UNL     1       4.923   4.069   0.079  0.00  0.00    +0.101 C 
ATOM     10  C   UNL     1       5.093   3.747   1.550  0.00  0.00    +0.055 C 
ATOM     11  C   UNL     1       3.918   3.885   2.427  0.00  0.00    +0.089 C 
ATOM     12  C   UNL     1       2.672   4.084   1.881  0.00  0.00    +0.028 C 
ATOM     13  C   UNL     1       2.460   4.184   0.402  0.00  0.00    +0.079 C 
ATOM     14  C   UNL     1       1.110   3.601  -0.000  0.00  0.00    +0.052 C 
ATOM     15  N   UNL     1       6.238   3.361   2.021  0.00  0.00    -0.303 NA
ATOM     16  H   UNL     1       7.002   3.275   1.430  0.00  0.00    +0.186 HD
ENDROOT
BRANCH   5  17
ATOM     17  C   UNL     1       1.240  -2.185  -0.025  0.00  0.00    +0.177 C 
ATOM     18  C   UNL     1       1.143  -2.709   1.411  0.00  0.00    +0.196 C 
ATOM     19  O   UNL     1       1.280  -4.133   1.400  0.00  0.00    -0.375 OA
ATOM     20  C   UNL     1       2.506  -4.586   0.817  0.00  0.00    +0.188 C 
ATOM     21  C   UNL     1       2.602  -4.062  -0.619  0.00  0.00    +0.188 C 
ATOM     22  O   UNL     1       2.465  -2.638  -0.609  0.00  0.00    -0.367 OA
ENDBRANCH   5  17
BRANCH  12  23
ATOM     23  N   UNL     1       1.600   4.193   2.710  0.00  0.00    -0.360 N 
ATOM     24  H   UNL     1       1.720   4.130   3.670  0.00  0.00    +0.142 HD
ATOM     25  H   UNL     1       0.714   4.333   2.340  0.00  0.00    +0.142 HD
ENDBRANCH  12  23
BRANCH   6  26
ATOM     26  O   UNL     1      -1.165  -0.702   0.009  0.00  0.00    -0.506 OA
ATOM     27  H   UNL     1      -1.511  -0.898  -0.873  0.00  0.00    +0.292 HD
ENDBRANCH   6  26
BRANCH  11  28
ATOM     28  C   UNL     1       4.074   3.812   3.849  0.00  0.00    +0.102 C 
ATOM     29  N   UNL     1       4.197   3.755   4.976  0.00  0.00    -0.191 NA
ENDBRANCH  11  28
TORSDOF 4
