REMARK  Name = CHEMBL590834
REMARK  2 active torsions:
REMARK  status: ('A' for Active; 'I' for Inactive)
REMARK    1  A    between atoms: C_6  and  C_11
REMARK    2  A    between atoms: C_14  and  N_21
REMARK                            x       y       z     vdW  Elec       q    Type
REMARK                         _______ _______ _______ _____ _____    ______ ____
ROOT
ATOM      1  C   UNL     1       5.516  -2.673   0.185  0.00  0.00    +0.100 A 
ATOM      2  C   UNL     1       5.670  -3.958   0.876  0.00  0.00    +0.029 A 
ATOM      3  C   UNL     1       4.776  -4.845   1.481  0.00  0.00    +0.035 A 
ATOM      4  C   UNL     1       5.255  -6.003   2.062  0.00  0.00    +0.033 A 
ATOM      5  C   UNL     1       6.621  -6.285   2.045  0.00  0.00    +0.025 A 
ATOM      6  C   UNL     1       7.504  -5.426   1.458  0.00  0.00    +0.029 A 
ATOM      7  C   UNL     1       7.045  -4.251   0.865  0.00  0.00    +0.066 A 
ATOM      8  N   UNL     1       7.668  -3.215   0.213  0.00  0.00    -0.276 N 
ATOM      9  H   UNL     1       8.622  -3.145   0.053  0.00  0.00    +0.189 HD
ATOM     10  N   UNL     1       6.709  -2.280  -0.190  0.00  0.00    -0.173 NA
ENDROOT
BRANCH   4  11
ATOM     11  N   UNL     1       4.366  -6.898   2.669  0.00  0.00    -0.299 N 
ATOM     12  C   UNL     1       4.585  -8.263   2.577  0.00  0.00    +0.128 A 
ATOM     13  C   UNL     1       3.778  -9.160   3.281  0.00  0.00    +0.061 A 
ATOM     14  C   UNL     1       4.033 -10.512   3.158  0.00  0.00    +0.089 A 
ATOM     15  N   UNL     1       5.029 -10.916   2.383  0.00  0.00    -0.334 N 
ATOM     16  C   UNL     1       5.778 -10.043   1.726  0.00  0.00    +0.192 A 
ATOM     17  N   UNL     1       5.564  -8.739   1.813  0.00  0.00    -0.201 NA
ATOM     18  N   UNL     1       6.809 -10.506   0.926  0.00  0.00    -0.329 N 
ATOM     19  H   UNL     1       3.597  -6.562   3.155  0.00  0.00    +0.154 HD
ATOM     20  H   UNL     1       6.974 -11.459   0.851  0.00  0.00    +0.145 HD
ATOM     21  H   UNL     1       7.365  -9.877   0.440  0.00  0.00    +0.145 HD
ATOM     22  H   UNL     1       5.211 -11.865   2.294  0.00  0.00    +0.168 HD
ENDBRANCH   4  11
BRANCH   1  28
ATOM     23  C   UNL     1       0.602   1.402  -0.703  0.00  0.00    +0.001 A 
ATOM     24  C   UNL     1       1.762   2.134  -0.458  0.00  0.00    +0.001 A 
ATOM     25  C   UNL     1       2.950   1.510  -0.236  0.00  0.00    +0.008 A 
ATOM     26  C   UNL     1       3.012   0.105  -0.253  0.00  0.00    -0.017 A 
ATOM     27  C   UNL     1       4.221  -0.571  -0.028  0.00  0.00    +0.018 A 
ATOM     28  C   UNL     1       4.242  -1.954  -0.052  0.00  0.00    +0.003 A 
ATOM     29  C   UNL     1       3.066  -2.682  -0.300  0.00  0.00    +0.011 A 
ATOM     30  C   UNL     1       1.887  -2.046  -0.521  0.00  0.00    +0.009 A 
ATOM     31  C   UNL     1       1.832  -0.640  -0.502  0.00  0.00    -0.018 A 
ATOM     32  C   UNL     1       0.624   0.041  -0.727  0.00  0.00    +0.008 A 
ENDBRANCH   1  28
TORSDOF 2
