REMARK  Name = CHEMBL442419
REMARK  4 active torsions:
REMARK  status: ('A' for Active; 'I' for Inactive)
REMARK    1  A    between atoms: C_1  and  C_2
REMARK    2  A    between atoms: C_11  and  C_17
REMARK    3  A    between atoms: N_19  and  C_20
REMARK    4  A    between atoms: C_23  and  C_26
REMARK                            x       y       z     vdW  Elec       q    Type
REMARK                         _______ _______ _______ _____ _____    ______ ____
ROOT
ATOM      1  C   UNL     1      -0.005   1.525   0.015  0.00  0.00    +0.014 C 
ATOM      2  C   UNL     1       0.003  -0.005   0.002  0.00  0.00    +0.036 C 
ATOM      3  C   UNL     1       0.725  -0.502  -1.251  0.00  0.00    +0.112 C 
ATOM      4  N   UNL     1       2.169  -0.320  -1.172  0.00  0.00    -0.310 N 
ATOM      5  C   UNL     1       2.864  -0.511  -0.028  0.00  0.00    +0.261 C 
ATOM      6  O   UNL     1       4.080  -0.482  -0.011  0.00  0.00    -0.269 OA
ATOM      7  C   UNL     1       2.083  -0.755   1.198  0.00  0.00    +0.106 A 
ATOM      8  C   UNL     1       0.730  -0.516   1.219  0.00  0.00    -0.006 A 
ATOM      9  C   UNL     1       0.268  -0.831   2.497  0.00  0.00    +0.005 A 
ATOM     10  C   UNL     1      -1.004  -0.780   3.079  0.00  0.00    +0.023 A 
ATOM     11  C   UNL     1      -1.101  -1.181   4.413  0.00  0.00    +0.038 A 
ATOM     12  C   UNL     1       0.017  -1.613   5.135  0.00  0.00    +0.015 A 
ATOM     13  C   UNL     1       1.267  -1.669   4.579  0.00  0.00    +0.027 A 
ATOM     14  C   UNL     1       1.396  -1.273   3.246  0.00  0.00    +0.047 A 
ATOM     15  N   UNL     1       2.485  -1.215   2.426  0.00  0.00    -0.350 N 
ATOM     16  H   UNL     1       3.391  -1.459   2.671  0.00  0.00    +0.166 HD
ATOM     17  H   UNL     1       2.649  -0.051  -1.971  0.00  0.00    +0.149 HD
ENDROOT
BRANCH  11  18
ATOM     18  C   UNL     1      -2.418  -1.147   5.080  0.00  0.00    +0.248 C 
ATOM     19  O   UNL     1      -3.400  -0.774   4.468  0.00  0.00    -0.270 OA
ATOM     20  N   UNL     1      -2.532  -1.530   6.367  0.00  0.00    -0.282 N 
ATOM     21  H   UNL     1      -1.763  -1.891   6.835  0.00  0.00    +0.155 HD
BRANCH  20  22
ATOM     22  C   UNL     1      -3.754  -1.409   7.025  0.00  0.00    +0.034 A 
ATOM     23  C   UNL     1      -3.785  -1.076   8.376  0.00  0.00    +0.024 A 
ATOM     24  C   UNL     1      -4.991  -0.954   9.028  0.00  0.00    +0.015 A 
ATOM     25  C   UNL     1      -6.185  -1.165   8.333  0.00  0.00    +0.037 A 
ATOM     26  C   UNL     1      -6.150  -1.499   6.976  0.00  0.00    +0.015 A 
ATOM     27  C   UNL     1      -4.941  -1.614   6.328  0.00  0.00    +0.024 A 
BRANCH  25  28
ATOM     28  C   UNL     1      -7.479  -1.036   9.030  0.00  0.00    +0.242 C 
ATOM     29  O   UNL     1      -7.508  -0.746  10.210  0.00  0.00    -0.270 OA
ATOM     30  N   UNL     1      -8.630  -1.240   8.358  0.00  0.00    -0.325 N 
ATOM     31  H   UNL     1      -8.607  -1.471   7.416  0.00  0.00    +0.145 HD
ATOM     32  H   UNL     1      -9.481  -1.155   8.816  0.00  0.00    +0.145 HD
ENDBRANCH  25  28
ENDBRANCH  20  22
ENDBRANCH  11  18
TORSDOF 3
