REMARK  Name = CHEMBL181212
REMARK  4 active torsions:
REMARK  status: ('A' for Active; 'I' for Inactive)
REMARK    1  A    between atoms: C_5  and  O_8
REMARK    2  A    between atoms: C_6  and  O_7
REMARK    3  A    between atoms: C_13  and  C_18
REMARK    4  A    between atoms: C_14  and  N_17
REMARK                            x       y       z     vdW  Elec       q    Type
REMARK                         _______ _______ _______ _____ _____    ______ ____
ROOT
ATOM      1  C   UNL     1      -0.017   1.379   0.010  0.00  0.00    +0.056 A 
ATOM      2  C   UNL     1       1.170   2.096   0.002  0.00  0.00    -0.001 A 
ATOM      3  C   UNL     1       2.380   1.426  -0.007  0.00  0.00    +0.128 A 
ATOM      4  C   UNL     1       2.402   0.035  -0.019  0.00  0.00    +0.095 A 
ATOM      5  C   UNL     1       1.218  -0.680  -0.014  0.00  0.00    +0.162 A 
ATOM      6  C   UNL     1       0.002  -0.004   0.002  0.00  0.00    +0.159 A 
ATOM      7  O   UNL     1       3.563   2.094   0.006  0.00  0.00    -0.487 OA
ATOM      8  C   UNL     1       3.569   3.477  -0.317  0.00  0.00    +0.188 C 
ATOM      9  C   UNL     1       3.378   3.690  -1.821  0.00  0.00    +0.101 C 
ATOM     10  C   UNL     1       3.546   5.174  -2.083  0.00  0.00    +0.055 C 
ATOM     11  C   UNL     1       2.963   6.113  -1.111  0.00  0.00    +0.089 C 
ATOM     12  C   UNL     1       2.455   5.660   0.080  0.00  0.00    +0.028 C 
ATOM     13  C   UNL     1       2.447   4.196   0.438  0.00  0.00    +0.079 C 
ATOM     14  C   UNL     1       1.105   3.601  -0.002  0.00  0.00    +0.052 C 
ATOM     15  N   UNL     1       4.184   5.601  -3.130  0.00  0.00    -0.303 NA
ATOM     16  H   UNL     1       4.282   6.554  -3.282  0.00  0.00    +0.186 HD
ENDROOT
BRANCH  12  17
ATOM     17  N   UNL     1       1.944   6.557   0.964  0.00  0.00    -0.360 N 
ATOM     18  H   UNL     1       1.942   7.503   0.748  0.00  0.00    +0.142 HD
ATOM     19  H   UNL     1       1.581   6.252   1.810  0.00  0.00    +0.142 HD
ENDBRANCH  12  17
BRANCH   6  20
ATOM     20  O   UNL     1      -1.166  -0.702   0.011  0.00  0.00    -0.503 OA
ATOM     21  H   UNL     1      -1.513  -0.899  -0.870  0.00  0.00    +0.292 HD
ENDBRANCH   6  20
BRANCH   5  22
ATOM     22  O   UNL     1       1.243  -2.040  -0.026  0.00  0.00    -0.503 OA
ATOM     23  H   UNL     1       1.258  -2.441   0.854  0.00  0.00    +0.292 HD
ENDBRANCH   5  22
BRANCH  11  24
ATOM     24  C   UNL     1       2.925   7.513  -1.411  0.00  0.00    +0.102 C 
ATOM     25  N   UNL     1       2.896   8.623  -1.649  0.00  0.00    -0.191 NA
ENDBRANCH  11  24
TORSDOF 4
