REMARK  Name = CHEMBL397642
REMARK  6 active torsions:
REMARK  status: ('A' for Active; 'I' for Inactive)
REMARK    1  A    between atoms: C_1  and  C_2
REMARK    2  A    between atoms: C_11  and  C_17
REMARK    3  A    between atoms: C_22  and  C_25
REMARK    4  A    between atoms: C_30  and  N_33
REMARK    5  A    between atoms: N_33  and  C_34
REMARK    6  A    between atoms: N_33  and  C_35
REMARK                            x       y       z     vdW  Elec       q    Type
REMARK                         _______ _______ _______ _____ _____    ______ ____
ROOT
ATOM      1  C   UNL     1      -2.625  -1.813   4.867  0.00  0.00    +0.250 C 
ATOM      2  O   UNL     1      -3.520  -1.183   4.338  0.00  0.00    -0.270 OA
ATOM      3  N   UNL     1      -2.747  -2.209   6.150  0.00  0.00    -0.261 N 
ATOM      4  C   UNL     1      -3.894  -1.897   6.867  0.00  0.00    +0.165 A 
ATOM      5  N   UNL     1      -4.196  -2.186   8.116  0.00  0.00    -0.220 NA
ATOM      6  C   UNL     1      -5.374  -1.774   8.595  0.00  0.00    +0.135 A 
ATOM      7  C   UNL     1      -6.213  -1.075   7.774  0.00  0.00    +0.081 A 
ATOM      8  S   UNL     1      -5.339  -0.994   6.339  0.00  0.00    -0.060 S 
ATOM      9  H   UNL     1      -2.033  -2.712   6.572  0.00  0.00    +0.157 HD
ENDROOT
BRANCH   1  20
ATOM     10  C   UNL     1       0.044   0.384  -0.295  0.00  0.00    +0.014 C 
ATOM     11  C   UNL     1      -0.332  -1.098  -0.346  0.00  0.00    +0.036 C 
ATOM     12  C   UNL     1       0.159  -1.706  -1.660  0.00  0.00    +0.112 C 
ATOM     13  N   UNL     1       1.604  -1.891  -1.683  0.00  0.00    -0.310 N 
ATOM     14  C   UNL     1       2.303  -2.296  -0.598  0.00  0.00    +0.261 C 
ATOM     15  O   UNL     1       3.486  -2.571  -0.670  0.00  0.00    -0.269 OA
ATOM     16  C   UNL     1       1.567  -2.390   0.675  0.00  0.00    +0.106 A 
ATOM     17  C   UNL     1       0.321  -1.824   0.802  0.00  0.00    -0.006 A 
ATOM     18  C   UNL     1      -0.120  -2.067   2.102  0.00  0.00    +0.005 A 
ATOM     19  C   UNL     1      -1.298  -1.726   2.778  0.00  0.00    +0.023 A 
ATOM     20  C   UNL     1      -1.405  -2.145   4.105  0.00  0.00    +0.038 A 
ATOM     21  C   UNL     1      -0.386  -2.871   4.732  0.00  0.00    +0.015 A 
ATOM     22  C   UNL     1       0.771  -3.212   4.085  0.00  0.00    +0.027 A 
ATOM     23  C   UNL     1       0.908  -2.806   2.755  0.00  0.00    +0.047 A 
ATOM     24  N   UNL     1       1.920  -2.986   1.860  0.00  0.00    -0.350 N 
ATOM     25  H   UNL     1       2.751  -3.457   2.031  0.00  0.00    +0.166 HD
ATOM     26  H   UNL     1       2.084  -1.717  -2.509  0.00  0.00    +0.149 HD
ENDBRANCH   1  20
BRANCH   6  27
ATOM     27  C   UNL     1      -5.761  -2.070   9.984  0.00  0.00    +0.266 C 
ATOM     28  O   UNL     1      -6.895  -1.842  10.361  0.00  0.00    -0.268 OA
ATOM     29  N   UNL     1      -4.860  -2.595  10.838  0.00  0.00    -0.296 N 
ATOM     30  C   UNL     1      -5.271  -3.055  12.171  0.00  0.00    +0.106 C 
ATOM     31  C   UNL     1      -4.388  -2.375  13.221  0.00  0.00    +0.004 C 
ATOM     32  C   UNL     1      -2.916  -2.638  12.892  0.00  0.00    -0.066 C 
ATOM     33  C   UNL     1      -2.584  -2.042  11.522  0.00  0.00    +0.004 C 
ATOM     34  C   UNL     1      -3.449  -2.723  10.450  0.00  0.00    +0.106 C 
BRANCH  32  35
ATOM     35  N   UNL     1      -2.067  -2.016  13.916  0.00  0.00    +0.378 N 
ATOM     36  C   UNL     1      -2.384  -2.589  15.230  0.00  0.00    -0.096 C 
ATOM     37  C   UNL     1      -0.654  -2.268  13.600  0.00  0.00    -0.096 C 
ATOM     38  H   UNL     1      -2.235  -1.021  13.933  0.00  0.00    -0.082 HD
ENDBRANCH  32  35
ENDBRANCH   6  27
TORSDOF 3
