REMARK  Name = CHEMBL571897
REMARK  2 active torsions:
REMARK  status: ('A' for Active; 'I' for Inactive)
REMARK    1  A    between atoms: C_1  and  O_2
REMARK    2  A    between atoms: O_2  and  C_3
REMARK                            x       y       z     vdW  Elec       q    Type
REMARK                         _______ _______ _______ _____ _____    ______ ____
ROOT
ATOM      1  C   UNL     1      -1.201  -0.638   0.010  0.00  0.00    +0.121 A 
ATOM      2  C   UNL     1      -2.371   0.120   0.020  0.00  0.00    +0.047 A 
ATOM      3  C   UNL     1      -3.594  -0.520   0.026  0.00  0.00    +0.019 A 
ATOM      4  C   UNL     1      -3.643  -1.897   0.024  0.00  0.00    +0.021 A 
ATOM      5  C   UNL     1      -2.479  -2.698   0.017  0.00  0.00    -0.003 A 
ATOM      6  C   UNL     1      -1.238  -2.009   0.003  0.00  0.00    +0.055 A 
ATOM      7  C   UNL     1      -2.677  -4.106   0.018  0.00  0.00    -0.020 A 
ATOM      8  C   UNL     1      -3.964  -4.546   0.001  0.00  0.00    +0.078 A 
ATOM      9  S   UNL     1      -4.962  -3.089   0.026  0.00  0.00    -0.083 S 
ATOM     10  C   UNL     1      -4.362  -5.958  -0.057  0.00  0.00    +0.251 C 
ATOM     11  O   UNL     1      -5.230  -6.360  -0.808  0.00  0.00    -0.270 OA
ATOM     12  N   UNL     1      -3.692  -6.783   0.788  0.00  0.00    -0.311 N 
ATOM     13  C   UNL     1      -2.892  -6.194   1.847  0.00  0.00    +0.105 C 
ATOM     14  C   UNL     1      -1.479  -5.804   1.415  0.00  0.00    +0.023 C 
ATOM     15  C   UNL     1      -1.521  -5.088   0.065  0.00  0.00    +0.038 C 
ATOM     16  H   UNL     1      -3.748  -7.747   0.687  0.00  0.00    +0.149 HD
ENDROOT
BRANCH   1  18
ATOM     17  C   UNL     1      -0.017   1.425   0.010  0.00  0.00    +0.277 C 
ATOM     18  O   UNL     1       0.002  -0.004   0.002  0.00  0.00    -0.495 OA
ENDBRANCH   1  18
TORSDOF 1
