REMARK  Name = CHEMBL1208950
REMARK  5 active torsions:
REMARK  status: ('A' for Active; 'I' for Inactive)
REMARK    1  A    between atoms: C_1  and  N_2
REMARK    2  A    between atoms: N_5  and  C_8
REMARK    3  A    between atoms: C_11  and  N_14
REMARK    4  A    between atoms: N_14  and  C_15
REMARK    5  A    between atoms: C_22  and  C_25
REMARK                            x       y       z     vdW  Elec       q    Type
REMARK                         _______ _______ _______ _____ _____    ______ ____
ROOT
ATOM      1  C   UNL     1      -1.526  -7.401   4.898  0.00  0.00    +0.042 A 
ATOM      2  C   UNL     1      -0.317  -6.811   5.234  0.00  0.00    +0.041 A 
ATOM      3  C   UNL     1       0.450  -7.351   6.256  0.00  0.00    +0.085 A 
ATOM      4  N   UNL     1       0.066  -8.414   6.924  0.00  0.00    -0.361 N 
ATOM      5  C   UNL     1      -1.087  -9.036   6.655  0.00  0.00    +0.048 A 
ATOM      6  C   UNL     1      -1.932  -8.543   5.631  0.00  0.00    +0.020 A 
ATOM      7  C   UNL     1      -3.141  -9.191   5.354  0.00  0.00    +0.020 A 
ATOM      8  C   UNL     1      -3.501 -10.305   6.092  0.00  0.00    -0.017 A 
ATOM      9  C   UNL     1      -2.662 -10.783   7.111  0.00  0.00    +0.010 A 
ATOM     10  C   UNL     1      -1.478 -10.174   7.383  0.00  0.00    +0.027 A 
ATOM     11  H   UNL     1       0.634  -8.758   7.631  0.00  0.00    +0.165 HD
ENDROOT
BRANCH   8  12
ATOM     12  C   UNL     1      -4.781 -10.998   5.806  0.00  0.00    -0.018 A 
ATOM     13  C   UNL     1      -5.616 -10.532   4.792  0.00  0.00    +0.009 A 
ATOM     14  C   UNL     1      -6.806 -11.180   4.530  0.00  0.00    +0.016 A 
ATOM     15  C   UNL     1      -7.170 -12.291   5.271  0.00  0.00    +0.018 A 
ATOM     16  C   UNL     1      -6.343 -12.758   6.279  0.00  0.00    +0.016 A 
ATOM     17  C   UNL     1      -5.149 -12.120   6.546  0.00  0.00    +0.009 A 
ATOM     18 BR   UNL     1      -8.802 -13.174   4.906  0.00  0.00    -0.050 Br
ENDBRANCH   8  12
BRANCH   1  19
ATOM     19  N   UNL     1      -2.316  -6.886   3.882  0.00  0.00    -0.314 N 
ATOM     20  H   UNL     1      -3.205  -7.241   3.731  0.00  0.00    +0.152 HD
BRANCH  19  24
ATOM     21  C   UNL     1      -0.866  -3.806   1.474  0.00  0.00    +0.030 A 
ATOM     22  C   UNL     1      -2.191  -3.797   1.891  0.00  0.00    +0.025 A 
ATOM     23  C   UNL     1      -2.671  -4.816   2.688  0.00  0.00    +0.025 A 
ATOM     24  C   UNL     1      -1.829  -5.852   3.073  0.00  0.00    +0.031 A 
ATOM     25  C   UNL     1      -0.504  -5.861   2.657  0.00  0.00    +0.025 A 
ATOM     26  C   UNL     1      -0.025  -4.844   1.855  0.00  0.00    +0.025 A 
BRANCH  21  31
ATOM     27  C   UNL     1       1.220   1.068   0.108  0.00  0.00    +0.105 C 
ATOM     28  N   UNL     1       0.683  -0.292  -0.032  0.00  0.00    -0.302 NA
ATOM     29  C   UNL     1      -0.701  -0.365   0.458  0.00  0.00    +0.103 C 
ATOM     30  C   UNL     1      -1.283  -1.744   0.130  0.00  0.00    +0.120 C 
ATOM     31  N   UNL     1      -0.379  -2.772   0.666  0.00  0.00    -0.327 N 
ATOM     32  C   UNL     1       1.051  -2.686   0.330  0.00  0.00    +0.120 C 
ATOM     33  C   UNL     1       1.541  -1.270   0.650  0.00  0.00    +0.103 C 
ENDBRANCH  21  31
ENDBRANCH  19  24
ENDBRANCH   1  19
TORSDOF 4
