REMARK  Name = CHEMBL469124
REMARK  5 active torsions:
REMARK  status: ('A' for Active; 'I' for Inactive)
REMARK    1  A    between atoms: C_1  and  C_2
REMARK    2  A    between atoms: C_2  and  C_4
REMARK    3  A    between atoms: C_2  and  N_10
REMARK    4  A    between atoms: C_12  and  N_17
REMARK    5  A    between atoms: C_22  and  N_24
REMARK                            x       y       z     vdW  Elec       q    Type
REMARK                         _______ _______ _______ _____ _____    ______ ____
ROOT
ATOM      1  N   UNL     1       2.224  -3.122  -0.555  0.00  0.00    -0.266 NA
ATOM      2  C   UNL     1       1.690  -3.286  -1.756  0.00  0.00    +0.064 A 
ATOM      3  C   UNL     1       1.625  -2.172  -2.711  0.00  0.00    +0.045 A 
ATOM      4  C   UNL     1       1.075  -2.385  -3.920  0.00  0.00    +0.086 A 
ATOM      5  N   UNL     1       0.585  -3.612  -4.257  0.00  0.00    -0.349 N 
ATOM      6  C   UNL     1       0.629  -4.669  -3.396  0.00  0.00    +0.103 A 
ATOM      7  C   UNL     1       1.172  -4.543  -2.157  0.00  0.00    +0.069 A 
ATOM      8  H   UNL     1       0.193  -3.737  -5.135  0.00  0.00    +0.167 HD
ENDROOT
BRANCH   6   9
ATOM      9  N   UNL     1       0.116  -5.889  -3.792  0.00  0.00    -0.286 N 
ATOM     10  C   UNL     1      -0.322  -6.067  -5.097  0.00  0.00    +0.127 A 
ATOM     11  C   UNL     1      -0.736  -7.325  -5.540  0.00  0.00    +0.063 A 
ATOM     12  C   UNL     1      -1.164  -7.450  -6.848  0.00  0.00    +0.116 A 
ATOM     13  N   UNL     1      -1.168  -6.382  -7.632  0.00  0.00    -0.244 NA
ATOM     14  C   UNL     1      -0.771  -5.208  -7.183  0.00  0.00    +0.223 A 
ATOM     15  N   UNL     1      -0.360  -5.042  -5.942  0.00  0.00    -0.221 NA
ATOM     16  H   UNL     1       0.063  -6.622  -3.158  0.00  0.00    +0.155 HD
ENDBRANCH   6   9
BRANCH   1  19
ATOM     17  N   UNL     1       0.807  -0.518   1.205  0.00  0.00    -0.274 NA
ATOM     18  C   UNL     1       1.862  -1.245   1.050  0.00  0.00    +0.119 C 
ATOM     19  C   UNL     1       2.653  -1.790  -0.120  0.00  0.00    +0.232 C 
ATOM     20  C   UNL     1       3.833  -1.808   0.828  0.00  0.00    +0.234 C 
ATOM     21  O   UNL     1       5.035  -1.755   0.729  0.00  0.00    -0.286 OA
ATOM     22  C   UNL     1       2.845  -1.915   1.942  0.00  0.00    +0.247 C 
ATOM     23  O   UNL     1       2.846  -2.353   3.073  0.00  0.00    -0.282 OA
BRANCH  17  25
ATOM     24  C   UNL     1       0.060   1.504   0.050  0.00  0.00    +0.038 C 
ATOM     25  C   UNL     1       0.079  -0.026   0.033  0.00  0.00    +0.133 C 
BRANCH  25  26
ATOM     26  C   UNL     1      -1.335  -0.546   0.065  0.00  0.00    -0.023 A 
ATOM     27  C   UNL     1      -2.026  -0.597   1.262  0.00  0.00    +0.006 A 
ATOM     28  C   UNL     1      -3.323  -1.074   1.291  0.00  0.00    +0.000 A 
ATOM     29  C   UNL     1      -3.929  -1.500   0.124  0.00  0.00    +0.000 A 
ATOM     30  C   UNL     1      -3.239  -1.448  -1.072  0.00  0.00    +0.000 A 
ATOM     31  C   UNL     1      -1.944  -0.967  -1.103  0.00  0.00    +0.006 A 
ENDBRANCH  25  26
ENDBRANCH  17  25
ENDBRANCH   1  19
TORSDOF 4
