REMARK  Name = CHEMBL226321
REMARK  6 active torsions:
REMARK  status: ('A' for Active; 'I' for Inactive)
REMARK    1  A    between atoms: C_4  and  C_7
REMARK    2  A    between atoms: C_7  and  C_8
REMARK    3  A    between atoms: C_8  and  N_9
REMARK    4  A    between atoms: C_10  and  C_12
REMARK    5  A    between atoms: C_15  and  C_18
REMARK    6  A    between atoms: C_20  and  C_24
REMARK                            x       y       z     vdW  Elec       q    Type
REMARK                         _______ _______ _______ _____ _____    ______ ____
ROOT
ATOM      1  C   UNL     1       7.340  -2.735   2.524  0.00  0.00    +0.037 A 
ATOM      2  C   UNL     1       7.940  -3.065   1.307  0.00  0.00    +0.014 A 
ATOM      3  C   UNL     1       9.142  -3.737   1.292  0.00  0.00    +0.011 A 
ATOM      4  C   UNL     1       9.759  -4.089   2.492  0.00  0.00    +0.000 A 
ATOM      5  C   UNL     1       9.161  -3.760   3.708  0.00  0.00    +0.011 A 
ATOM      6  C   UNL     1       7.962  -3.082   3.725  0.00  0.00    +0.014 A 
ENDROOT
BRANCH   4   7
ATOM      7  C   UNL     1      11.053  -4.814   2.475  0.00  0.00    +0.072 A 
ATOM      8  C   UNL     1      11.660  -5.166   3.675  0.00  0.00    +0.038 A 
ATOM      9  C   UNL     1      12.880  -5.849   3.640  0.00  0.00    +0.002 A 
ATOM     10  C   UNL     1      13.436  -6.148   2.390  0.00  0.00    +0.029 A 
ATOM     11  C   UNL     1      12.768  -5.762   1.246  0.00  0.00    +0.112 A 
ATOM     12  N   UNL     1      11.617  -5.124   1.314  0.00  0.00    -0.255 NA
BRANCH   9  13
ATOM     13  C   UNL     1      13.564  -6.245   4.889  0.00  0.00    +0.048 A 
ATOM     14  C   UNL     1      13.111  -6.010   6.154  0.00  0.00    +0.041 A 
ATOM     15  C   UNL     1      14.062  -6.548   7.030  0.00  0.00    +0.058 A 
ATOM     16  C   UNL     1      15.078  -7.100   6.255  0.00  0.00    +0.030 A 
ATOM     17  N   UNL     1      14.764  -6.918   4.971  0.00  0.00    -0.357 N 
ATOM     18  H   UNL     1      15.297  -7.211   4.216  0.00  0.00    +0.166 HD
ATOM     19  C   UNL     1      16.270  -7.763   6.895  0.00  0.00    +0.072 C 
ATOM     20  C   UNL     1      16.523  -7.115   8.257  0.00  0.00    +0.110 C 
ATOM     21  N   UNL     1      15.309  -6.962   9.046  0.00  0.00    -0.311 N 
ATOM     22  C   UNL     1      14.123  -6.604   8.501  0.00  0.00    +0.246 C 
ATOM     23  O   UNL     1      13.156  -6.342   9.191  0.00  0.00    -0.270 OA
ATOM     24  H   UNL     1      15.352  -7.124  10.002  0.00  0.00    +0.149 HD
ENDBRANCH   9  13
ENDBRANCH   4   7
BRANCH   1  26
ATOM     25  N   UNL     1       5.450  -1.678   1.382  0.00  0.00    -0.311 N 
ATOM     26  C   UNL     1       6.050  -2.013   2.541  0.00  0.00    +0.244 C 
ATOM     27  O   UNL     1       5.531  -1.722   3.601  0.00  0.00    -0.270 OA
ATOM     28  H   UNL     1       5.864  -1.911   0.536  0.00  0.00    +0.149 HD
BRANCH  25  29
ATOM     29  C   UNL     1       4.171  -0.963   1.399  0.00  0.00    +0.109 C 
BRANCH  29  30
ATOM     30  C   UNL     1       3.711  -0.707  -0.038  0.00  0.00    +0.054 C 
BRANCH  30  34
ATOM     31  C   UNL     1      -0.017   1.378   0.010  0.00  0.00    +0.000 A 
ATOM     32  C   UNL     1       1.171   2.086   0.002  0.00  0.00    +0.000 A 
ATOM     33  C   UNL     1       2.377   1.411  -0.013  0.00  0.00    +0.004 A 
ATOM     34  C   UNL     1       2.396   0.029  -0.020  0.00  0.00    -0.046 A 
ATOM     35  C   UNL     1       1.208  -0.679  -0.012  0.00  0.00    +0.004 A 
ATOM     36  C   UNL     1       0.002  -0.004   0.002  0.00  0.00    +0.000 A 
ENDBRANCH  30  34
ENDBRANCH  29  30
ENDBRANCH  25  29
ENDBRANCH   1  26
TORSDOF 6
