REMARK  Name = CHEMBL225975
REMARK  2 active torsions:
REMARK  status: ('A' for Active; 'I' for Inactive)
REMARK    1  A    between atoms: C_3  and  C_7
REMARK    2  A    between atoms: C_9  and  C_13
REMARK                            x       y       z     vdW  Elec       q    Type
REMARK                         _______ _______ _______ _____ _____    ______ ____
ROOT
ATOM      1  C   UNL     1       3.683   2.032  -0.023  0.00  0.00    +0.073 A 
ATOM      2  C   UNL     1       4.856   1.285  -0.044  0.00  0.00    +0.038 A 
ATOM      3  C   UNL     1       6.083   1.954  -0.052  0.00  0.00    +0.002 A 
ATOM      4  C   UNL     1       6.074   3.356  -0.039  0.00  0.00    +0.029 A 
ATOM      5  C   UNL     1       4.866   4.021  -0.018  0.00  0.00    +0.112 A 
ATOM      6  N   UNL     1       3.726   3.359  -0.016  0.00  0.00    -0.255 NA
ENDROOT
BRANCH   3   7
ATOM      7  C   UNL     1       7.356   1.204  -0.074  0.00  0.00    +0.048 A 
ATOM      8  C   UNL     1       7.480  -0.154  -0.093  0.00  0.00    +0.041 A 
ATOM      9  C   UNL     1       8.852  -0.434  -0.110  0.00  0.00    +0.058 A 
ATOM     10  C   UNL     1       9.527   0.782  -0.099  0.00  0.00    +0.030 A 
ATOM     11  N   UNL     1       8.618   1.759  -0.084  0.00  0.00    -0.357 N 
ATOM     12  H   UNL     1       8.814   2.709  -0.078  0.00  0.00    +0.166 HD
ATOM     13  C   UNL     1      11.033   0.836  -0.106  0.00  0.00    +0.072 C 
ATOM     14  C   UNL     1      11.574  -0.420   0.577  0.00  0.00    +0.110 C 
ATOM     15  N   UNL     1      10.923  -1.640   0.119  0.00  0.00    -0.311 N 
ATOM     16  C   UNL     1       9.595  -1.707  -0.138  0.00  0.00    +0.246 C 
ATOM     17  O   UNL     1       9.043  -2.763  -0.379  0.00  0.00    -0.270 OA
ATOM     18  H   UNL     1      11.462  -2.437  -0.006  0.00  0.00    +0.149 HD
ENDBRANCH   3   7
BRANCH   1  21
ATOM     19  C   UNL     1      -0.017   1.379   0.010  0.00  0.00    +0.020 A 
ATOM     20  C   UNL     1       1.182   2.072   0.002  0.00  0.00    +0.013 A 
ATOM     21  C   UNL     1       2.371   1.339  -0.013  0.00  0.00    +0.018 A 
ATOM     22  C   UNL     1       2.306  -0.052  -0.020  0.00  0.00    +0.120 A 
ATOM     23  N   UNL     1       1.141  -0.669  -0.012  0.00  0.00    -0.263 NA
ATOM     24  C   UNL     1       0.002  -0.004   0.002  0.00  0.00    +0.111 A 
ENDBRANCH   1  21
TORSDOF 2
