REMARK  Name = CHEMBL437943
REMARK  3 active torsions:
REMARK  status: ('A' for Active; 'I' for Inactive)
REMARK    1  A    between atoms: C_1  and  C_2
REMARK    2  A    between atoms: C_11  and  C_17
REMARK    3  A    between atoms: N_19  and  C_20
REMARK                            x       y       z     vdW  Elec       q    Type
REMARK                         _______ _______ _______ _____ _____    ______ ____
ROOT
ATOM      1  C   UNL     1      -0.015   1.512   0.005  0.00  0.00    +0.014 C 
ATOM      2  C   UNL     1      -0.001  -0.018  -0.003  0.00  0.00    +0.036 C 
ATOM      3  C   UNL     1       0.723  -0.517  -1.254  0.00  0.00    +0.112 C 
ATOM      4  N   UNL     1       2.166  -0.330  -1.175  0.00  0.00    -0.310 N 
ATOM      5  C   UNL     1       2.862  -0.514  -0.030  0.00  0.00    +0.261 C 
ATOM      6  O   UNL     1       4.077  -0.480  -0.013  0.00  0.00    -0.269 OA
ATOM      7  C   UNL     1       2.081  -0.756   1.196  0.00  0.00    +0.106 A 
ATOM      8  C   UNL     1       0.727  -0.522   1.216  0.00  0.00    -0.006 A 
ATOM      9  C   UNL     1       0.267  -0.834   2.495  0.00  0.00    +0.005 A 
ATOM     10  C   UNL     1      -1.006  -0.785   3.078  0.00  0.00    +0.023 A 
ATOM     11  C   UNL     1      -1.102  -1.181   4.412  0.00  0.00    +0.038 A 
ATOM     12  C   UNL     1       0.018  -1.607   5.136  0.00  0.00    +0.015 A 
ATOM     13  C   UNL     1       1.268  -1.659   4.581  0.00  0.00    +0.027 A 
ATOM     14  C   UNL     1       1.396  -1.269   3.246  0.00  0.00    +0.047 A 
ATOM     15  N   UNL     1       2.484  -1.210   2.427  0.00  0.00    -0.350 N 
ATOM     16  H   UNL     1       3.392  -1.449   2.672  0.00  0.00    +0.166 HD
ATOM     17  H   UNL     1       2.646  -0.062  -1.975  0.00  0.00    +0.149 HD
ENDROOT
BRANCH  11  18
ATOM     18  C   UNL     1      -2.419  -1.149   5.079  0.00  0.00    +0.248 C 
ATOM     19  O   UNL     1      -3.402  -0.781   4.465  0.00  0.00    -0.270 OA
ATOM     20  N   UNL     1      -2.531  -1.527   6.368  0.00  0.00    -0.280 N 
ATOM     21  H   UNL     1      -1.762  -1.885   6.837  0.00  0.00    +0.155 HD
BRANCH  20  22
ATOM     22  C   UNL     1      -3.758  -1.405   7.028  0.00  0.00    +0.052 A 
ATOM     23  C   UNL     1      -4.954  -1.614   6.344  0.00  0.00    +0.026 A 
ATOM     24  C   UNL     1      -6.143  -1.481   7.041  0.00  0.00    +0.021 A 
ATOM     25  C   UNL     1      -6.106  -1.147   8.382  0.00  0.00    +0.111 A 
ATOM     26  N   UNL     1      -4.957  -0.955   9.001  0.00  0.00    -0.261 NA
ATOM     27  C   UNL     1      -3.803  -1.078   8.377  0.00  0.00    +0.134 A 
ENDBRANCH  20  22
ENDBRANCH  11  18
TORSDOF 2
