REMARK  Name = CHEMBL178413
REMARK  4 active torsions:
REMARK  status: ('A' for Active; 'I' for Inactive)
REMARK    1  A    between atoms: C_5  and  C_8
REMARK    2  A    between atoms: C_6  and  O_7
REMARK    3  A    between atoms: C_18  and  C_23
REMARK    4  A    between atoms: C_19  and  N_22
REMARK                            x       y       z     vdW  Elec       q    Type
REMARK                         _______ _______ _______ _____ _____    ______ ____
ROOT
ATOM      1  C   UNL     1      -0.017   1.381   0.010  0.00  0.00    +0.053 A 
ATOM      2  C   UNL     1       1.170   2.095   0.002  0.00  0.00    -0.002 A 
ATOM      3  C   UNL     1       2.379   1.423  -0.013  0.00  0.00    +0.125 A 
ATOM      4  C   UNL     1       2.397   0.032  -0.020  0.00  0.00    +0.055 A 
ATOM      5  C   UNL     1       1.214  -0.678  -0.013  0.00  0.00    +0.028 A 
ATOM      6  C   UNL     1       0.002  -0.004   0.002  0.00  0.00    +0.123 A 
ATOM      7  O   UNL     1       3.571   2.083  -0.022  0.00  0.00    -0.487 OA
ATOM      8  C   UNL     1       3.543   3.460  -0.398  0.00  0.00    +0.192 C 
ATOM      9  C   UNL     1       4.874   4.118  -0.102  0.00  0.00    +0.090 C 
ATOM     10  C   UNL     1       4.918   5.577  -0.336  0.00  0.00    +0.036 C 
ATOM     11  C   UNL     1       3.664   6.322  -0.054  0.00  0.00    +0.088 C 
ATOM     12  C   UNL     1       2.523   5.642   0.289  0.00  0.00    +0.028 C 
ATOM     13  C   UNL     1       2.465   4.157   0.438  0.00  0.00    +0.080 C 
ATOM     14  C   UNL     1       1.104   3.604   0.011  0.00  0.00    +0.052 C 
ATOM     15  N   UNL     1       6.000   6.178  -0.766  0.00  0.00    -0.400 N 
ATOM     16  H   UNL     1       6.804   5.664  -0.941  0.00  0.00    +0.156 HD
ATOM     17  H   UNL     1       5.997   7.138  -0.909  0.00  0.00    +0.156 HD
ENDROOT
BRANCH   5  18
ATOM     18  C   UNL     1       1.240  -2.185  -0.021  0.00  0.00    +0.177 C 
ATOM     19  C   UNL     1       1.117  -2.691  -1.461  0.00  0.00    +0.196 C 
ATOM     20  O   UNL     1       1.254  -4.115  -1.471  0.00  0.00    -0.375 OA
ATOM     21  C   UNL     1       2.489  -4.576  -0.916  0.00  0.00    +0.188 C 
ATOM     22  C   UNL     1       2.612  -4.070   0.525  0.00  0.00    +0.188 C 
ATOM     23  O   UNL     1       2.475  -2.646   0.535  0.00  0.00    -0.367 OA
ENDBRANCH   5  18
BRANCH  12  24
ATOM     24  N   UNL     1       1.386   6.357   0.503  0.00  0.00    -0.360 N 
ATOM     25  H   UNL     1       1.396   7.323   0.412  0.00  0.00    +0.142 HD
ATOM     26  H   UNL     1       0.565   5.901   0.747  0.00  0.00    +0.142 HD
ENDBRANCH  12  24
BRANCH   6  27
ATOM     27  O   UNL     1      -1.165  -0.701   0.010  0.00  0.00    -0.506 OA
ATOM     28  H   UNL     1      -1.512  -0.898  -0.871  0.00  0.00    +0.292 HD
ENDBRANCH   6  27
BRANCH  11  29
ATOM     29  C   UNL     1       3.646   7.751  -0.140  0.00  0.00    +0.102 C 
ATOM     30  N   UNL     1       3.632   8.885  -0.207  0.00  0.00    -0.191 NA
ENDBRANCH  11  29
TORSDOF 4
