REMARK  Name = CHEMBL589650
REMARK  2 active torsions:
REMARK  status: ('A' for Active; 'I' for Inactive)
REMARK    1  A    between atoms: C_6  and  C_11
REMARK    2  A    between atoms: C_13  and  N_21
REMARK                            x       y       z     vdW  Elec       q    Type
REMARK                         _______ _______ _______ _____ _____    ______ ____
ROOT
ATOM      1  C   UNL     1       5.122  -2.092   0.085  0.00  0.00    +0.012 A 
ATOM      2  C   UNL     1       6.087  -1.976  -0.895  0.00  0.00    +0.034 A 
ATOM      3  C   UNL     1       7.195  -2.827  -0.930  0.00  0.00    +0.034 A 
ATOM      4  C   UNL     1       7.388  -3.812  -0.009  0.00  0.00    +0.035 A 
ATOM      5  C   UNL     1       6.455  -4.008   1.032  0.00  0.00    +0.022 A 
ATOM      6  C   UNL     1       5.278  -3.129   1.107  0.00  0.00    +0.100 A 
ATOM      7  N   UNL     1       4.580  -3.511   2.157  0.00  0.00    -0.173 NA
ATOM      8  H   UNL     1       4.923  -5.045   3.567  0.00  0.00    +0.188 HD
ATOM      9  N   UNL     1       5.236  -4.584   2.773  0.00  0.00    -0.284 N 
ATOM     10  C   UNL     1       6.353  -4.887   2.095  0.00  0.00    +0.113 A 
ENDROOT
BRANCH   3  11
ATOM     11  N   UNL     1       8.141  -2.662  -1.949  0.00  0.00    -0.299 N 
ATOM     12  C   UNL     1       7.738  -2.246  -3.208  0.00  0.00    +0.128 A 
ATOM     13  C   UNL     1       8.682  -1.961  -4.197  0.00  0.00    +0.061 A 
ATOM     14  C   UNL     1       8.235  -1.550  -5.437  0.00  0.00    +0.089 A 
ATOM     15  N   UNL     1       6.932  -1.439  -5.652  0.00  0.00    -0.334 N 
ATOM     16  C   UNL     1       6.058  -1.716  -4.695  0.00  0.00    +0.192 A 
ATOM     17  N   UNL     1       6.446  -2.118  -3.494  0.00  0.00    -0.201 NA
ATOM     18  N   UNL     1       4.705  -1.587  -4.960  0.00  0.00    -0.329 N 
ATOM     19  H   UNL     1       9.078  -2.839  -1.774  0.00  0.00    +0.154 HD
ATOM     20  H   UNL     1       4.408  -1.297  -5.836  0.00  0.00    +0.145 HD
ATOM     21  H   UNL     1       4.055  -1.787  -4.268  0.00  0.00    +0.145 HD
ATOM     22  H   UNL     1       6.614  -1.150  -6.521  0.00  0.00    +0.168 HD
ENDBRANCH   3  11
BRANCH   1  28
ATOM     23  C   UNL     1       0.818   2.704   0.079  0.00  0.00    +0.001 A 
ATOM     24  C   UNL     1       2.099   3.242  -0.039  0.00  0.00    +0.001 A 
ATOM     25  C   UNL     1       3.196   2.438  -0.063  0.00  0.00    +0.008 A 
ATOM     26  C   UNL     1       3.040   1.044   0.032  0.00  0.00    -0.017 A 
ATOM     27  C   UNL     1       4.150   0.186   0.011  0.00  0.00    +0.017 A 
ATOM     28  C   UNL     1       3.956  -1.181   0.107  0.00  0.00    -0.015 A 
ATOM     29  C   UNL     1       2.659  -1.712   0.224  0.00  0.00    +0.009 A 
ATOM     30  C   UNL     1       1.573  -0.897   0.246  0.00  0.00    +0.009 A 
ATOM     31  C   UNL     1       1.737   0.497   0.151  0.00  0.00    -0.018 A 
ATOM     32  C   UNL     1       0.628   1.360   0.172  0.00  0.00    +0.008 A 
ENDBRANCH   1  28
TORSDOF 2
