REMARK  Name = CHEMBL181212
REMARK  4 active torsions:
REMARK  status: ('A' for Active; 'I' for Inactive)
REMARK    1  A    between atoms: C_5  and  O_8
REMARK    2  A    between atoms: C_6  and  O_7
REMARK    3  A    between atoms: C_13  and  C_18
REMARK    4  A    between atoms: C_14  and  N_17
REMARK                            x       y       z     vdW  Elec       q    Type
REMARK                         _______ _______ _______ _____ _____    ______ ____
ROOT
ATOM      1  C   UNL     1      -0.017   1.379   0.010  0.00  0.00    +0.056 A 
ATOM      2  C   UNL     1       1.170   2.096   0.002  0.00  0.00    -0.001 A 
ATOM      3  C   UNL     1       2.381   1.427  -0.013  0.00  0.00    +0.128 A 
ATOM      4  C   UNL     1       2.403   0.036  -0.021  0.00  0.00    +0.095 A 
ATOM      5  C   UNL     1       1.219  -0.680  -0.015  0.00  0.00    +0.162 A 
ATOM      6  C   UNL     1       0.002  -0.004   0.002  0.00  0.00    +0.159 A 
ATOM      7  O   UNL     1       3.572   2.090  -0.020  0.00  0.00    -0.487 OA
ATOM      8  C   UNL     1       3.547   3.462   0.372  0.00  0.00    +0.192 C 
ATOM      9  C   UNL     1       4.871   4.126   0.057  0.00  0.00    +0.090 C 
ATOM     10  C   UNL     1       4.917   5.583   0.305  0.00  0.00    +0.036 C 
ATOM     11  C   UNL     1       3.656   6.327   0.055  0.00  0.00    +0.088 C 
ATOM     12  C   UNL     1       2.510   5.648  -0.272  0.00  0.00    +0.028 C 
ATOM     13  C   UNL     1       2.452   4.165  -0.436  0.00  0.00    +0.080 C 
ATOM     14  C   UNL     1       1.101   3.605   0.010  0.00  0.00    +0.052 C 
ATOM     15  N   UNL     1       6.005   6.182   0.721  0.00  0.00    -0.400 N 
ATOM     16  H   UNL     1       6.813   5.668   0.876  0.00  0.00    +0.156 HD
ATOM     17  H   UNL     1       6.003   7.140   0.875  0.00  0.00    +0.156 HD
ENDROOT
BRANCH  12  18
ATOM     18  N   UNL     1       1.367   6.363  -0.457  0.00  0.00    -0.360 N 
ATOM     19  H   UNL     1       1.377   7.327  -0.356  0.00  0.00    +0.142 HD
ATOM     20  H   UNL     1       0.543   5.907  -0.689  0.00  0.00    +0.142 HD
ENDBRANCH  12  18
BRANCH   6  21
ATOM     21  O   UNL     1      -1.166  -0.702   0.009  0.00  0.00    -0.503 OA
ATOM     22  H   UNL     1      -1.512  -0.899  -0.872  0.00  0.00    +0.292 HD
ENDBRANCH   6  21
BRANCH   5  23
ATOM     23  O   UNL     1       1.244  -2.039  -0.024  0.00  0.00    -0.503 OA
ATOM     24  H   UNL     1       1.259  -2.438   0.857  0.00  0.00    +0.292 HD
ENDBRANCH   5  23
BRANCH  11  25
ATOM     25  C   UNL     1       3.636   7.755   0.156  0.00  0.00    +0.102 C 
ATOM     26  N   UNL     1       3.621   8.889   0.237  0.00  0.00    -0.191 NA
ENDBRANCH  11  25
TORSDOF 4
