REMARK  Name = CHEMBL460091
REMARK  5 active torsions:
REMARK  status: ('A' for Active; 'I' for Inactive)
REMARK    1  A    between atoms: C_4  and  C_7
REMARK    2  A    between atoms: C_7  and  C_8
REMARK    3  A    between atoms: C_14  and  C_18
REMARK    4  A    between atoms: C_22  and  C_24
REMARK    5  A    between atoms: C_25  and  C_26
REMARK                            x       y       z     vdW  Elec       q    Type
REMARK                         _______ _______ _______ _____ _____    ______ ____
ROOT
ATOM      1  C   UNL     1       3.661  -2.100   0.067  0.00  0.00    +0.133 C 
ATOM      2  N   UNL     1       2.515  -2.735   0.065  0.00  0.00    -0.161 NA
ATOM      3  C   UNL     1       2.458  -4.085   0.156  0.00  0.00    +0.272 C 
ATOM      4  O   UNL     1       1.395  -4.677   0.154  0.00  0.00    -0.268 OA
ATOM      5  C   UNL     1       3.738  -4.805   0.256  0.00  0.00    +0.085 C 
ATOM      6  C   UNL     1       4.128  -6.113   0.362  0.00  0.00    +0.041 C 
ATOM      7  C   UNL     1       5.613  -6.098   0.420  0.00  0.00    +0.060 C 
ATOM      8  N   UNL     1       6.034  -4.859   0.351  0.00  0.00    -0.231 NA
ATOM      9  C   UNL     1       4.981  -3.998   0.250  0.00  0.00    +0.167 C 
ATOM     10  N   UNL     1       4.863  -2.695   0.150  0.00  0.00    -0.214 NA
ENDROOT
BRANCH   7  11
ATOM     11  C   UNL     1       6.477  -7.289   0.536  0.00  0.00    +0.070 C 
ATOM     12  C   UNL     1       5.923  -8.579   0.598  0.00  0.00    +0.007 C 
ATOM     13  C   UNL     1       6.763  -9.668   0.707  0.00  0.00    +0.069 C 
ATOM     14  N   UNL     1       8.071  -9.518   0.754  0.00  0.00    -0.321 N 
ATOM     15  C   UNL     1       8.645  -8.320   0.700  0.00  0.00    +0.028 C 
ATOM     16  C   UNL     1       7.871  -7.165   0.583  0.00  0.00    +0.015 C 
ATOM     17  H   UNL     1       8.633 -10.306   0.831  0.00  0.00    +0.152 HD
BRANCH  15  18
ATOM     18  C   UNL     1      10.113  -8.211   0.757  0.00  0.00    +0.023 C 
ATOM     19  C   UNL     1      10.865  -9.319   0.864  0.00  0.00    +0.010 C 
BRANCH  19  20
ATOM     20  C   UNL     1      12.334  -9.210   0.921  0.00  0.00    -0.025 A 
ATOM     21  C   UNL     1      12.947  -7.955   0.871  0.00  0.00    +0.008 A 
ATOM     22  C   UNL     1      14.322  -7.861   0.926  0.00  0.00    +0.001 A 
ATOM     23  C   UNL     1      15.094  -9.005   1.030  0.00  0.00    +0.000 A 
ATOM     24  C   UNL     1      14.493 -10.251   1.080  0.00  0.00    +0.001 A 
ATOM     25  C   UNL     1      13.119 -10.360   1.032  0.00  0.00    +0.008 A 
ENDBRANCH  19  20
ENDBRANCH  15  18
ENDBRANCH   7  11
BRANCH   1  26
ATOM     26  C   UNL     1       3.630  -0.628  -0.036  0.00  0.00    +0.099 C 
BRANCH  26  30
ATOM     27  C   UNL     1       0.116   1.444   0.808  0.00  0.00    +0.000 A 
ATOM     28  C   UNL     1       0.325   0.188   1.364  0.00  0.00    +0.000 A 
ATOM     29  C   UNL     1       1.470  -0.502   1.096  0.00  0.00    +0.004 A 
ATOM     30  C   UNL     1       2.449   0.068   0.247  0.00  0.00    -0.036 A 
ATOM     31  C   UNL     1       2.223   1.348  -0.312  0.00  0.00    +0.004 A 
ATOM     32  C   UNL     1       1.068   2.015  -0.026  0.00  0.00    +0.000 A 
ENDBRANCH  26  30
ENDBRANCH   1  26
TORSDOF 5
