REMARK  Name = CHEMBL403193
REMARK  3 active torsions:
REMARK  status: ('A' for Active; 'I' for Inactive)
REMARK    1  A    between atoms: C_3  and  C_18
REMARK    2  A    between atoms: C_11  and  C_16
REMARK    3  A    between atoms: C_16  and  O_17
REMARK                            x       y       z     vdW  Elec       q    Type
REMARK                         _______ _______ _______ _____ _____    ______ ____
ROOT
ATOM      1  C   UNL     1      -0.017   1.398   0.010  0.00  0.00    +0.011 A 
ATOM      2  C   UNL     1       1.152   2.096   0.002  0.00  0.00    +0.014 A 
ATOM      3  C   UNL     1       2.382   1.422  -0.014  0.00  0.00    +0.039 A 
ATOM      4  C   UNL     1       2.421   0.032  -0.022  0.00  0.00    +0.039 A 
ATOM      5  C   UNL     1       1.235  -0.692  -0.013  0.00  0.00    +0.050 A 
ATOM      6  C   UNL     1       0.002  -0.004   0.002  0.00  0.00    +0.001 A 
ATOM      7  C   UNL     1      -1.021  -0.986   0.006  0.00  0.00    +0.041 A 
ATOM      8  C   UNL     1      -0.421  -2.193  -0.000  0.00  0.00    +0.105 A 
ATOM      9  N   UNL     1       0.954  -2.035  -0.013  0.00  0.00    -0.336 N 
ATOM     10  C   UNL     1       1.899  -3.152  -0.019  0.00  0.00    +0.129 C 
ATOM     11  C   UNL     1       1.897  -3.843   1.350  0.00  0.00    +0.051 C 
ATOM     12  C   UNL     1       0.462  -3.982   1.856  0.00  0.00    +0.112 C 
ATOM     13  N   UNL     1      -0.468  -4.443   0.837  0.00  0.00    -0.310 N 
ATOM     14  C   UNL     1      -1.041  -3.540   0.003  0.00  0.00    +0.261 C 
ATOM     15  O   UNL     1      -1.999  -3.816  -0.694  0.00  0.00    -0.269 OA
ATOM     16  H   UNL     1      -0.677  -5.386   0.755  0.00  0.00    +0.149 HD
ENDROOT
BRANCH   3  17
ATOM     17  C   UNL     1       3.642   2.193  -0.024  0.00  0.00    +0.250 C 
ATOM     18  O   UNL     1       4.709   1.612  -0.038  0.00  0.00    -0.270 OA
ATOM     19  N   UNL     1       3.607   3.540  -0.017  0.00  0.00    -0.261 N 
ATOM     20  C   UNL     1       4.792   4.265  -0.026  0.00  0.00    +0.165 A 
ATOM     21  N   UNL     1       6.027   3.813  -0.047  0.00  0.00    -0.233 NA
ATOM     22  C   UNL     1       7.056   4.639  -0.053  0.00  0.00    +0.120 A 
ATOM     23  C   UNL     1       6.781   5.967  -0.036  0.00  0.00    +0.068 A 
ATOM     24  S   UNL     1       4.996   5.936  -0.019  0.00  0.00    -0.061 S 
ATOM     25  H   UNL     1       2.755   4.004  -0.005  0.00  0.00    +0.157 HD
ENDBRANCH   3  17
BRANCH  11  26
ATOM     26  C   UNL     1       2.527  -5.231   1.221  0.00  0.00    +0.162 C 
BRANCH  26  27
ATOM     27  O   UNL     1       2.632  -5.829   2.514  0.00  0.00    -0.395 OA
ATOM     28  H   UNL     1       3.024  -6.713   2.508  0.00  0.00    +0.209 HD
ENDBRANCH  26  27
ENDBRANCH  11  26
TORSDOF 3
