REMARK  Name = CHEMBL437943
REMARK  3 active torsions:
REMARK  status: ('A' for Active; 'I' for Inactive)
REMARK    1  A    between atoms: C_1  and  C_2
REMARK    2  A    between atoms: C_11  and  C_17
REMARK    3  A    between atoms: N_19  and  C_20
REMARK                            x       y       z     vdW  Elec       q    Type
REMARK                         _______ _______ _______ _____ _____    ______ ____
ROOT
ATOM      1  C   UNL     1      -0.012   1.540   0.009  0.00  0.00    +0.014 C 
ATOM      2  C   UNL     1       0.004   0.010   0.006  0.00  0.00    +0.036 C 
ATOM      3  C   UNL     1      -1.430  -0.518   0.036  0.00  0.00    +0.112 C 
ATOM      4  N   UNL     1      -2.059  -0.351   1.339  0.00  0.00    -0.310 N 
ATOM      5  C   UNL     1      -1.386  -0.531   2.499  0.00  0.00    +0.261 C 
ATOM      6  O   UNL     1      -1.957  -0.518   3.573  0.00  0.00    -0.269 OA
ATOM      7  C   UNL     1       0.069  -0.745   2.402  0.00  0.00    +0.106 A 
ATOM      8  C   UNL     1       0.733  -0.488   1.227  0.00  0.00    -0.006 A 
ATOM      9  C   UNL     1       2.082  -0.774   1.436  0.00  0.00    +0.005 A 
ATOM     10  C   UNL     1       3.203  -0.696   0.601  0.00  0.00    +0.023 A 
ATOM     11  C   UNL     1       4.428  -1.071   1.157  0.00  0.00    +0.038 A 
ATOM     12  C   UNL     1       4.532  -1.504   2.484  0.00  0.00    +0.015 A 
ATOM     13  C   UNL     1       3.445  -1.585   3.312  0.00  0.00    +0.027 A 
ATOM     14  C   UNL     1       2.205  -1.217   2.785  0.00  0.00    +0.047 A 
ATOM     15  N   UNL     1       0.963  -1.188   3.345  0.00  0.00    -0.350 N 
ATOM     16  H   UNL     1       0.746  -1.439   4.256  0.00  0.00    +0.166 HD
ATOM     17  H   UNL     1      -2.996  -0.102   1.377  0.00  0.00    +0.149 HD
ENDROOT
BRANCH  11  18
ATOM     18  C   UNL     1       5.644  -1.009   0.323  0.00  0.00    +0.248 C 
ATOM     19  O   UNL     1       5.572  -0.634  -0.832  0.00  0.00    -0.270 OA
ATOM     20  N   UNL     1       6.836  -1.367   0.842  0.00  0.00    -0.280 N 
ATOM     21  H   UNL     1       6.905  -1.600   1.780  0.00  0.00    +0.155 HD
BRANCH  20  22
ATOM     22  C   UNL     1       7.972  -1.402   0.026  0.00  0.00    +0.052 A 
ATOM     23  C   UNL     1       8.136  -0.472  -0.998  0.00  0.00    +0.026 A 
ATOM     24  C   UNL     1       9.277  -0.547  -1.778  0.00  0.00    +0.021 A 
ATOM     25  C   UNL     1      10.209  -1.536  -1.519  0.00  0.00    +0.111 A 
ATOM     26  N   UNL     1      10.023  -2.402  -0.543  0.00  0.00    -0.261 NA
ATOM     27  C   UNL     1       8.955  -2.362   0.228  0.00  0.00    +0.134 A 
ENDBRANCH  20  22
ENDBRANCH  11  18
TORSDOF 2
