REMARK  Name = CHEMBL554286
REMARK  2 active torsions:
REMARK  status: ('A' for Active; 'I' for Inactive)
REMARK    1  A    between atoms: C_1  and  C_2
REMARK    2  A    between atoms: C_11  and  C_22
REMARK                            x       y       z     vdW  Elec       q    Type
REMARK                         _______ _______ _______ _____ _____    ______ ____
ROOT
ATOM      1  C   UNL     1      -0.019   1.526   0.010  0.00  0.00    +0.029 C 
ATOM      2  C   UNL     1       0.002  -0.004   0.002  0.00  0.00    +0.087 C 
ATOM      3  C   UNL     1       0.672  -0.473  -1.270  0.00  0.00    +0.123 C 
ATOM      4  N   UNL     1       0.473  -1.879  -1.521  0.00  0.00    -0.341 N 
ATOM      5  C   UNL     1       1.079  -2.888  -0.764  0.00  0.00    +0.055 A 
ATOM      6  C   UNL     1       1.389  -4.142  -1.358  0.00  0.00    +0.020 A 
ATOM      7  C   UNL     1       1.155  -4.551  -2.759  0.00  0.00    +0.010 A 
ATOM      8  C   UNL     1       0.564  -3.663  -3.669  0.00  0.00    +0.013 A 
ATOM      9  C   UNL     1       0.375  -4.087  -4.954  0.00  0.00    +0.029 A 
ATOM     10  C   UNL     1       0.771  -5.381  -5.323  0.00  0.00    +0.074 A 
ATOM     11  N   UNL     1       1.324  -6.207  -4.454  0.00  0.00    -0.247 NA
ATOM     12  C   UNL     1       1.530  -5.843  -3.184  0.00  0.00    +0.072 A 
ATOM     13  C   UNL     1       2.119  -6.745  -2.271  0.00  0.00    +0.029 A 
ATOM     14  C   UNL     1       2.334  -6.372  -0.984  0.00  0.00    +0.018 A 
ATOM     15  C   UNL     1       1.986  -5.105  -0.530  0.00  0.00    +0.023 A 
ATOM     16  S   UNL     1       2.122  -4.282   1.036  0.00  0.00    -0.082 S 
ATOM     17  C   UNL     1       1.401  -2.718   0.572  0.00  0.00    +0.096 A 
ATOM     18  C   UNL     1       1.241  -1.622   1.420  0.00  0.00    +0.253 C 
ATOM     19  O   UNL     1       1.708  -1.760   2.536  0.00  0.00    -0.270 OA
ATOM     20  N   UNL     1       0.664  -0.464   1.198  0.00  0.00    -0.307 N 
ATOM     21  H   UNL     1      -0.110  -2.139  -2.252  0.00  0.00    +0.146 HD
ATOM     22  H   UNL     1       0.683   0.164   1.937  0.00  0.00    +0.149 HD
ENDROOT
BRANCH  10  23
ATOM     23  C   UNL     1       0.565  -5.831  -6.720  0.00  0.00    +0.036 A 
ATOM     24  C   UNL     1      -0.012  -4.972  -7.654  0.00  0.00    +0.013 A 
ATOM     25  C   UNL     1      -0.202  -5.396  -8.953  0.00  0.00    +0.001 A 
ATOM     26  C   UNL     1       0.178  -6.672  -9.331  0.00  0.00    +0.003 A 
ATOM     27  C   UNL     1       0.751  -7.530  -8.411  0.00  0.00    +0.039 A 
ATOM     28  C   UNL     1       0.952  -7.115  -7.107  0.00  0.00    +0.133 A 
ATOM     29  F   UNL     1       1.517  -7.952  -6.209  0.00  0.00    -0.205 F 
ENDBRANCH  10  23
TORSDOF 1
