REMARK  Name = CHEMBL225973
REMARK  2 active torsions:
REMARK  status: ('A' for Active; 'I' for Inactive)
REMARK    1  A    between atoms: C_6  and  C_7
REMARK    2  A    between atoms: C_9  and  C_13
REMARK                            x       y       z     vdW  Elec       q    Type
REMARK                         _______ _______ _______ _____ _____    ______ ____
ROOT
ATOM      1  C   UNL     1      -1.261  -0.783   0.010  0.00  0.00    +0.072 A 
ATOM      2  C   UNL     1      -1.212  -2.173   0.008  0.00  0.00    +0.038 A 
ATOM      3  C   UNL     1      -2.411  -2.891   0.016  0.00  0.00    +0.002 A 
ATOM      4  C   UNL     1      -3.614  -2.173   0.026  0.00  0.00    +0.029 A 
ATOM      5  C   UNL     1      -3.574  -0.794   0.028  0.00  0.00    +0.112 A 
ATOM      6  N   UNL     1      -2.425  -0.147   0.025  0.00  0.00    -0.255 NA
ENDROOT
BRANCH   3   7
ATOM      7  C   UNL     1      -2.410  -4.370   0.014  0.00  0.00    +0.048 A 
ATOM      8  C   UNL     1      -1.302  -5.165   0.010  0.00  0.00    +0.041 A 
ATOM      9  C   UNL     1      -1.757  -6.490   0.009  0.00  0.00    +0.058 A 
ATOM     10  C   UNL     1      -3.148  -6.454   0.010  0.00  0.00    +0.030 A 
ATOM     11  N   UNL     1      -3.529  -5.175   0.021  0.00  0.00    -0.357 N 
ATOM     12  H   UNL     1      -4.447  -4.862   0.030  0.00  0.00    +0.166 HD
ATOM     13  C   UNL     1      -3.958  -7.724   0.005  0.00  0.00    +0.072 C 
ATOM     14  C   UNL     1      -3.156  -8.817  -0.704  0.00  0.00    +0.110 C 
ATOM     15  N   UNL     1      -1.771  -8.882  -0.260  0.00  0.00    -0.311 N 
ATOM     16  C   UNL     1      -1.037  -7.776   0.008  0.00  0.00    +0.246 C 
ATOM     17  O   UNL     1       0.155  -7.840   0.238  0.00  0.00    -0.270 OA
ATOM     18  H   UNL     1      -1.357  -9.752  -0.153  0.00  0.00    +0.149 HD
ENDBRANCH   3   7
BRANCH   1  24
ATOM     19  C   UNL     1      -0.017   1.393   0.010  0.00  0.00    +0.030 A 
ATOM     20  C   UNL     1       1.181   2.079   0.002  0.00  0.00    +0.111 A 
ATOM     21  N   UNL     1       2.331   1.433  -0.013  0.00  0.00    -0.263 NA
ATOM     22  C   UNL     1       2.393   0.116  -0.020  0.00  0.00    +0.111 A 
ATOM     23  C   UNL     1       1.243  -0.647  -0.013  0.00  0.00    +0.030 A 
ATOM     24  C   UNL     1       0.002  -0.004   0.002  0.00  0.00    +0.003 A 
ENDBRANCH   1  24
TORSDOF 2
