REMARK  Name = CHEMBL181212
REMARK  4 active torsions:
REMARK  status: ('A' for Active; 'I' for Inactive)
REMARK    1  A    between atoms: C_5  and  O_8
REMARK    2  A    between atoms: C_6  and  O_7
REMARK    3  A    between atoms: C_13  and  C_18
REMARK    4  A    between atoms: C_14  and  N_17
REMARK                            x       y       z     vdW  Elec       q    Type
REMARK                         _______ _______ _______ _____ _____    ______ ____
ROOT
ATOM      1  C   UNL     1      -0.017   1.379   0.010  0.00  0.00    +0.056 A 
ATOM      2  C   UNL     1       1.170   2.096   0.002  0.00  0.00    -0.001 A 
ATOM      3  C   UNL     1       2.380   1.426  -0.007  0.00  0.00    +0.128 A 
ATOM      4  C   UNL     1       2.402   0.035  -0.022  0.00  0.00    +0.095 A 
ATOM      5  C   UNL     1       1.218  -0.680  -0.017  0.00  0.00    +0.162 A 
ATOM      6  C   UNL     1       0.002  -0.004   0.002  0.00  0.00    +0.159 A 
ATOM      7  O   UNL     1       3.561   2.095   0.013  0.00  0.00    -0.487 OA
ATOM      8  C   UNL     1       3.580   3.483  -0.259  0.00  0.00    +0.192 C 
ATOM      9  C   UNL     1       3.467   3.766  -1.740  0.00  0.00    +0.090 C 
ATOM     10  C   UNL     1       3.503   5.202  -2.097  0.00  0.00    +0.036 C 
ATOM     11  C   UNL     1       2.912   6.131  -1.100  0.00  0.00    +0.088 C 
ATOM     12  C   UNL     1       2.438   5.662   0.095  0.00  0.00    +0.028 C 
ATOM     13  C   UNL     1       2.438   4.201   0.462  0.00  0.00    +0.080 C 
ATOM     14  C   UNL     1       1.106   3.600  -0.003  0.00  0.00    +0.052 C 
ATOM     15  N   UNL     1       4.025   5.627  -3.221  0.00  0.00    -0.400 N 
ATOM     16  H   UNL     1       4.403   4.993  -3.851  0.00  0.00    +0.156 HD
ATOM     17  H   UNL     1       4.033   6.575  -3.424  0.00  0.00    +0.156 HD
ENDROOT
BRANCH  12  18
ATOM     18  N   UNL     1       1.945   6.557   0.994  0.00  0.00    -0.360 N 
ATOM     19  H   UNL     1       1.935   7.503   0.780  0.00  0.00    +0.142 HD
ATOM     20  H   UNL     1       1.604   6.249   1.848  0.00  0.00    +0.142 HD
ENDBRANCH  12  18
BRANCH   6  21
ATOM     21  O   UNL     1      -1.166  -0.702   0.013  0.00  0.00    -0.503 OA
ATOM     22  H   UNL     1      -1.515  -0.899  -0.867  0.00  0.00    +0.292 HD
ENDBRANCH   6  21
BRANCH   5  23
ATOM     23  O   UNL     1       1.243  -2.040  -0.029  0.00  0.00    -0.503 OA
ATOM     24  H   UNL     1       1.259  -2.441   0.850  0.00  0.00    +0.292 HD
ENDBRANCH   5  23
BRANCH  11  25
ATOM     25  C   UNL     1       2.837   7.531  -1.393  0.00  0.00    +0.102 C 
ATOM     26  N   UNL     1       2.778   8.642  -1.625  0.00  0.00    -0.191 NA
ENDBRANCH  11  25
TORSDOF 4
