REMARK  Name = CHEMBL361425
REMARK  3 active torsions:
REMARK  status: ('A' for Active; 'I' for Inactive)
REMARK    1  A    between atoms: C_6  and  O_7
REMARK    2  A    between atoms: C_12  and  C_17
REMARK    3  A    between atoms: C_13  and  N_16
REMARK                            x       y       z     vdW  Elec       q    Type
REMARK                         _______ _______ _______ _____ _____    ______ ____
ROOT
ATOM      1  C   UNL     1      -0.089   1.191   0.205  0.00  0.00    +0.046 A 
ATOM      2  C   UNL     1       1.074   1.932   0.138  0.00  0.00    +0.011 A 
ATOM      3  C   UNL     1       2.306   1.301   0.089  0.00  0.00    -0.005 A 
ATOM      4  C   UNL     1       2.376  -0.082   0.112  0.00  0.00    +0.128 A 
ATOM      5  C   UNL     1       1.205  -0.830   0.175  0.00  0.00    +0.091 A 
ATOM      6  C   UNL     1      -0.025  -0.195   0.222  0.00  0.00    +0.120 A 
ATOM      7  O   UNL     1       3.562  -0.738   0.087  0.00  0.00    -0.487 OA
ATOM      8  C   UNL     1       4.729  -0.035  -0.350  0.00  0.00    +0.192 C 
ATOM      9  C   UNL     1       5.941  -0.834   0.113  0.00  0.00    +0.090 C 
ATOM     10  C   UNL     1       6.036  -1.031   1.573  0.00  0.00    +0.036 C 
ATOM     11  C   UNL     1       5.548   0.089   2.420  0.00  0.00    +0.088 C 
ATOM     12  C   UNL     1       4.946   1.174   1.835  0.00  0.00    +0.028 C 
ATOM     13  C   UNL     1       4.780   1.320   0.358  0.00  0.00    +0.080 C 
ATOM     14  C   UNL     1       3.551   2.144   0.003  0.00  0.00    +0.052 C 
ATOM     15  N   UNL     1       6.522  -2.131   2.094  0.00  0.00    -0.400 N 
ATOM     16  H   UNL     1       6.833  -2.845   1.515  0.00  0.00    +0.156 HD
ATOM     17  H   UNL     1       6.572  -2.231   3.057  0.00  0.00    +0.156 HD
ENDROOT
BRANCH  12  18
ATOM     18  N   UNL     1       4.479   2.166   2.639  0.00  0.00    -0.360 N 
ATOM     19  H   UNL     1       4.467   2.045   3.602  0.00  0.00    +0.142 HD
ATOM     20  H   UNL     1       4.157   2.995   2.251  0.00  0.00    +0.142 HD
ENDBRANCH  12  18
BRANCH   6  21
ATOM     21  O   UNL     1      -1.168  -0.928   0.283  0.00  0.00    -0.507 OA
ATOM     22  H   UNL     1      -1.538  -1.153  -0.581  0.00  0.00    +0.292 HD
ENDBRANCH   6  21
BRANCH  11  23
ATOM     23  C   UNL     1       5.704   0.035   3.842  0.00  0.00    +0.102 C 
ATOM     24  N   UNL     1       5.829  -0.008   4.970  0.00  0.00    -0.191 NA
ENDBRANCH  11  23
TORSDOF 3
