REMARK  Name = CHEMBL461139
REMARK  5 active torsions:
REMARK  status: ('A' for Active; 'I' for Inactive)
REMARK    1  A    between atoms: C_3  and  C_14
REMARK    2  A    between atoms: C_6  and  C_7
REMARK    3  A    between atoms: C_7  and  N_8
REMARK    4  A    between atoms: C_15  and  C_16
REMARK    5  A    between atoms: C_18  and  C_22
REMARK                            x       y       z     vdW  Elec       q    Type
REMARK                         _______ _______ _______ _____ _____    ______ ____
ROOT
ATOM      1  C   UNL     1       6.092   2.249  -0.045  0.00  0.00    +0.064 A 
ATOM      2  C   UNL     1       7.303   1.558  -0.066  0.00  0.00    +0.037 A 
ATOM      3  C   UNL     1       8.495   2.287  -0.074  0.00  0.00    +0.002 A 
ATOM      4  C   UNL     1       8.417   3.687  -0.061  0.00  0.00    +0.029 A 
ATOM      5  C   UNL     1       7.178   4.294  -0.040  0.00  0.00    +0.112 A 
ATOM      6  N   UNL     1       6.071   3.579  -0.038  0.00  0.00    -0.256 NA
ENDROOT
BRANCH   3   7
ATOM      7  C   UNL     1       9.803   1.601  -0.096  0.00  0.00    +0.049 A 
ATOM      8  C   UNL     1      11.016   2.214  -0.100  0.00  0.00    +0.043 A 
ATOM      9  C   UNL     1      11.999   1.203  -0.123  0.00  0.00    +0.083 A 
ATOM     10  C   UNL     1      11.329  -0.030  -0.132  0.00  0.00    +0.145 A 
ATOM     11  N   UNL     1       9.991   0.235  -0.110  0.00  0.00    -0.339 N 
ATOM     12  H   UNL     1       9.286  -0.431  -0.107  0.00  0.00    +0.167 HD
ATOM     13  N   UNL     1      12.049  -1.162  -0.152  0.00  0.00    -0.220 NA
ATOM     14  C   UNL     1      13.350  -1.150  -0.164  0.00  0.00    +0.201 A 
ATOM     15  N   UNL     1      14.080  -0.007  -0.157  0.00  0.00    -0.313 N 
ATOM     16  H   UNL     1      15.049  -0.052  -0.167  0.00  0.00    +0.170 HD
ATOM     17  C   UNL     1      13.461   1.196  -0.136  0.00  0.00    +0.261 A 
ATOM     18  O   UNL     1      14.098   2.235  -0.130  0.00  0.00    -0.267 OA
ENDBRANCH   3   7
BRANCH   1  20
ATOM     19  C   UNL     1       3.654   2.157  -0.022  0.00  0.00    +0.010 C 
ATOM     20  C   UNL     1       4.824   1.498  -0.036  0.00  0.00    +0.028 C 
BRANCH  19  23
ATOM     21  C   UNL     1      -0.017   1.380   0.010  0.00  0.00    +0.005 A 
ATOM     22  C   UNL     1       1.166   2.089   0.002  0.00  0.00    +0.008 A 
ATOM     23  C   UNL     1       2.386   1.407  -0.013  0.00  0.00    -0.025 A 
ATOM     24  C   UNL     1       2.397   0.009  -0.021  0.00  0.00    +0.008 A 
ATOM     25  C   UNL     1       1.206  -0.686  -0.013  0.00  0.00    +0.005 A 
ATOM     26  C   UNL     1       0.002  -0.004   0.002  0.00  0.00    -0.033 A 
BRANCH  26  27
ATOM     27  C   UNL     1      -1.295  -0.772   0.011  0.00  0.00    +0.119 C 
BRANCH  27  28
ATOM     28  N   UNL     1      -1.730  -1.014  -1.371  0.00  0.00    -0.294 NA
ATOM     29  C   UNL     1      -2.082   0.247  -2.041  0.00  0.00    +0.113 C 
ATOM     30  C   UNL     1      -2.471  -0.044  -3.493  0.00  0.00    +0.175 C 
ATOM     31  O   UNL     1      -3.547  -0.987  -3.513  0.00  0.00    -0.377 OA
ATOM     32  C   UNL     1      -3.239  -2.226  -2.869  0.00  0.00    +0.175 C 
ATOM     33  C   UNL     1      -2.857  -1.957  -1.411  0.00  0.00    +0.113 C 
ENDBRANCH  27  28
ENDBRANCH  26  27
ENDBRANCH  19  23
ENDBRANCH   1  20
TORSDOF 5
