REMARK  Name = CHEMBL388530
REMARK  5 active torsions:
REMARK  status: ('A' for Active; 'I' for Inactive)
REMARK    1  A    between atoms: C_4  and  C_7
REMARK    2  A    between atoms: C_7  and  N_8
REMARK    3  A    between atoms: C_9  and  C_11
REMARK    4  A    between atoms: C_14  and  C_17
REMARK    5  A    between atoms: C_19  and  C_23
REMARK                            x       y       z     vdW  Elec       q    Type
REMARK                         _______ _______ _______ _____ _____    ______ ____
ROOT
ATOM      1  C   UNL     1       7.036  -2.559   6.952  0.00  0.00    +0.072 A 
ATOM      2  C   UNL     1       8.239  -3.218   7.182  0.00  0.00    +0.038 A 
ATOM      3  C   UNL     1       8.644  -3.443   8.501  0.00  0.00    +0.002 A 
ATOM      4  C   UNL     1       7.815  -2.991   9.536  0.00  0.00    +0.029 A 
ATOM      5  C   UNL     1       6.637  -2.345   9.221  0.00  0.00    +0.112 A 
ATOM      6  N   UNL     1       6.286  -2.144   7.966  0.00  0.00    -0.255 NA
ENDROOT
BRANCH   3   7
ATOM      7  C   UNL     1       9.914  -4.139   8.796  0.00  0.00    +0.048 A 
ATOM      8  C   UNL     1      10.796  -4.614   7.871  0.00  0.00    +0.041 A 
ATOM      9  C   UNL     1      11.853  -5.196   8.581  0.00  0.00    +0.058 A 
ATOM     10  C   UNL     1      11.572  -5.056   9.937  0.00  0.00    +0.030 A 
ATOM     11  N   UNL     1      10.409  -4.412  10.054  0.00  0.00    -0.357 N 
ATOM     12  H   UNL     1       9.979  -4.177  10.891  0.00  0.00    +0.166 HD
ATOM     13  C   UNL     1      12.516  -5.586  10.985  0.00  0.00    +0.072 C 
ATOM     14  C   UNL     1      13.261  -6.792  10.412  0.00  0.00    +0.110 C 
ATOM     15  N   UNL     1      13.778  -6.555   9.072  0.00  0.00    -0.311 N 
ATOM     16  C   UNL     1      13.088  -5.864   8.134  0.00  0.00    +0.246 C 
ATOM     17  O   UNL     1      13.468  -5.798   6.980  0.00  0.00    -0.270 OA
ATOM     18  H   UNL     1      14.653  -6.906   8.841  0.00  0.00    +0.149 HD
ENDBRANCH   3   7
BRANCH   1  22
ATOM     19  C   UNL     1       5.755  -1.848   2.956  0.00  0.00    +0.037 A 
ATOM     20  C   UNL     1       4.972  -1.415   4.029  0.00  0.00    +0.014 A 
ATOM     21  C   UNL     1       5.387  -1.646   5.321  0.00  0.00    +0.011 A 
ATOM     22  C   UNL     1       6.590  -2.312   5.560  0.00  0.00    +0.000 A 
ATOM     23  C   UNL     1       7.373  -2.744   4.489  0.00  0.00    +0.011 A 
ATOM     24  C   UNL     1       6.956  -2.519   3.196  0.00  0.00    +0.014 A 
BRANCH  19  26
ATOM     25  N   UNL     1       4.152  -0.952   1.338  0.00  0.00    -0.307 N 
ATOM     26  C   UNL     1       5.311  -1.601   1.569  0.00  0.00    +0.244 C 
ATOM     27  O   UNL     1       5.990  -1.982   0.636  0.00  0.00    -0.270 OA
ATOM     28  H   UNL     1       3.610  -0.648   2.082  0.00  0.00    +0.149 HD
BRANCH  25  29
ATOM     29  C   UNL     1       3.711  -0.707  -0.038  0.00  0.00    +0.139 C 
BRANCH  29  33
ATOM     30  C   UNL     1      -0.017   1.378   0.010  0.00  0.00    +0.000 A 
ATOM     31  C   UNL     1       1.171   2.086   0.002  0.00  0.00    +0.000 A 
ATOM     32  C   UNL     1       2.377   1.411  -0.013  0.00  0.00    +0.005 A 
ATOM     33  C   UNL     1       2.396   0.029  -0.020  0.00  0.00    -0.030 A 
ATOM     34  C   UNL     1       1.208  -0.679  -0.012  0.00  0.00    +0.005 A 
ATOM     35  C   UNL     1       0.002  -0.004   0.002  0.00  0.00    +0.000 A 
ENDBRANCH  29  33
ENDBRANCH  25  29
ENDBRANCH  19  26
ENDBRANCH   1  22
TORSDOF 5
