REMARK  Name = CHEMBL560075
REMARK  2 active torsions:
REMARK  status: ('A' for Active; 'I' for Inactive)
REMARK    1  A    between atoms: C_1  and  C_2
REMARK    2  A    between atoms: C_11  and  C_22
REMARK                            x       y       z     vdW  Elec       q    Type
REMARK                         _______ _______ _______ _____ _____    ______ ____
ROOT
ATOM      1  C   UNL     1      -0.019   1.526   0.010  0.00  0.00    +0.029 C 
ATOM      2  C   UNL     1       0.002  -0.004   0.002  0.00  0.00    +0.087 C 
ATOM      3  C   UNL     1       0.672  -0.473  -1.270  0.00  0.00    +0.123 C 
ATOM      4  N   UNL     1       0.474  -1.880  -1.520  0.00  0.00    -0.341 N 
ATOM      5  C   UNL     1       1.081  -2.888  -0.763  0.00  0.00    +0.055 A 
ATOM      6  C   UNL     1       1.393  -4.141  -1.358  0.00  0.00    +0.020 A 
ATOM      7  C   UNL     1       1.160  -4.550  -2.759  0.00  0.00    +0.010 A 
ATOM      8  C   UNL     1       0.568  -3.662  -3.668  0.00  0.00    +0.013 A 
ATOM      9  C   UNL     1       0.378  -4.087  -4.954  0.00  0.00    +0.029 A 
ATOM     10  C   UNL     1       0.774  -5.380  -5.322  0.00  0.00    +0.073 A 
ATOM     11  N   UNL     1       1.329  -6.205  -4.454  0.00  0.00    -0.247 NA
ATOM     12  C   UNL     1       1.535  -5.841  -3.184  0.00  0.00    +0.072 A 
ATOM     13  C   UNL     1       2.127  -6.742  -2.272  0.00  0.00    +0.029 A 
ATOM     14  C   UNL     1       2.342  -6.369  -0.985  0.00  0.00    +0.018 A 
ATOM     15  C   UNL     1       1.992  -5.103  -0.530  0.00  0.00    +0.023 A 
ATOM     16  S   UNL     1       2.127  -4.280   1.036  0.00  0.00    -0.082 S 
ATOM     17  C   UNL     1       1.404  -2.717   0.573  0.00  0.00    +0.096 A 
ATOM     18  C   UNL     1       1.241  -1.622   1.421  0.00  0.00    +0.253 C 
ATOM     19  O   UNL     1       1.706  -1.761   2.538  0.00  0.00    -0.270 OA
ATOM     20  N   UNL     1       0.664  -0.464   1.198  0.00  0.00    -0.307 N 
ATOM     21  H   UNL     1      -0.109  -2.140  -2.251  0.00  0.00    +0.146 HD
ATOM     22  H   UNL     1       0.684   0.164   1.937  0.00  0.00    +0.149 HD
ENDROOT
BRANCH  10  23
ATOM     23  C   UNL     1       0.567  -5.830  -6.720  0.00  0.00    +0.018 A 
ATOM     24  C   UNL     1       0.850  -7.149  -7.090  0.00  0.00    +0.013 A 
ATOM     25  C   UNL     1       0.639  -7.520  -8.407  0.00  0.00    +0.020 A 
ATOM     26  C   UNL     1       0.160  -6.583  -9.305  0.00  0.00    +0.111 A 
ATOM     27  N   UNL     1      -0.097  -5.347  -8.926  0.00  0.00    -0.263 NA
ATOM     28  C   UNL     1       0.082  -4.949  -7.683  0.00  0.00    +0.120 A 
ENDBRANCH  10  23
TORSDOF 1
