REMARK  Name = CHEMBL541448
REMARK  6 active torsions:
REMARK  status: ('A' for Active; 'I' for Inactive)
REMARK    1  A    between atoms: C_1  and  C_2
REMARK    2  A    between atoms: C_9  and  O_18
REMARK    3  A    between atoms: O_18  and  C_19
REMARK    4  A    between atoms: C_19  and  C_20
REMARK    5  A    between atoms: C_24  and  O_26
REMARK    6  A    between atoms: O_26  and  C_27
REMARK                            x       y       z     vdW  Elec       q    Type
REMARK                         _______ _______ _______ _____ _____    ______ ____
ROOT
ATOM      1  C   UNL     1      -0.019   1.526   0.010  0.00  0.00    +0.029 C 
ATOM      2  C   UNL     1       0.002  -0.004   0.002  0.00  0.00    +0.087 C 
ATOM      3  C   UNL     1      -1.423  -0.508  -0.033  0.00  0.00    +0.123 C 
ATOM      4  N   UNL     1      -2.262   0.124   0.955  0.00  0.00    -0.341 N 
ATOM      5  C   UNL     1      -2.151  -0.118   2.327  0.00  0.00    +0.055 A 
ATOM      6  C   UNL     1      -3.326  -0.018   3.205  0.00  0.00    +0.014 A 
ATOM      7  C   UNL     1      -4.653   0.308   2.828  0.00  0.00    +0.056 A 
ATOM      8  C   UNL     1      -5.651   0.364   3.771  0.00  0.00    +0.122 A 
ATOM      9  C   UNL     1      -5.391   0.103   5.114  0.00  0.00    +0.047 A 
ATOM     10  C   UNL     1      -4.108  -0.217   5.509  0.00  0.00    +0.019 A 
ATOM     11  C   UNL     1      -3.098  -0.276   4.568  0.00  0.00    +0.022 A 
ATOM     12  S   UNL     1      -1.365  -0.641   4.651  0.00  0.00    -0.082 S 
ATOM     13  C   UNL     1      -0.955  -0.457   2.927  0.00  0.00    +0.096 A 
ATOM     14  C   UNL     1       0.319  -0.637   2.382  0.00  0.00    +0.253 C 
ATOM     15  O   UNL     1       1.167  -1.014   3.170  0.00  0.00    -0.270 OA
ATOM     16  N   UNL     1       0.740  -0.463   1.153  0.00  0.00    -0.307 N 
ATOM     17  H   UNL     1      -2.938   0.750   0.652  0.00  0.00    +0.146 HD
ATOM     18  H   UNL     1       1.675  -0.670   0.999  0.00  0.00    +0.149 HD
ENDROOT
BRANCH   8  19
ATOM     19  O   UNL     1      -6.916   0.679   3.385  0.00  0.00    -0.487 OA
BRANCH  19  20
ATOM     20  C   UNL     1      -7.914   0.722   4.407  0.00  0.00    +0.264 C 
BRANCH  20  21
ATOM     21  C   UNL     1      -9.243   1.085   3.796  0.00  0.00    -0.007 A 
ATOM     22  C   UNL     1      -9.616   2.413   3.690  0.00  0.00    +0.007 A 
ATOM     23  C   UNL     1     -10.834   2.748   3.130  0.00  0.00    +0.004 A 
ATOM     24  C   UNL     1     -11.683   1.758   2.675  0.00  0.00    +0.045 A 
ATOM     25  C   UNL     1     -11.312   0.426   2.780  0.00  0.00    +0.120 A 
ATOM     26  C   UNL     1     -10.086   0.091   3.337  0.00  0.00    +0.052 A 
BRANCH  25  27
ATOM     27  O   UNL     1     -12.145  -0.550   2.334  0.00  0.00    -0.495 OA
ATOM     28  C   UNL     1     -13.389  -0.133   1.767  0.00  0.00    +0.277 C 
ENDBRANCH  25  27
ENDBRANCH  20  21
ENDBRANCH  19  20
ENDBRANCH   8  19
TORSDOF 4
