REMARK  Name = CHEMBL557101
REMARK  2 active torsions:
REMARK  status: ('A' for Active; 'I' for Inactive)
REMARK    1  A    between atoms: C_1  and  C_2
REMARK    2  A    between atoms: C_2  and  C_4
REMARK                            x       y       z     vdW  Elec       q    Type
REMARK                         _______ _______ _______ _____ _____    ______ ____
ROOT
ATOM      1  C   UNL     1      -0.000  -0.729  -1.269  0.00  0.00    +0.012 C 
ATOM      2  C   UNL     1       0.012  -2.054  -1.302  0.00  0.00    +0.003 C 
ATOM      3  C   UNL     1       0.010  -2.720  -2.652  0.00  0.00    +0.150 C 
ATOM      4  N   UNL     1      -1.364  -3.010  -3.070  0.00  0.00    -0.334 N 
ATOM      5  C   UNL     1      -1.861  -4.281  -3.244  0.00  0.00    +0.050 A 
ATOM      6  C   UNL     1      -1.257  -5.526  -3.069  0.00  0.00    +0.026 A 
ATOM      7  C   UNL     1      -2.032  -6.642  -3.336  0.00  0.00    +0.002 A 
ATOM      8  C   UNL     1      -3.347  -6.545  -3.757  0.00  0.00    +0.001 A 
ATOM      9  C   UNL     1      -3.969  -5.320  -3.935  0.00  0.00    +0.010 A 
ATOM     10  C   UNL     1      -3.200  -4.185  -3.670  0.00  0.00    +0.008 A 
ATOM     11  C   UNL     1      -3.509  -2.758  -3.742  0.00  0.00    +0.022 A 
ATOM     12  C   UNL     1      -2.342  -2.062  -3.359  0.00  0.00    +0.076 A 
ATOM     13  C   UNL     1      -2.356  -0.661  -3.322  0.00  0.00    +0.076 A 
ATOM     14  C   UNL     1      -3.534   0.030  -3.675  0.00  0.00    +0.022 A 
ATOM     15  C   UNL     1      -3.252   1.458  -3.533  0.00  0.00    +0.008 A 
ATOM     16  C   UNL     1      -4.039   2.590  -3.748  0.00  0.00    +0.010 A 
ATOM     17  C   UNL     1      -3.442   3.816  -3.506  0.00  0.00    +0.001 A 
ATOM     18  C   UNL     1      -2.131   3.917  -3.072  0.00  0.00    +0.002 A 
ATOM     19  C   UNL     1      -1.337   2.803  -2.856  0.00  0.00    +0.026 A 
ATOM     20  C   UNL     1      -1.917   1.557  -3.095  0.00  0.00    +0.050 A 
ATOM     21  N   UNL     1      -1.396   0.289  -2.985  0.00  0.00    -0.334 N 
ATOM     22  C   UNL     1      -0.023   0.006  -2.583  0.00  0.00    +0.160 C 
ATOM     23  C   UNL     1      -4.686  -0.665  -4.066  0.00  0.00    +0.060 A 
ATOM     24  C   UNL     1      -4.673  -2.066  -4.099  0.00  0.00    +0.060 A 
ATOM     25  C   UNL     1      -6.018  -2.475  -4.542  0.00  0.00    +0.252 C 
ATOM     26  O   UNL     1      -6.398  -3.620  -4.692  0.00  0.00    -0.270 OA
ATOM     27  N   UNL     1      -6.754  -1.369  -4.751  0.00  0.00    -0.248 N 
ATOM     28  C   UNL     1      -6.038  -0.259  -4.490  0.00  0.00    +0.252 C 
ATOM     29  O   UNL     1      -6.439   0.884  -4.588  0.00  0.00    -0.270 OA
ATOM     30  H   UNL     1      -7.678  -1.370  -5.048  0.00  0.00    +0.158 HD
ENDROOT
BRANCH   1  32
ATOM     31  C   UNL     1      -0.018   1.503   0.010  0.00  0.00    +0.091 C 
ATOM     32  C   UNL     1       0.002  -0.004   0.002  0.00  0.00    +0.158 C 
ATOM     33  O   UNL     1       0.020  -0.616   1.049  0.00  0.00    -0.293 OA
ENDBRANCH   1  32
TORSDOF 1
