REMARK  Name = CHEMBL598324
REMARK  3 active torsions:
REMARK  status: ('A' for Active; 'I' for Inactive)
REMARK    1  A    between atoms: C_3  and  C_24
REMARK    2  A    between atoms: C_5  and  N_7
REMARK    3  A    between atoms: C_9  and  C_13
REMARK                            x       y       z     vdW  Elec       q    Type
REMARK                         _______ _______ _______ _____ _____    ______ ____
ROOT
ATOM      1  N   UNL     1       1.228  -2.087  -0.021  0.00  0.00    -0.237 N 
ATOM      2  C   UNL     1       0.142  -2.888  -0.020  0.00  0.00    +0.125 A 
ATOM      3  C   UNL     1       0.581  -4.181  -0.030  0.00  0.00    +0.041 A 
ATOM      4  C   UNL     1       1.996  -4.150  -0.037  0.00  0.00    +0.146 A 
ATOM      5  N   UNL     1       2.372  -2.894  -0.038  0.00  0.00    -0.151 NA
ATOM      6  N   UNL     1       2.843  -5.260  -0.048  0.00  0.00    -0.341 N 
ATOM      7  H   UNL     1       2.469  -6.155  -0.051  0.00  0.00    +0.144 HD
ATOM      8  H   UNL     1       3.805  -5.137  -0.052  0.00  0.00    +0.144 HD
ENDROOT
BRANCH   3   9
ATOM      9  C   UNL     1      -0.269  -5.395  -0.033  0.00  0.00    -0.013 A 
ATOM     10  C   UNL     1      -1.304  -5.522   0.895  0.00  0.00    +0.009 A 
ATOM     11  C   UNL     1      -2.091  -6.640   0.898  0.00  0.00    +0.014 A 
ATOM     12  C   UNL     1      -1.859  -7.655  -0.029  0.00  0.00    +0.040 A 
ATOM     13  C   UNL     1      -0.823  -7.533  -0.963  0.00  0.00    -0.033 A 
ATOM     14  C   UNL     1      -0.035  -6.407  -0.967  0.00  0.00    +0.013 A 
ATOM     15  C   UNL     1      -0.594  -8.641  -1.956  0.00  0.00    +0.054 C 
ATOM     16  C   UNL     1      -0.918  -9.989  -1.315  0.00  0.00    +0.109 C 
ATOM     17  N   UNL     1      -2.239  -9.969  -0.692  0.00  0.00    -0.311 N 
ATOM     18  C   UNL     1      -2.692  -8.874  -0.050  0.00  0.00    +0.244 C 
ATOM     19  O   UNL     1      -3.774  -8.890   0.506  0.00  0.00    -0.270 OA
ATOM     20  H   UNL     1      -2.800 -10.758  -0.742  0.00  0.00    +0.149 HD
ENDBRANCH   3   9
BRANCH   1  25
ATOM     21  C   UNL     1      -0.017   1.377   0.010  0.00  0.00    +0.003 A 
ATOM     22  C   UNL     1       1.167   2.088   0.002  0.00  0.00    +0.008 A 
ATOM     23  C   UNL     1       2.386   1.412  -0.014  0.00  0.00    -0.016 A 
ATOM     24  C   UNL     1       2.406   0.020  -0.021  0.00  0.00    +0.036 A 
ATOM     25  C   UNL     1       1.213  -0.686  -0.013  0.00  0.00    +0.066 A 
ATOM     26  C   UNL     1       0.002  -0.004   0.002  0.00  0.00    +0.028 A 
BRANCH  23  27
ATOM     27  C   UNL     1       3.659   2.175  -0.023  0.00  0.00    -0.016 A 
ATOM     28  C   UNL     1       4.876   1.496  -0.044  0.00  0.00    +0.009 A 
ATOM     29  C   UNL     1       6.059   2.210  -0.052  0.00  0.00    +0.006 A 
ATOM     30  C   UNL     1       6.033   3.588  -0.039  0.00  0.00    -0.017 A 
ATOM     31  C   UNL     1       4.829   4.282  -0.018  0.00  0.00    +0.038 A 
ATOM     32  C   UNL     1       3.636   3.565  -0.015  0.00  0.00    +0.032 A 
ATOM     33  N   UNL     1       5.065   5.657  -0.008  0.00  0.00    -0.285 N 
ATOM     34  C   UNL     1       6.376   5.949  -0.021  0.00  0.00    +0.222 C 
ATOM     35  O   UNL     1       6.867   7.058  -0.017  0.00  0.00    -0.275 OA
ATOM     36  C   UNL     1       7.125   4.634  -0.043  0.00  0.00    +0.133 C 
ATOM     37  H   UNL     1       4.362   6.326   0.007  0.00  0.00    +0.155 HD
ENDBRANCH  23  27
ENDBRANCH   1  25
TORSDOF 3
