REMARK  Name = CHEMBL469124
REMARK  5 active torsions:
REMARK  status: ('A' for Active; 'I' for Inactive)
REMARK    1  A    between atoms: C_1  and  C_2
REMARK    2  A    between atoms: C_2  and  C_4
REMARK    3  A    between atoms: C_2  and  N_10
REMARK    4  A    between atoms: C_12  and  N_17
REMARK    5  A    between atoms: N_17  and  C_18
REMARK                            x       y       z     vdW  Elec       q    Type
REMARK                         _______ _______ _______ _____ _____    ______ ____
ROOT
ATOM      1  N   UNL     1      -0.571  -3.173   2.041  0.00  0.00    -0.329 N 
ATOM      2  H   UNL     1      -0.839  -3.744   1.304  0.00  0.00    +0.147 HD
ENDROOT
BRANCH   1   3
ATOM      3  C   UNL     1       0.417  -3.595   2.926  0.00  0.00    +0.033 A 
ATOM      4  C   UNL     1       0.812  -2.789   3.996  0.00  0.00    +0.040 A 
ATOM      5  C   UNL     1       1.792  -3.240   4.852  0.00  0.00    +0.086 A 
ATOM      6  N   UNL     1       2.359  -4.420   4.674  0.00  0.00    -0.349 N 
ATOM      7  C   UNL     1       2.014  -5.216   3.673  0.00  0.00    +0.103 A 
ATOM      8  C   UNL     1       1.031  -4.835   2.771  0.00  0.00    +0.064 A 
ATOM      9  N   UNL     1       2.642  -6.450   3.527  0.00  0.00    -0.286 N 
ATOM     10  C   UNL     1       2.653  -7.081   2.291  0.00  0.00    +0.127 A 
ATOM     11  C   UNL     1       3.161  -8.374   2.159  0.00  0.00    +0.063 A 
ATOM     12  C   UNL     1       3.151  -8.959   0.908  0.00  0.00    +0.116 A 
ATOM     13  N   UNL     1       2.662  -8.278  -0.119  0.00  0.00    -0.244 NA
ATOM     14  C   UNL     1       2.190  -7.058   0.038  0.00  0.00    +0.223 A 
ATOM     15  N   UNL     1       2.176  -6.464   1.214  0.00  0.00    -0.221 NA
ATOM     16  H   UNL     1       3.071  -6.870   4.289  0.00  0.00    +0.155 HD
ATOM     17  H   UNL     1       3.046  -4.711   5.293  0.00  0.00    +0.167 HD
ENDBRANCH   1   3
BRANCH   1  20
ATOM     18  N   UNL     1      -1.353  -0.501   0.009  0.00  0.00    -0.274 NA
ATOM     19  C   UNL     1      -1.775  -1.281   0.947  0.00  0.00    +0.114 C 
ATOM     20  C   UNL     1      -1.205  -1.865   2.221  0.00  0.00    +0.198 C 
ATOM     21  C   UNL     1      -2.640  -1.942   2.696  0.00  0.00    +0.230 C 
ATOM     22  O   UNL     1      -3.210  -1.950   3.762  0.00  0.00    -0.286 OA
ATOM     23  C   UNL     1      -3.038  -1.999   1.259  0.00  0.00    +0.246 C 
ATOM     24  O   UNL     1      -3.977  -2.437   0.628  0.00  0.00    -0.282 OA
BRANCH  18  26
ATOM     25  C   UNL     1      -0.034   1.557   0.094  0.00  0.00    +0.038 C 
ATOM     26  C   UNL     1       0.012   0.028   0.054  0.00  0.00    +0.133 C 
BRANCH  26  27
ATOM     27  C   UNL     1       0.765  -0.420  -1.172  0.00  0.00    -0.023 A 
ATOM     28  C   UNL     1       0.135  -0.436  -2.403  0.00  0.00    +0.006 A 
ATOM     29  C   UNL     1       0.826  -0.847  -3.527  0.00  0.00    +0.000 A 
ATOM     30  C   UNL     1       2.147  -1.242  -3.422  0.00  0.00    +0.000 A 
ATOM     31  C   UNL     1       2.777  -1.225  -2.191  0.00  0.00    +0.000 A 
ATOM     32  C   UNL     1       2.087  -0.810  -1.067  0.00  0.00    +0.006 A 
ENDBRANCH  26  27
ENDBRANCH  18  26
ENDBRANCH   1  20
TORSDOF 4
