REMARK  Name = CHEMBL469124
REMARK  5 active torsions:
REMARK  status: ('A' for Active; 'I' for Inactive)
REMARK    1  A    between atoms: C_1  and  C_2
REMARK    2  A    between atoms: C_2  and  C_4
REMARK    3  A    between atoms: C_2  and  N_10
REMARK    4  A    between atoms: C_12  and  N_17
REMARK    5  A    between atoms: N_17  and  C_18
REMARK                            x       y       z     vdW  Elec       q    Type
REMARK                         _______ _______ _______ _____ _____    ______ ____
ROOT
ATOM      1  N   UNL     1      -3.936  -1.143   2.219  0.00  0.00    -0.329 N 
ATOM      2  H   UNL     1      -3.584  -0.414   2.752  0.00  0.00    +0.147 HD
ENDROOT
BRANCH   1   3
ATOM      3  C   UNL     1      -5.300  -1.423   2.237  0.00  0.00    +0.033 A 
ATOM      4  C   UNL     1      -5.825  -2.473   1.480  0.00  0.00    +0.040 A 
ATOM      5  C   UNL     1      -7.179  -2.722   1.523  0.00  0.00    +0.086 A 
ATOM      6  N   UNL     1      -7.981  -1.983   2.267  0.00  0.00    -0.349 N 
ATOM      7  C   UNL     1      -7.525  -0.977   3.000  0.00  0.00    +0.103 A 
ATOM      8  C   UNL     1      -6.172  -0.668   3.014  0.00  0.00    +0.064 A 
ATOM      9  N   UNL     1      -8.412  -0.227   3.768  0.00  0.00    -0.286 N 
ATOM     10  C   UNL     1      -8.072   1.060   4.160  0.00  0.00    +0.127 A 
ATOM     11  C   UNL     1      -8.891   1.773   5.038  0.00  0.00    +0.063 A 
ATOM     12  C   UNL     1      -8.509   3.050   5.398  0.00  0.00    +0.116 A 
ATOM     13  N   UNL     1      -7.387   3.554   4.903  0.00  0.00    -0.244 NA
ATOM     14  C   UNL     1      -6.636   2.855   4.076  0.00  0.00    +0.223 A 
ATOM     15  N   UNL     1      -6.959   1.631   3.710  0.00  0.00    -0.221 NA
ATOM     16  H   UNL     1      -9.266  -0.604   4.029  0.00  0.00    +0.155 HD
ATOM     17  H   UNL     1      -8.931  -2.181   2.277  0.00  0.00    +0.167 HD
ENDBRANCH   1   3
BRANCH   1  20
ATOM     18  N   UNL     1      -1.382  -0.504  -0.006  0.00  0.00    -0.274 NA
ATOM     19  C   UNL     1      -1.766  -1.229   0.991  0.00  0.00    +0.114 C 
ATOM     20  C   UNL     1      -3.034  -1.950   1.394  0.00  0.00    +0.198 C 
ATOM     21  C   UNL     1      -2.129  -2.864   2.192  0.00  0.00    +0.230 C 
ATOM     22  O   UNL     1      -2.171  -4.001   2.599  0.00  0.00    -0.286 OA
ATOM     23  C   UNL     1      -1.156  -1.733   2.249  0.00  0.00    +0.246 C 
ATOM     24  O   UNL     1      -0.264  -1.383   2.993  0.00  0.00    -0.282 OA
BRANCH  18  26
ATOM     25  C   UNL     1      -0.070   1.559  -0.088  0.00  0.00    +0.038 C 
ATOM     26  C   UNL     1      -0.018   0.030  -0.041  0.00  0.00    +0.133 C 
BRANCH  26  27
ATOM     27  C   UNL     1       0.692  -0.486  -1.265  0.00  0.00    -0.023 A 
ATOM     28  C   UNL     1       0.019  -0.576  -2.469  0.00  0.00    +0.006 A 
ATOM     29  C   UNL     1       0.671  -1.049  -3.592  0.00  0.00    +0.000 A 
ATOM     30  C   UNL     1       1.996  -1.433  -3.512  0.00  0.00    +0.000 A 
ATOM     31  C   UNL     1       2.670  -1.343  -2.308  0.00  0.00    +0.000 A 
ATOM     32  C   UNL     1       2.019  -0.865  -1.186  0.00  0.00    +0.006 A 
ENDBRANCH  26  27
ENDBRANCH  18  26
ENDBRANCH   1  20
TORSDOF 4
