REMARK  Name = CHEMBL389658
REMARK  3 active torsions:
REMARK  status: ('A' for Active; 'I' for Inactive)
REMARK    1  A    between atoms: C_3  and  C_24
REMARK    2  A    between atoms: C_6  and  C_7
REMARK    3  A    between atoms: C_9  and  C_13
REMARK                            x       y       z     vdW  Elec       q    Type
REMARK                         _______ _______ _______ _____ _____    ______ ____
ROOT
ATOM      1  C   UNL     1      -1.272  -0.762   0.010  0.00  0.00    +0.072 A 
ATOM      2  C   UNL     1      -1.246  -2.152   0.008  0.00  0.00    +0.038 A 
ATOM      3  C   UNL     1      -2.458  -2.851   0.016  0.00  0.00    +0.002 A 
ATOM      4  C   UNL     1      -3.648  -2.113   0.025  0.00  0.00    +0.029 A 
ATOM      5  C   UNL     1      -3.586  -0.735   0.027  0.00  0.00    +0.112 A 
ATOM      6  N   UNL     1      -2.427  -0.106   0.025  0.00  0.00    -0.255 NA
ENDROOT
BRANCH   3   7
ATOM      7  C   UNL     1      -2.481  -4.329   0.014  0.00  0.00    +0.048 A 
ATOM      8  C   UNL     1      -1.387  -5.143   0.010  0.00  0.00    +0.041 A 
ATOM      9  C   UNL     1      -1.863  -6.460   0.010  0.00  0.00    +0.058 A 
ATOM     10  C   UNL     1      -3.253  -6.401   0.012  0.00  0.00    +0.030 A 
ATOM     11  N   UNL     1      -3.613  -5.116   0.021  0.00  0.00    -0.357 N 
ATOM     12  H   UNL     1      -4.526  -4.788   0.029  0.00  0.00    +0.166 HD
ATOM     13  C   UNL     1      -4.084  -7.658   0.007  0.00  0.00    +0.072 C 
ATOM     14  C   UNL     1      -3.301  -8.764  -0.701  0.00  0.00    +0.110 C 
ATOM     15  N   UNL     1      -1.917  -8.851  -0.257  0.00  0.00    -0.311 N 
ATOM     16  C   UNL     1      -1.165  -7.757   0.011  0.00  0.00    +0.246 C 
ATOM     17  O   UNL     1       0.027  -7.842   0.240  0.00  0.00    -0.270 OA
ATOM     18  H   UNL     1      -1.517  -9.729  -0.149  0.00  0.00    +0.149 HD
ENDBRANCH   3   7
BRANCH   1  24
ATOM     19  C   UNL     1      -0.017   1.391   0.010  0.00  0.00    +0.011 A 
ATOM     20  C   UNL     1       1.165   2.096   0.002  0.00  0.00    +0.016 A 
ATOM     21  C   UNL     1       2.386   1.413  -0.013  0.00  0.00    +0.063 A 
ATOM     22  C   UNL     1       2.403   0.015  -0.021  0.00  0.00    +0.016 A 
ATOM     23  C   UNL     1       1.219  -0.687  -0.013  0.00  0.00    +0.011 A 
ATOM     24  C   UNL     1       0.002  -0.004   0.002  0.00  0.00    +0.000 A 
BRANCH  21  25
ATOM     25  C   UNL     1       3.653   2.167  -0.022  0.00  0.00    +0.387 C 
ATOM     26  O   UNL     1       3.637   3.390  -0.015  0.00  0.00    -0.241 OA
ATOM     27  O   UNL     1       4.720   1.570  -0.035  0.00  0.00    -0.241 OA
ENDBRANCH  21  25
ENDBRANCH   1  24
TORSDOF 3
