REMARK  Name = CHEMBL597839
REMARK  3 active torsions:
REMARK  status: ('A' for Active; 'I' for Inactive)
REMARK    1  A    between atoms: C_3  and  C_24
REMARK    2  A    between atoms: C_5  and  N_7
REMARK    3  A    between atoms: C_9  and  C_13
REMARK                            x       y       z     vdW  Elec       q    Type
REMARK                         _______ _______ _______ _____ _____    ______ ____
ROOT
ATOM      1  N   UNL     1       1.228  -2.087  -0.021  0.00  0.00    -0.237 N 
ATOM      2  C   UNL     1       0.141  -2.888  -0.020  0.00  0.00    +0.125 A 
ATOM      3  C   UNL     1       0.580  -4.182  -0.031  0.00  0.00    +0.041 A 
ATOM      4  C   UNL     1       1.995  -4.150  -0.038  0.00  0.00    +0.146 A 
ATOM      5  N   UNL     1       2.371  -2.894  -0.038  0.00  0.00    -0.151 NA
ATOM      6  N   UNL     1       2.842  -5.261  -0.049  0.00  0.00    -0.341 N 
ATOM      7  H   UNL     1       2.468  -6.156  -0.053  0.00  0.00    +0.144 HD
ATOM      8  H   UNL     1       3.804  -5.137  -0.054  0.00  0.00    +0.144 HD
ENDROOT
BRANCH   3   9
ATOM      9  C   UNL     1      -0.270  -5.395  -0.033  0.00  0.00    -0.013 A 
ATOM     10  C   UNL     1      -1.304  -5.522   0.896  0.00  0.00    +0.009 A 
ATOM     11  C   UNL     1      -2.091  -6.640   0.900  0.00  0.00    +0.014 A 
ATOM     12  C   UNL     1      -1.860  -7.655  -0.028  0.00  0.00    +0.040 A 
ATOM     13  C   UNL     1      -0.825  -7.533  -0.963  0.00  0.00    -0.033 A 
ATOM     14  C   UNL     1      -0.037  -6.407  -0.968  0.00  0.00    +0.013 A 
ATOM     15  C   UNL     1      -0.597  -8.641  -1.956  0.00  0.00    +0.054 C 
ATOM     16  C   UNL     1      -0.920  -9.988  -1.315  0.00  0.00    +0.109 C 
ATOM     17  N   UNL     1      -2.240  -9.969  -0.691  0.00  0.00    -0.311 N 
ATOM     18  C   UNL     1      -2.693  -8.874  -0.048  0.00  0.00    +0.244 C 
ATOM     19  O   UNL     1      -3.774  -8.890   0.509  0.00  0.00    -0.270 OA
ATOM     20  H   UNL     1      -2.802 -10.758  -0.740  0.00  0.00    +0.149 HD
ENDBRANCH   3   9
BRANCH   1  25
ATOM     21  C   UNL     1      -0.017   1.378   0.010  0.00  0.00    +0.003 A 
ATOM     22  C   UNL     1       1.167   2.088   0.002  0.00  0.00    +0.008 A 
ATOM     23  C   UNL     1       2.386   1.412  -0.014  0.00  0.00    -0.016 A 
ATOM     24  C   UNL     1       2.406   0.020  -0.021  0.00  0.00    +0.036 A 
ATOM     25  C   UNL     1       1.213  -0.686  -0.013  0.00  0.00    +0.066 A 
ATOM     26  C   UNL     1       0.002  -0.004   0.002  0.00  0.00    +0.028 A 
BRANCH  23  27
ATOM     27  C   UNL     1       3.659   2.174  -0.023  0.00  0.00    -0.016 A 
ATOM     28  C   UNL     1       4.879   1.490  -0.044  0.00  0.00    +0.009 A 
ATOM     29  C   UNL     1       6.056   2.177  -0.053  0.00  0.00    +0.010 A 
ATOM     30  C   UNL     1       6.047   3.575  -0.040  0.00  0.00    -0.000 A 
ATOM     31  C   UNL     1       7.097   4.596  -0.044  0.00  0.00    +0.027 A 
ATOM     32  C   UNL     1       6.483   5.791  -0.025  0.00  0.00    +0.083 A 
ATOM     33  N   UNL     1       5.126   5.618  -0.010  0.00  0.00    -0.361 N 
ATOM     34  H   UNL     1       4.473   6.335   0.005  0.00  0.00    +0.165 HD
ATOM     35  C   UNL     1       4.825   4.274  -0.018  0.00  0.00    +0.047 A 
ATOM     36  C   UNL     1       3.632   3.563  -0.015  0.00  0.00    +0.034 A 
ENDBRANCH  23  27
ENDBRANCH   1  25
TORSDOF 3
