REMARK  Name = CHEMBL181069
REMARK  2 active torsions:
REMARK  status: ('A' for Active; 'I' for Inactive)
REMARK    1  A    between atoms: C_15  and  C_20
REMARK    2  A    between atoms: C_16  and  N_19
REMARK                            x       y       z     vdW  Elec       q    Type
REMARK                         _______ _______ _______ _____ _____    ______ ____
ROOT
ATOM      1  C   UNL     1      -0.017   1.381   0.010  0.00  0.00    +0.056 A 
ATOM      2  C   UNL     1       1.169   2.099   0.002  0.00  0.00    -0.001 A 
ATOM      3  C   UNL     1       2.380   1.430  -0.013  0.00  0.00    +0.128 A 
ATOM      4  C   UNL     1       2.402   0.040  -0.023  0.00  0.00    +0.095 A 
ATOM      5  C   UNL     1       1.218  -0.678  -0.017  0.00  0.00    +0.166 A 
ATOM      6  C   UNL     1       0.002  -0.004   0.002  0.00  0.00    +0.163 A 
ATOM      7  O   UNL     1      -1.174  -0.690   0.018  0.00  0.00    -0.485 OA
ATOM      8  C   UNL     1      -1.121  -2.069  -0.366  0.00  0.00    +0.270 C 
ATOM      9  C   UNL     1       0.064  -2.723   0.357  0.00  0.00    +0.270 C 
ATOM     10  O   UNL     1       1.260  -2.038  -0.030  0.00  0.00    -0.485 OA
ATOM     11  O   UNL     1       3.570   2.094  -0.018  0.00  0.00    -0.487 OA
ATOM     12  C   UNL     1       3.545   3.465   0.377  0.00  0.00    +0.192 C 
ATOM     13  C   UNL     1       4.869   4.129   0.065  0.00  0.00    +0.090 C 
ATOM     14  C   UNL     1       4.914   5.586   0.316  0.00  0.00    +0.036 C 
ATOM     15  C   UNL     1       3.653   6.331   0.066  0.00  0.00    +0.088 C 
ATOM     16  C   UNL     1       2.508   5.652  -0.265  0.00  0.00    +0.028 C 
ATOM     17  C   UNL     1       2.451   4.169  -0.432  0.00  0.00    +0.080 C 
ATOM     18  C   UNL     1       1.099   3.608   0.012  0.00  0.00    +0.052 C 
ATOM     19  N   UNL     1       6.002   6.184   0.735  0.00  0.00    -0.400 N 
ATOM     20  H   UNL     1       6.809   5.670   0.890  0.00  0.00    +0.156 HD
ATOM     21  H   UNL     1       5.999   7.142   0.890  0.00  0.00    +0.156 HD
ENDROOT
BRANCH  16  22
ATOM     22  N   UNL     1       1.365   6.367  -0.449  0.00  0.00    -0.360 N 
ATOM     23  H   UNL     1       1.375   7.331  -0.346  0.00  0.00    +0.142 HD
ATOM     24  H   UNL     1       0.541   5.912  -0.683  0.00  0.00    +0.142 HD
ENDBRANCH  16  22
BRANCH  15  25
ATOM     25  C   UNL     1       3.634   7.759   0.169  0.00  0.00    +0.102 C 
ATOM     26  N   UNL     1       3.618   8.892   0.252  0.00  0.00    -0.191 NA
ENDBRANCH  15  25
TORSDOF 2
