REMARK  Name = CHEMBL392876
REMARK  3 active torsions:
REMARK  status: ('A' for Active; 'I' for Inactive)
REMARK    1  A    between atoms: C_1  and  O_2
REMARK    2  A    between atoms: O_2  and  C_3
REMARK    3  A    between atoms: C_13  and  C_19
REMARK                            x       y       z     vdW  Elec       q    Type
REMARK                         _______ _______ _______ _____ _____    ______ ____
ROOT
ATOM      1  C   UNL     1       0.606  -0.608  -1.056  0.00  0.00    +0.121 A 
ATOM      2  C   UNL     1       1.168   0.181  -2.054  0.00  0.00    +0.047 A 
ATOM      3  C   UNL     1       1.796  -0.366  -3.158  0.00  0.00    +0.030 A 
ATOM      4  C   UNL     1       1.848  -1.755  -3.238  0.00  0.00    +0.047 A 
ATOM      5  C   UNL     1       1.277  -2.565  -2.220  0.00  0.00    +0.007 A 
ATOM      6  C   UNL     1       0.650  -1.992  -1.108  0.00  0.00    +0.056 A 
ATOM      7  C   UNL     1       1.515  -3.924  -2.626  0.00  0.00    -0.019 A 
ATOM      8  C   UNL     1       2.178  -3.895  -3.807  0.00  0.00    +0.017 A 
ATOM      9  N   UNL     1       2.383  -2.595  -4.177  0.00  0.00    -0.359 N 
ATOM     10  H   UNL     1       2.839  -2.311  -4.985  0.00  0.00    +0.166 HD
ATOM     11  C   UNL     1       2.589  -5.145  -4.545  0.00  0.00    +0.095 C 
ATOM     12  N   UNL     1       2.318  -6.329  -3.717  0.00  0.00    +0.393 N 
ATOM     13  C   UNL     1       3.233  -6.382  -2.563  0.00  0.00    -0.077 C 
ATOM     14  C   UNL     1       2.496  -5.758  -1.361  0.00  0.00    -0.012 C 
ATOM     15  C   UNL     1       1.155  -5.240  -1.960  0.00  0.00    +0.003 C 
ATOM     16  C   UNL     1       0.950  -6.226  -3.150  0.00  0.00    -0.069 C 
ATOM     17  H   UNL     1       2.398  -7.166  -4.274  0.00  0.00    -0.080 HD
ENDROOT
BRANCH  11  18
ATOM     18  C   UNL     1       1.810  -5.245  -5.832  0.00  0.00    +0.349 C 
ATOM     19  O   UNL     1       2.034  -4.466  -6.742  0.00  0.00    -0.248 OA
ATOM     20  O   UNL     1       0.955  -6.105  -5.961  0.00  0.00    -0.248 OA
ENDBRANCH  11  18
BRANCH   1  22
ATOM     21  C   UNL     1      -0.017   1.425   0.010  0.00  0.00    +0.277 C 
ATOM     22  O   UNL     1       0.002  -0.004   0.002  0.00  0.00    -0.495 OA
ENDBRANCH   1  22
TORSDOF 2
