REMARK  Name = CHEMBL549585
REMARK  2 active torsions:
REMARK  status: ('A' for Active; 'I' for Inactive)
REMARK    1  A    between atoms: C_1  and  C_2
REMARK    2  A    between atoms: C_11  and  C_22
REMARK                            x       y       z     vdW  Elec       q    Type
REMARK                         _______ _______ _______ _____ _____    ______ ____
ROOT
ATOM      1  C   UNL     1      -0.019   1.526   0.010  0.00  0.00    +0.029 C 
ATOM      2  C   UNL     1       0.002  -0.004   0.002  0.00  0.00    +0.087 C 
ATOM      3  C   UNL     1       0.672  -0.473  -1.270  0.00  0.00    +0.123 C 
ATOM      4  N   UNL     1       0.474  -1.880  -1.521  0.00  0.00    -0.341 N 
ATOM      5  C   UNL     1       1.081  -2.888  -0.764  0.00  0.00    +0.055 A 
ATOM      6  C   UNL     1       1.392  -4.141  -1.359  0.00  0.00    +0.020 A 
ATOM      7  C   UNL     1       1.159  -4.551  -2.760  0.00  0.00    +0.010 A 
ATOM      8  C   UNL     1       0.567  -3.664  -3.670  0.00  0.00    +0.013 A 
ATOM      9  C   UNL     1       0.379  -4.089  -4.956  0.00  0.00    +0.029 A 
ATOM     10  C   UNL     1       0.777  -5.381  -5.324  0.00  0.00    +0.075 A 
ATOM     11  N   UNL     1       1.331  -6.207  -4.455  0.00  0.00    -0.247 NA
ATOM     12  C   UNL     1       1.535  -5.842  -3.185  0.00  0.00    +0.072 A 
ATOM     13  C   UNL     1       2.125  -6.744  -2.272  0.00  0.00    +0.029 A 
ATOM     14  C   UNL     1       2.340  -6.370  -0.986  0.00  0.00    +0.018 A 
ATOM     15  C   UNL     1       1.991  -5.103  -0.531  0.00  0.00    +0.023 A 
ATOM     16  S   UNL     1       2.127  -4.280   1.034  0.00  0.00    -0.082 S 
ATOM     17  C   UNL     1       1.404  -2.717   0.572  0.00  0.00    +0.096 A 
ATOM     18  C   UNL     1       1.241  -1.623   1.420  0.00  0.00    +0.253 C 
ATOM     19  O   UNL     1       1.708  -1.761   2.536  0.00  0.00    -0.270 OA
ATOM     20  N   UNL     1       0.664  -0.464   1.198  0.00  0.00    -0.307 N 
ATOM     21  H   UNL     1      -0.109  -2.139  -2.251  0.00  0.00    +0.146 HD
ATOM     22  H   UNL     1       0.683   0.164   1.937  0.00  0.00    +0.149 HD
ENDROOT
BRANCH  10  23
ATOM     23  C   UNL     1       0.571  -5.832  -6.721  0.00  0.00    +0.037 A 
ATOM     24  C   UNL     1      -0.007  -4.986  -7.671  0.00  0.00    +0.124 A 
ATOM     25  N   UNL     1      -0.172  -5.428  -8.906  0.00  0.00    -0.243 NA
ATOM     26  C   UNL     1       0.199  -6.647  -9.245  0.00  0.00    +0.221 A 
ATOM     27  N   UNL     1       0.748  -7.477  -8.380  0.00  0.00    -0.243 NA
ATOM     28  C   UNL     1       0.955  -7.114  -7.126  0.00  0.00    +0.124 A 
ENDBRANCH  10  23
TORSDOF 1
