REMARK  Name = CHEMBL226350
REMARK  2 active torsions:
REMARK  status: ('A' for Active; 'I' for Inactive)
REMARK    1  A    between atoms: C_6  and  C_11
REMARK    2  A    between atoms: C_13  and  C_17
REMARK                            x       y       z     vdW  Elec       q    Type
REMARK                         _______ _______ _______ _____ _____    ______ ____
ROOT
ATOM      1  C   UNL     1       4.982  -2.713  -0.059  0.00  0.00    +0.072 A 
ATOM      2  C   UNL     1       4.999  -4.103  -0.072  0.00  0.00    +0.038 A 
ATOM      3  C   UNL     1       6.230  -4.764  -0.087  0.00  0.00    +0.002 A 
ATOM      4  C   UNL     1       7.398  -3.990  -0.089  0.00  0.00    +0.029 A 
ATOM      5  C   UNL     1       7.294  -2.615  -0.075  0.00  0.00    +0.112 A 
ATOM      6  N   UNL     1       6.116  -2.022  -0.067  0.00  0.00    -0.255 NA
ENDROOT
BRANCH   3   7
ATOM      7  C   UNL     1       6.299  -6.241  -0.101  0.00  0.00    +0.048 A 
ATOM      8  C   UNL     1       5.230  -7.088  -0.106  0.00  0.00    +0.041 A 
ATOM      9  C   UNL     1       5.746  -8.389  -0.119  0.00  0.00    +0.058 A 
ATOM     10  C   UNL     1       7.134  -8.288  -0.120  0.00  0.00    +0.030 A 
ATOM     11  N   UNL     1       7.454  -6.993  -0.116  0.00  0.00    -0.357 N 
ATOM     12  H   UNL     1       8.356  -6.637  -0.121  0.00  0.00    +0.166 HD
ATOM     13  C   UNL     1       8.003  -9.519  -0.127  0.00  0.00    +0.072 C 
ATOM     14  C   UNL     1       7.253 -10.656   0.569  0.00  0.00    +0.110 C 
ATOM     15  N   UNL     1       5.872 -10.781   0.124  0.00  0.00    -0.311 N 
ATOM     16  C   UNL     1       5.088  -9.707  -0.133  0.00  0.00    +0.246 C 
ATOM     17  O   UNL     1       3.899  -9.826  -0.364  0.00  0.00    -0.270 OA
ATOM     18  H   UNL     1       5.500 -11.668   0.007  0.00  0.00    +0.149 HD
ENDBRANCH   3   7
BRANCH   1  24
ATOM     19  C   UNL     1      -0.016   1.357   0.009  0.00  0.00    +0.001 A 
ATOM     20  C   UNL     1       1.168   2.091   0.002  0.00  0.00    +0.001 A 
ATOM     21  C   UNL     1       2.378   1.468  -0.013  0.00  0.00    +0.008 A 
ATOM     22  C   UNL     1       2.437   0.063  -0.021  0.00  0.00    -0.017 A 
ATOM     23  C   UNL     1       3.668  -0.612  -0.036  0.00  0.00    +0.018 A 
ATOM     24  C   UNL     1       3.685  -1.994  -0.043  0.00  0.00    +0.001 A 
ATOM     25  C   UNL     1       2.485  -2.724  -0.036  0.00  0.00    +0.010 A 
ATOM     26  C   UNL     1       1.284  -2.089  -0.022  0.00  0.00    +0.009 A 
ATOM     27  C   UNL     1       1.232  -0.684  -0.013  0.00  0.00    -0.018 A 
ATOM     28  C   UNL     1       0.002  -0.004   0.002  0.00  0.00    +0.008 A 
ENDBRANCH   1  24
TORSDOF 2
