REMARK  Name = CHEMBL442419
REMARK  4 active torsions:
REMARK  status: ('A' for Active; 'I' for Inactive)
REMARK    1  A    between atoms: C_1  and  C_2
REMARK    2  A    between atoms: C_11  and  C_17
REMARK    3  A    between atoms: N_19  and  C_20
REMARK    4  A    between atoms: C_23  and  C_26
REMARK                            x       y       z     vdW  Elec       q    Type
REMARK                         _______ _______ _______ _____ _____    ______ ____
ROOT
ATOM      1  C   UNL     1      -0.017   1.526  -0.001  0.00  0.00    +0.014 C 
ATOM      2  C   UNL     1       0.002  -0.004   0.004  0.00  0.00    +0.036 C 
ATOM      3  C   UNL     1      -1.432  -0.534   0.036  0.00  0.00    +0.112 C 
ATOM      4  N   UNL     1      -2.060  -0.362   1.340  0.00  0.00    -0.310 N 
ATOM      5  C   UNL     1      -1.387  -0.536   2.500  0.00  0.00    +0.261 C 
ATOM      6  O   UNL     1      -1.956  -0.518   3.574  0.00  0.00    -0.269 OA
ATOM      7  C   UNL     1       0.069  -0.747   2.403  0.00  0.00    +0.106 A 
ATOM      8  C   UNL     1       0.732  -0.496   1.226  0.00  0.00    -0.006 A 
ATOM      9  C   UNL     1       2.081  -0.779   1.436  0.00  0.00    +0.005 A 
ATOM     10  C   UNL     1       3.202  -0.704   0.600  0.00  0.00    +0.023 A 
ATOM     11  C   UNL     1       4.427  -1.075   1.156  0.00  0.00    +0.038 A 
ATOM     12  C   UNL     1       4.532  -1.503   2.485  0.00  0.00    +0.015 A 
ATOM     13  C   UNL     1       3.446  -1.582   3.314  0.00  0.00    +0.027 A 
ATOM     14  C   UNL     1       2.206  -1.216   2.786  0.00  0.00    +0.047 A 
ATOM     15  N   UNL     1       0.964  -1.185   3.347  0.00  0.00    -0.350 N 
ATOM     16  H   UNL     1       0.749  -1.431   4.260  0.00  0.00    +0.166 HD
ATOM     17  H   UNL     1      -2.998  -0.114   1.377  0.00  0.00    +0.149 HD
ENDROOT
BRANCH  11  18
ATOM     18  C   UNL     1       5.643  -1.016   0.321  0.00  0.00    +0.248 C 
ATOM     19  O   UNL     1       5.570  -0.646  -0.835  0.00  0.00    -0.270 OA
ATOM     20  N   UNL     1       6.835  -1.370   0.841  0.00  0.00    -0.282 N 
ATOM     21  H   UNL     1       6.905  -1.601   1.780  0.00  0.00    +0.155 HD
BRANCH  20  22
ATOM     22  C   UNL     1       7.967  -1.406   0.028  0.00  0.00    +0.034 A 
ATOM     23  C   UNL     1       8.941  -2.377   0.237  0.00  0.00    +0.024 A 
ATOM     24  C   UNL     1      10.060  -2.415  -0.565  0.00  0.00    +0.015 A 
ATOM     25  C   UNL     1      10.216  -1.478  -1.589  0.00  0.00    +0.037 A 
ATOM     26  C   UNL     1       9.235  -0.503  -1.796  0.00  0.00    +0.015 A 
ATOM     27  C   UNL     1       8.117  -0.474  -0.994  0.00  0.00    +0.024 A 
BRANCH  25  28
ATOM     28  C   UNL     1      11.414  -1.515  -2.450  0.00  0.00    +0.242 C 
ATOM     29  O   UNL     1      12.267  -2.363  -2.268  0.00  0.00    -0.270 OA
ATOM     30  N   UNL     1      11.564  -0.610  -3.437  0.00  0.00    -0.325 N 
ATOM     31  H   UNL     1      10.883   0.066  -3.582  0.00  0.00    +0.145 HD
ATOM     32  H   UNL     1      12.351  -0.635  -4.003  0.00  0.00    +0.145 HD
ENDBRANCH  25  28
ENDBRANCH  20  22
ENDBRANCH  11  18
TORSDOF 3
