REMARK  Name = CHEMBL511410
REMARK  6 active torsions:
REMARK  status: ('A' for Active; 'I' for Inactive)
REMARK    1  A    between atoms: C_3  and  C_8
REMARK    2  A    between atoms: C_5  and  O_7
REMARK    3  A    between atoms: C_8  and  C_9
REMARK    4  A    between atoms: C_8  and  N_12
REMARK    5  A    between atoms: C_14  and  N_19
REMARK    6  A    between atoms: N_19  and  C_20
REMARK                            x       y       z     vdW  Elec       q    Type
REMARK                         _______ _______ _______ _____ _____    ______ ____
ROOT
ATOM      1  N   UNL     1       3.554   3.344   0.874  0.00  0.00    -0.265 NA
ATOM      2  C   UNL     1       4.354   3.464   1.880  0.00  0.00    +0.115 C 
ATOM      3  C   UNL     1       4.556   4.458   3.003  0.00  0.00    +0.198 C 
ATOM      4  C   UNL     1       5.150   3.299   3.774  0.00  0.00    +0.230 C 
ATOM      5  O   UNL     1       5.290   3.001   4.936  0.00  0.00    -0.286 OA
ATOM      6  C   UNL     1       5.481   2.685   2.454  0.00  0.00    +0.246 C 
ATOM      7  O   UNL     1       6.305   1.898   2.038  0.00  0.00    -0.282 OA
ENDROOT
BRANCH   3   8
ATOM      8  N   UNL     1       5.519   5.516   2.691  0.00  0.00    -0.329 N 
ATOM      9  H   UNL     1       6.210   5.363   2.028  0.00  0.00    +0.147 HD
BRANCH   8  10
ATOM     10  C   UNL     1       5.442   6.742   3.345  0.00  0.00    +0.031 A 
ATOM     11  C   UNL     1       4.459   6.981   4.305  0.00  0.00    +0.040 A 
ATOM     12  C   UNL     1       4.417   8.209   4.931  0.00  0.00    +0.084 A 
ATOM     13  N   UNL     1       5.292   9.151   4.631  0.00  0.00    -0.367 N 
ATOM     14  C   UNL     1       6.236   8.965   3.728  0.00  0.00    +0.084 A 
ATOM     15  C   UNL     1       6.349   7.763   3.061  0.00  0.00    +0.040 A 
ATOM     16  H   UNL     1       5.238  10.006   5.087  0.00  0.00    +0.165 HD
ENDBRANCH   8  10
ENDBRANCH   3   8
BRANCH   1  17
ATOM     17  C   UNL     1       3.671   2.190  -0.021  0.00  0.00    +0.221 C 
BRANCH  17  20
ATOM     18  C   UNL     1      -0.017   1.377   0.010  0.00  0.00    +0.004 A 
ATOM     19  C   UNL     1       1.171   2.086   0.002  0.00  0.00    +0.006 A 
ATOM     20  C   UNL     1       2.379   1.415  -0.013  0.00  0.00    -0.011 A 
ATOM     21  C   UNL     1       2.403   0.033  -0.021  0.00  0.00    +0.051 A 
ATOM     22  C   UNL     1       1.214  -0.680  -0.013  0.00  0.00    +0.117 A 
ATOM     23  C   UNL     1       0.002  -0.004   0.002  0.00  0.00    +0.045 A 
BRANCH  22  24
ATOM     24  O   UNL     1       1.235  -2.039  -0.021  0.00  0.00    -0.507 OA
ATOM     25  H   UNL     1       1.249  -2.437   0.860  0.00  0.00    +0.292 HD
ENDBRANCH  22  24
ENDBRANCH  17  20
BRANCH  17  26
ATOM     26  C   UNL     1       3.962   2.668  -1.421  0.00  0.00    +0.240 C 
ATOM     27  O   UNL     1       4.061   3.855  -1.648  0.00  0.00    -0.273 OA
ATOM     28  N   UNL     1       4.111   1.775  -2.420  0.00  0.00    -0.327 N 
ATOM     29  H   UNL     1       4.032   0.826  -2.238  0.00  0.00    +0.145 HD
ATOM     30  H   UNL     1       4.298   2.083  -3.321  0.00  0.00    +0.145 HD
ENDBRANCH  17  26
ENDBRANCH   1  17
TORSDOF 6
