REMARK  Name = CHEMBL226232
REMARK  1 active torsions:
REMARK  status: ('A' for Active; 'I' for Inactive)
REMARK    1  A    between atoms: C_6  and  C_7
REMARK                            x       y       z     vdW  Elec       q    Type
REMARK                         _______ _______ _______ _____ _____    ______ ____
ROOT
ATOM      1  C   UNL     1      -1.256  -0.781   0.010  0.00  0.00    +0.048 A 
ATOM      2  C   UNL     1      -2.515  -0.257   0.020  0.00  0.00    +0.041 A 
ATOM      3  C   UNL     1      -3.402  -1.341   0.024  0.00  0.00    +0.058 A 
ATOM      4  C   UNL     1      -2.640  -2.504   0.019  0.00  0.00    +0.030 A 
ATOM      5  N   UNL     1      -1.352  -2.156   0.004  0.00  0.00    -0.357 N 
ATOM      6  H   UNL     1      -0.603  -2.772  -0.007  0.00  0.00    +0.166 HD
ATOM      7  C   UNL     1      -3.295  -3.862   0.028  0.00  0.00    +0.072 C 
ATOM      8  C   UNL     1      -4.642  -3.755   0.742  0.00  0.00    +0.110 C 
ATOM      9  N   UNL     1      -5.428  -2.611   0.302  0.00  0.00    -0.311 N 
ATOM     10  C   UNL     1      -4.874  -1.405   0.031  0.00  0.00    +0.246 C 
ATOM     11  O   UNL     1      -5.558  -0.424  -0.195  0.00  0.00    -0.270 OA
ATOM     12  H   UNL     1      -6.387  -2.716   0.199  0.00  0.00    +0.149 HD
ENDROOT
BRANCH   1  18
ATOM     13  C   UNL     1      -0.017   1.396   0.010  0.00  0.00    +0.030 A 
ATOM     14  C   UNL     1       1.179   2.081   0.002  0.00  0.00    +0.113 A 
ATOM     15  N   UNL     1       2.330   1.436  -0.013  0.00  0.00    -0.244 NA
ATOM     16  C   UNL     1       2.394   0.117  -0.021  0.00  0.00    +0.130 A 
ATOM     17  C   UNL     1       1.245  -0.648  -0.014  0.00  0.00    +0.050 A 
ATOM     18  C   UNL     1       0.002  -0.004   0.002  0.00  0.00    +0.003 A 
ATOM     19 CL   UNL     1       3.943  -0.666  -0.040  0.00  0.00    -0.062 Cl
ENDBRANCH   1  18
TORSDOF 1
