REMARK  Name = CHEMBL397642
REMARK  6 active torsions:
REMARK  status: ('A' for Active; 'I' for Inactive)
REMARK    1  A    between atoms: C_1  and  C_2
REMARK    2  A    between atoms: C_11  and  C_17
REMARK    3  A    between atoms: C_22  and  C_25
REMARK    4  A    between atoms: C_30  and  N_33
REMARK    5  A    between atoms: N_33  and  C_34
REMARK    6  A    between atoms: N_33  and  C_35
REMARK                            x       y       z     vdW  Elec       q    Type
REMARK                         _______ _______ _______ _____ _____    ______ ____
ROOT
ATOM      1  C   UNL     1       5.795  -0.317   0.461  0.00  0.00    +0.250 C 
ATOM      2  O   UNL     1       5.660  -0.221  -0.743  0.00  0.00    -0.270 OA
ATOM      3  N   UNL     1       6.992  -0.658   0.980  0.00  0.00    -0.261 N 
ATOM      4  C   UNL     1       8.069  -0.898   0.139  0.00  0.00    +0.165 A 
ATOM      5  N   UNL     1       9.303  -1.243   0.448  0.00  0.00    -0.220 NA
ATOM      6  C   UNL     1      10.179  -1.422  -0.544  0.00  0.00    +0.135 A 
ATOM      7  C   UNL     1       9.763  -1.242  -1.834  0.00  0.00    +0.081 A 
ATOM      8  S   UNL     1       8.143  -0.828  -1.642  0.00  0.00    -0.060 S 
ATOM      9  H   UNL     1       7.099  -0.734   1.941  0.00  0.00    +0.157 HD
ENDROOT
BRANCH   1  20
ATOM     10  C   UNL     1       0.352   2.623  -0.127  0.00  0.00    +0.014 C 
ATOM     11  C   UNL     1       0.248   1.142   0.241  0.00  0.00    +0.036 C 
ATOM     12  C   UNL     1      -1.217   0.776   0.482  0.00  0.00    +0.112 C 
ATOM     13  N   UNL     1      -1.724   1.306   1.742  0.00  0.00    -0.310 N 
ATOM     14  C   UNL     1      -0.976   1.342   2.868  0.00  0.00    +0.261 C 
ATOM     15  O   UNL     1      -1.455   1.664   3.939  0.00  0.00    -0.269 OA
ATOM     16  C   UNL     1       0.445   0.973   2.740  0.00  0.00    +0.106 A 
ATOM     17  C   UNL     1       1.031   0.878   1.501  0.00  0.00    -0.006 A 
ATOM     18  C   UNL     1       2.364   0.520   1.693  0.00  0.00    +0.005 A 
ATOM     19  C   UNL     1       3.417   0.289   0.799  0.00  0.00    +0.023 A 
ATOM     20  C   UNL     1       4.649  -0.062   1.356  0.00  0.00    +0.038 A 
ATOM     21  C   UNL     1       4.824  -0.178   2.740  0.00  0.00    +0.015 A 
ATOM     22  C   UNL     1       3.805   0.045   3.626  0.00  0.00    +0.027 A 
ATOM     23  C   UNL     1       2.561   0.398   3.099  0.00  0.00    +0.047 A 
ATOM     24  N   UNL     1       1.374   0.680   3.708  0.00  0.00    -0.350 N 
ATOM     25  H   UNL     1       1.213   0.675   4.664  0.00  0.00    +0.166 HD
ATOM     26  H   UNL     1      -2.632   1.646   1.773  0.00  0.00    +0.149 HD
ENDBRANCH   1  20
BRANCH   6  27
ATOM     27  C   UNL     1      11.570  -1.807  -0.254  0.00  0.00    +0.266 C 
ATOM     28  O   UNL     1      12.399  -1.806  -1.144  0.00  0.00    -0.268 OA
ATOM     29  N   UNL     1      11.924  -2.162   0.997  0.00  0.00    -0.296 N 
ATOM     30  C   UNL     1      13.335  -2.382   1.342  0.00  0.00    +0.106 C 
ATOM     31  C   UNL     1      13.476  -3.769   1.978  0.00  0.00    +0.004 C 
ATOM     32  C   UNL     1      12.514  -3.883   3.162  0.00  0.00    -0.066 C 
ATOM     33  C   UNL     1      11.074  -3.722   2.670  0.00  0.00    +0.004 C 
ATOM     34  C   UNL     1      10.906  -2.329   2.044  0.00  0.00    +0.106 C 
BRANCH  32  35
ATOM     35  N   UNL     1      12.671  -5.199   3.795  0.00  0.00    +0.378 N 
ATOM     36  C   UNL     1      14.053  -5.354   4.269  0.00  0.00    -0.096 C 
ATOM     37  C   UNL     1      11.748  -5.309   4.932  0.00  0.00    -0.096 C 
ATOM     38  H   UNL     1      12.464  -5.923   3.122  0.00  0.00    -0.082 HD
ENDBRANCH  32  35
ENDBRANCH   6  27
TORSDOF 3
