REMARK  Name = CHEMBL388391
REMARK  2 active torsions:
REMARK  status: ('A' for Active; 'I' for Inactive)
REMARK    1  A    between atoms: C_4  and  C_18
REMARK    2  A    between atoms: C_6  and  C_7
REMARK                            x       y       z     vdW  Elec       q    Type
REMARK                         _______ _______ _______ _____ _____    ______ ____
ROOT
ATOM      1  C   UNL     1      -1.256  -0.780   0.010  0.00  0.00    +0.048 A 
ATOM      2  C   UNL     1      -1.353  -2.140   0.010  0.00  0.00    +0.041 A 
ATOM      3  C   UNL     1      -2.720  -2.448   0.021  0.00  0.00    +0.058 A 
ATOM      4  C   UNL     1      -3.418  -1.244   0.025  0.00  0.00    +0.030 A 
ATOM      5  N   UNL     1      -2.529  -0.250   0.026  0.00  0.00    -0.357 N 
ATOM      6  H   UNL     1      -2.743   0.696   0.034  0.00  0.00    +0.166 HD
ATOM      7  C   UNL     1      -4.925  -1.220   0.032  0.00  0.00    +0.072 C 
ATOM      8  C   UNL     1      -5.441  -2.477  -0.670  0.00  0.00    +0.110 C 
ATOM      9  N   UNL     1      -4.766  -3.690  -0.230  0.00  0.00    -0.311 N 
ATOM     10  C   UNL     1      -3.437  -3.734   0.028  0.00  0.00    +0.246 C 
ATOM     11  O   UNL     1      -2.865  -4.783   0.256  0.00  0.00    -0.270 OA
ATOM     12  H   UNL     1      -5.289  -4.499  -0.116  0.00  0.00    +0.149 HD
ENDROOT
BRANCH   1  18
ATOM     13  C   UNL     1      -0.017   1.397   0.010  0.00  0.00    +0.029 A 
ATOM     14  C   UNL     1       1.177   2.087   0.002  0.00  0.00    +0.112 A 
ATOM     15  N   UNL     1       2.331   1.448  -0.012  0.00  0.00    -0.255 NA
ATOM     16  C   UNL     1       2.400   0.122  -0.020  0.00  0.00    +0.072 A 
ATOM     17  C   UNL     1       1.242  -0.649  -0.013  0.00  0.00    +0.038 A 
ATOM     18  C   UNL     1       0.002  -0.004   0.002  0.00  0.00    +0.002 A 
BRANCH  16  19
ATOM     19  C   UNL     1       3.724  -0.544  -0.037  0.00  0.00    +0.007 A 
ATOM     20  C   UNL     1       4.897   0.199   0.065  0.00  0.00    +0.017 A 
ATOM     21  C   UNL     1       6.085  -0.444   0.046  0.00  0.00    +0.046 A 
ATOM     22  S   UNL     1       5.590  -2.151  -0.119  0.00  0.00    -0.104 S 
ATOM     23  C   UNL     1       3.822  -1.904  -0.147  0.00  0.00    +0.055 A 
ENDBRANCH  16  19
ENDBRANCH   1  18
TORSDOF 2
