REMARK  Name = CHEMBL455396
REMARK  4 active torsions:
REMARK  status: ('A' for Active; 'I' for Inactive)
REMARK    1  A    between atoms: C_1  and  O_2
REMARK    2  A    between atoms: O_2  and  C_3
REMARK    3  A    between atoms: C_6  and  C_9
REMARK    4  A    between atoms: C_11  and  C_15
REMARK                            x       y       z     vdW  Elec       q    Type
REMARK                         _______ _______ _______ _____ _____    ______ ____
ROOT
ATOM      1  C   UNL     1      -4.963  -2.619   0.037  0.00  0.00    +0.072 A 
ATOM      2  C   UNL     1      -5.008  -4.009   0.041  0.00  0.00    +0.038 A 
ATOM      3  C   UNL     1      -6.254  -4.644   0.051  0.00  0.00    +0.002 A 
ATOM      4  C   UNL     1      -7.406  -3.845   0.055  0.00  0.00    +0.029 A 
ATOM      5  C   UNL     1      -7.272  -2.473   0.050  0.00  0.00    +0.112 A 
ATOM      6  N   UNL     1      -6.082  -1.905   0.047  0.00  0.00    -0.255 NA
ENDROOT
BRANCH   3   7
ATOM      7  C   UNL     1      -6.354  -6.118   0.055  0.00  0.00    +0.049 A 
ATOM      8  C   UNL     1      -7.511  -6.831   0.059  0.00  0.00    +0.043 A 
ATOM      9  C   UNL     1      -7.164  -8.198   0.062  0.00  0.00    +0.083 A 
ATOM     10  C   UNL     1      -5.762  -8.272   0.060  0.00  0.00    +0.145 A 
ATOM     11  N   UNL     1      -5.288  -6.993   0.050  0.00  0.00    -0.339 N 
ATOM     12  H   UNL     1      -4.351  -6.740   0.044  0.00  0.00    +0.167 HD
ATOM     13  N   UNL     1      -5.174  -9.478   0.062  0.00  0.00    -0.220 NA
ATOM     14  C   UNL     1      -5.865 -10.581   0.066  0.00  0.00    +0.201 A 
ATOM     15  N   UNL     1      -7.221 -10.605   0.068  0.00  0.00    -0.313 N 
ATOM     16  H   UNL     1      -7.690 -11.454   0.071  0.00  0.00    +0.170 HD
ATOM     17  C   UNL     1      -7.923  -9.447   0.066  0.00  0.00    +0.261 A 
ATOM     18  O   UNL     1      -9.141  -9.446   0.068  0.00  0.00    -0.267 OA
ENDBRANCH   3   7
BRANCH   1  22
ATOM     19  C   UNL     1      -1.200  -0.637   0.010  0.00  0.00    +0.120 A 
ATOM     20  C   UNL     1      -2.374   0.104   0.020  0.00  0.00    +0.046 A 
ATOM     21  C   UNL     1      -3.595  -0.535   0.028  0.00  0.00    +0.013 A 
ATOM     22  C   UNL     1      -3.651  -1.928   0.027  0.00  0.00    +0.001 A 
ATOM     23  C   UNL     1      -2.470  -2.670   0.017  0.00  0.00    +0.013 A 
ATOM     24  C   UNL     1      -1.252  -2.025   0.003  0.00  0.00    +0.046 A 
BRANCH  19  26
ATOM     25  C   UNL     1      -0.017   1.425   0.010  0.00  0.00    +0.277 C 
ATOM     26  O   UNL     1       0.002  -0.004   0.002  0.00  0.00    -0.495 OA
ENDBRANCH  19  26
ENDBRANCH   1  22
TORSDOF 3
