REMARK  Name = CHEMBL226351
REMARK  2 active torsions:
REMARK  status: ('A' for Active; 'I' for Inactive)
REMARK    1  A    between atoms: C_8  and  C_10
REMARK    2  A    between atoms: C_12  and  C_16
REMARK                            x       y       z     vdW  Elec       q    Type
REMARK                         _______ _______ _______ _____ _____    ______ ____
ROOT
ATOM      1  C   UNL     1       3.173  -4.025  -0.051  0.00  0.00    +0.078 A 
ATOM      2  C   UNL     1       4.537  -4.309  -0.060  0.00  0.00    +0.038 A 
ATOM      3  C   UNL     1       4.948  -5.644  -0.071  0.00  0.00    +0.002 A 
ATOM      4  C   UNL     1       3.963  -6.642  -0.072  0.00  0.00    +0.029 A 
ATOM      5  C   UNL     1       2.633  -6.276  -0.062  0.00  0.00    +0.112 A 
ATOM      6  N   UNL     1       2.277  -5.006  -0.047  0.00  0.00    -0.254 NA
ENDROOT
BRANCH   3   7
ATOM      7  C   UNL     1       6.383  -5.996  -0.081  0.00  0.00    +0.048 A 
ATOM      8  C   UNL     1       7.420  -5.110  -0.076  0.00  0.00    +0.041 A 
ATOM      9  C   UNL     1       8.598  -5.867  -0.089  0.00  0.00    +0.058 A 
ATOM     10  C   UNL     1       8.231  -7.209  -0.104  0.00  0.00    +0.030 A 
ATOM     11  N   UNL     1       6.899  -7.274  -0.092  0.00  0.00    -0.357 N 
ATOM     12  H   UNL     1       6.376  -8.091  -0.094  0.00  0.00    +0.166 HD
ATOM     13  C   UNL     1       9.272  -8.299  -0.126  0.00  0.00    +0.072 C 
ATOM     14  C   UNL     1      10.523  -7.772  -0.830  0.00  0.00    +0.110 C 
ATOM     15  N   UNL     1      10.917  -6.448  -0.370  0.00  0.00    -0.311 N 
ATOM     16  C   UNL     1      10.019  -5.475  -0.087  0.00  0.00    +0.246 C 
ATOM     17  O   UNL     1      10.367  -4.336   0.156  0.00  0.00    -0.270 OA
ATOM     18  H   UNL     1      11.862  -6.255  -0.262  0.00  0.00    +0.149 HD
ENDBRANCH   3   7
BRANCH   1  26
ATOM     19  C   UNL     1      -0.016   1.355   0.009  0.00  0.00    +0.001 A 
ATOM     20  C   UNL     1       1.157   2.097   0.002  0.00  0.00    +0.001 A 
ATOM     21  C   UNL     1       2.375   1.446  -0.013  0.00  0.00    +0.015 A 
ATOM     22  C   UNL     1       2.408   0.068  -0.021  0.00  0.00    +0.020 A 
ATOM     23  C   UNL     1       1.230  -0.711  -0.013  0.00  0.00    -0.010 A 
ATOM     24  C   UNL     1       0.002  -0.004   0.002  0.00  0.00    +0.009 A 
ATOM     25  C   UNL     1       1.449  -2.147  -0.024  0.00  0.00    +0.026 A 
ATOM     26  C   UNL     1       2.719  -2.618  -0.039  0.00  0.00    +0.039 A 
ATOM     27  S   UNL     1       3.711  -1.137  -0.040  0.00  0.00    -0.087 S 
ENDBRANCH   1  26
TORSDOF 2
