REMARK  Name = CHEMBL181212
REMARK  4 active torsions:
REMARK  status: ('A' for Active; 'I' for Inactive)
REMARK    1  A    between atoms: C_5  and  O_8
REMARK    2  A    between atoms: C_6  and  O_7
REMARK    3  A    between atoms: C_13  and  C_18
REMARK    4  A    between atoms: C_14  and  N_17
REMARK                            x       y       z     vdW  Elec       q    Type
REMARK                         _______ _______ _______ _____ _____    ______ ____
ROOT
ATOM      1  C   UNL     1      -0.017   1.379   0.010  0.00  0.00    +0.056 A 
ATOM      2  C   UNL     1       1.170   2.096   0.002  0.00  0.00    -0.001 A 
ATOM      3  C   UNL     1       2.381   1.427  -0.013  0.00  0.00    +0.128 A 
ATOM      4  C   UNL     1       2.403   0.036  -0.020  0.00  0.00    +0.095 A 
ATOM      5  C   UNL     1       1.219  -0.680  -0.013  0.00  0.00    +0.162 A 
ATOM      6  C   UNL     1       0.002  -0.004   0.002  0.00  0.00    +0.159 A 
ATOM      7  O   UNL     1       3.572   2.090  -0.022  0.00  0.00    -0.487 OA
ATOM      8  C   UNL     1       3.540   3.466  -0.398  0.00  0.00    +0.192 C 
ATOM      9  C   UNL     1       4.869   4.127  -0.102  0.00  0.00    +0.090 C 
ATOM     10  C   UNL     1       4.910   5.586  -0.335  0.00  0.00    +0.036 C 
ATOM     11  C   UNL     1       3.655   6.328  -0.053  0.00  0.00    +0.088 C 
ATOM     12  C   UNL     1       2.515   5.645   0.289  0.00  0.00    +0.028 C 
ATOM     13  C   UNL     1       2.460   4.160   0.438  0.00  0.00    +0.080 C 
ATOM     14  C   UNL     1       1.101   3.605   0.011  0.00  0.00    +0.052 C 
ATOM     15  N   UNL     1       5.991   6.190  -0.764  0.00  0.00    -0.400 N 
ATOM     16  H   UNL     1       6.796   5.678  -0.939  0.00  0.00    +0.156 HD
ATOM     17  H   UNL     1       5.986   7.149  -0.908  0.00  0.00    +0.156 HD
ENDROOT
BRANCH  12  18
ATOM     18  N   UNL     1       1.376   6.358   0.503  0.00  0.00    -0.360 N 
ATOM     19  H   UNL     1       1.384   7.323   0.412  0.00  0.00    +0.142 HD
ATOM     20  H   UNL     1       0.556   5.900   0.746  0.00  0.00    +0.142 HD
ENDBRANCH  12  18
BRANCH   6  21
ATOM     21  O   UNL     1      -1.166  -0.702   0.009  0.00  0.00    -0.503 OA
ATOM     22  H   UNL     1      -1.512  -0.899  -0.872  0.00  0.00    +0.292 HD
ENDBRANCH   6  21
BRANCH   5  23
ATOM     23  O   UNL     1       1.244  -2.039  -0.021  0.00  0.00    -0.503 OA
ATOM     24  H   UNL     1       1.259  -2.438   0.861  0.00  0.00    +0.292 HD
ENDBRANCH   5  23
BRANCH  11  25
ATOM     25  C   UNL     1       3.634   7.757  -0.138  0.00  0.00    +0.102 C 
ATOM     26  N   UNL     1       3.617   8.891  -0.205  0.00  0.00    -0.191 NA
ENDBRANCH  11  25
TORSDOF 4
