REMARK  Name = CHEMBL181069
REMARK  2 active torsions:
REMARK  status: ('A' for Active; 'I' for Inactive)
REMARK    1  A    between atoms: C_15  and  C_20
REMARK    2  A    between atoms: C_16  and  N_19
REMARK                            x       y       z     vdW  Elec       q    Type
REMARK                         _______ _______ _______ _____ _____    ______ ____
ROOT
ATOM      1  C   UNL     1      -0.017   1.381   0.010  0.00  0.00    +0.056 A 
ATOM      2  C   UNL     1       1.169   2.098   0.002  0.00  0.00    -0.001 A 
ATOM      3  C   UNL     1       2.380   1.431  -0.008  0.00  0.00    +0.128 A 
ATOM      4  C   UNL     1       2.402   0.040  -0.023  0.00  0.00    +0.095 A 
ATOM      5  C   UNL     1       1.218  -0.678  -0.019  0.00  0.00    +0.166 A 
ATOM      6  C   UNL     1       0.002  -0.004   0.002  0.00  0.00    +0.163 A 
ATOM      7  O   UNL     1      -1.174  -0.690   0.018  0.00  0.00    -0.485 OA
ATOM      8  C   UNL     1      -1.121  -2.066  -0.375  0.00  0.00    +0.270 C 
ATOM      9  C   UNL     1       0.064  -2.726   0.343  0.00  0.00    +0.270 C 
ATOM     10  O   UNL     1       1.260  -2.038  -0.040  0.00  0.00    -0.485 OA
ATOM     11  O   UNL     1       3.563   2.096   0.009  0.00  0.00    -0.487 OA
ATOM     12  C   UNL     1       3.574   3.481  -0.351  0.00  0.00    +0.188 C 
ATOM     13  C   UNL     1       4.916   4.082   0.102  0.00  0.00    +0.101 C 
ATOM     14  C   UNL     1       5.077   3.759   1.573  0.00  0.00    +0.055 C 
ATOM     15  C   UNL     1       3.896   3.896   2.443  0.00  0.00    +0.089 C 
ATOM     16  C   UNL     1       2.654   4.093   1.889  0.00  0.00    +0.028 C 
ATOM     17  C   UNL     1       2.451   4.191   0.408  0.00  0.00    +0.079 C 
ATOM     18  C   UNL     1       1.105   3.604  -0.002  0.00  0.00    +0.052 C 
ATOM     19  N   UNL     1       6.220   3.372   2.052  0.00  0.00    -0.303 NA
ATOM     20  H   UNL     1       6.306   3.169   2.997  0.00  0.00    +0.186 HD
ENDROOT
BRANCH  16  21
ATOM     21  N   UNL     1       1.576   4.201   2.710  0.00  0.00    -0.360 N 
ATOM     22  H   UNL     1       1.691   4.140   3.671  0.00  0.00    +0.142 HD
ATOM     23  H   UNL     1       0.693   4.340   2.335  0.00  0.00    +0.142 HD
ENDBRANCH  16  21
BRANCH  15  24
ATOM     24  C   UNL     1       4.042   3.824   3.865  0.00  0.00    +0.102 C 
ATOM     25  N   UNL     1       4.158   3.766   4.994  0.00  0.00    -0.191 NA
ENDBRANCH  15  24
TORSDOF 2
