REMARK  Name = CHEMBL467532
REMARK  6 active torsions:
REMARK  status: ('A' for Active; 'I' for Inactive)
REMARK    1  A    between atoms: C_1  and  C_2
REMARK    2  A    between atoms: C_2  and  C_3
REMARK    3  A    between atoms: C_2  and  N_10
REMARK    4  A    between atoms: C_7  and  O_9
REMARK    5  A    between atoms: C_12  and  N_17
REMARK    6  A    between atoms: N_17  and  C_18
REMARK                            x       y       z     vdW  Elec       q    Type
REMARK                         _______ _______ _______ _____ _____    ______ ____
ROOT
ATOM      1  N   UNL     1       0.688  -0.476  -1.203  0.00  0.00    -0.274 NA
ATOM      2  C   UNL     1       0.063  -1.222  -2.051  0.00  0.00    +0.114 C 
ATOM      3  C   UNL     1       0.393  -1.900  -3.363  0.00  0.00    +0.198 C 
ATOM      4  C   UNL     1      -0.698  -2.885  -3.002  0.00  0.00    +0.230 C 
ATOM      5  O   UNL     1      -0.962  -4.034  -3.266  0.00  0.00    -0.286 OA
ATOM      6  C   UNL     1      -1.301  -1.803  -2.170  0.00  0.00    +0.246 C 
ATOM      7  O   UNL     1      -2.410  -1.524  -1.768  0.00  0.00    -0.282 OA
ENDROOT
BRANCH   1   9
ATOM      8  C   UNL     1      -0.019   1.526   0.010  0.00  0.00    +0.038 C 
ATOM      9  C   UNL     1       0.002  -0.004   0.002  0.00  0.00    +0.133 C 
BRANCH   9  10
ATOM     10  C   UNL     1       0.731  -0.503   1.223  0.00  0.00    -0.020 A 
ATOM     11  C   UNL     1       2.114  -0.513   1.246  0.00  0.00    +0.006 A 
ATOM     12  C   UNL     1       2.785  -0.971   2.365  0.00  0.00    +0.004 A 
ATOM     13  C   UNL     1       2.076  -1.419   3.462  0.00  0.00    +0.045 A 
ATOM     14  C   UNL     1       0.689  -1.410   3.442  0.00  0.00    +0.117 A 
ATOM     15  C   UNL     1       0.017  -0.945   2.320  0.00  0.00    +0.051 A 
BRANCH  14  16
ATOM     16  O   UNL     1      -0.011  -1.851   4.520  0.00  0.00    -0.507 OA
ATOM     17  H   UNL     1      -0.213  -1.161   5.166  0.00  0.00    +0.292 HD
ENDBRANCH  14  16
ENDBRANCH   9  10
ENDBRANCH   1   9
BRANCH   3  18
ATOM     18  N   UNL     1       0.089  -1.087  -4.543  0.00  0.00    -0.329 N 
ATOM     19  H   UNL     1      -0.590  -0.396  -4.493  0.00  0.00    +0.147 HD
BRANCH  18  20
ATOM     20  C   UNL     1       0.774  -1.304  -5.734  0.00  0.00    +0.031 A 
ATOM     21  C   UNL     1       1.750  -2.296  -5.827  0.00  0.00    +0.040 A 
ATOM     22  C   UNL     1       2.406  -2.481  -7.026  0.00  0.00    +0.084 A 
ATOM     23  N   UNL     1       2.120  -1.733  -8.075  0.00  0.00    -0.367 N 
ATOM     24  C   UNL     1       1.204  -0.784  -8.027  0.00  0.00    +0.084 A 
ATOM     25  C   UNL     1       0.499  -0.540  -6.868  0.00  0.00    +0.040 A 
ATOM     26  H   UNL     1       2.598  -1.885  -8.906  0.00  0.00    +0.165 HD
ENDBRANCH  18  20
ENDBRANCH   3  18
TORSDOF 5
