REMARK  Name = CHEMBL467532
REMARK  6 active torsions:
REMARK  status: ('A' for Active; 'I' for Inactive)
REMARK    1  A    between atoms: C_1  and  C_2
REMARK    2  A    between atoms: C_2  and  C_3
REMARK    3  A    between atoms: C_2  and  N_10
REMARK    4  A    between atoms: C_7  and  O_9
REMARK    5  A    between atoms: C_12  and  N_17
REMARK    6  A    between atoms: N_17  and  C_18
REMARK                            x       y       z     vdW  Elec       q    Type
REMARK                         _______ _______ _______ _____ _____    ______ ____
ROOT
ATOM      1  N   UNL     1       0.688  -0.476  -1.203  0.00  0.00    -0.274 NA
ATOM      2  C   UNL     1       0.063  -1.222  -2.051  0.00  0.00    +0.114 C 
ATOM      3  C   UNL     1      -1.327  -1.808  -2.175  0.00  0.00    +0.198 C 
ATOM      4  C   UNL     1      -1.070  -1.818  -3.666  0.00  0.00    +0.230 C 
ATOM      5  O   UNL     1      -1.741  -1.785  -4.670  0.00  0.00    -0.286 OA
ATOM      6  C   UNL     1       0.385  -1.883  -3.343  0.00  0.00    +0.246 C 
ATOM      7  O   UNL     1       1.386  -2.292  -3.892  0.00  0.00    -0.282 OA
ENDROOT
BRANCH   1   9
ATOM      8  C   UNL     1      -0.019   1.526   0.010  0.00  0.00    +0.038 C 
ATOM      9  C   UNL     1       0.002  -0.004   0.002  0.00  0.00    +0.133 C 
BRANCH   9  10
ATOM     10  C   UNL     1       0.731  -0.503   1.223  0.00  0.00    -0.020 A 
ATOM     11  C   UNL     1       2.114  -0.513   1.246  0.00  0.00    +0.006 A 
ATOM     12  C   UNL     1       2.785  -0.971   2.365  0.00  0.00    +0.004 A 
ATOM     13  C   UNL     1       2.076  -1.419   3.462  0.00  0.00    +0.045 A 
ATOM     14  C   UNL     1       0.689  -1.410   3.442  0.00  0.00    +0.117 A 
ATOM     15  C   UNL     1       0.017  -0.945   2.320  0.00  0.00    +0.051 A 
BRANCH  14  16
ATOM     16  O   UNL     1      -0.011  -1.851   4.520  0.00  0.00    -0.507 OA
ATOM     17  H   UNL     1      -0.213  -1.161   5.166  0.00  0.00    +0.292 HD
ENDBRANCH  14  16
ENDBRANCH   9  10
ENDBRANCH   1   9
BRANCH   3  18
ATOM     18  N   UNL     1      -1.461  -3.144  -1.589  0.00  0.00    -0.329 N 
ATOM     19  H   UNL     1      -0.682  -3.716  -1.504  0.00  0.00    +0.147 HD
BRANCH  18  20
ATOM     20  C   UNL     1      -2.704  -3.593  -1.155  0.00  0.00    +0.031 A 
ATOM     21  C   UNL     1      -3.837  -2.788  -1.274  0.00  0.00    +0.040 A 
ATOM     22  C   UNL     1      -5.051  -3.269  -0.832  0.00  0.00    +0.084 A 
ATOM     23  N   UNL     1      -5.149  -4.474  -0.302  0.00  0.00    -0.367 N 
ATOM     24  C   UNL     1      -4.101  -5.266  -0.171  0.00  0.00    +0.084 A 
ATOM     25  C   UNL     1      -2.852  -4.861  -0.594  0.00  0.00    +0.040 A 
ATOM     26  H   UNL     1      -6.016  -4.787   0.000  0.00  0.00    +0.165 HD
ENDBRANCH  18  20
ENDBRANCH   3  18
TORSDOF 5
