REMARK  Name = CHEMBL178413
REMARK  4 active torsions:
REMARK  status: ('A' for Active; 'I' for Inactive)
REMARK    1  A    between atoms: C_5  and  C_8
REMARK    2  A    between atoms: C_6  and  O_7
REMARK    3  A    between atoms: C_18  and  C_23
REMARK    4  A    between atoms: C_19  and  N_22
REMARK                            x       y       z     vdW  Elec       q    Type
REMARK                         _______ _______ _______ _____ _____    ______ ____
ROOT
ATOM      1  C   UNL     1       0.068   1.220   0.143  0.00  0.00    +0.053 A 
ATOM      2  C   UNL     1       1.232   1.970   0.100  0.00  0.00    -0.002 A 
ATOM      3  C   UNL     1       2.462   1.338   0.115  0.00  0.00    +0.125 A 
ATOM      4  C   UNL     1       2.523  -0.052   0.161  0.00  0.00    +0.055 A 
ATOM      5  C   UNL     1       1.365  -0.799   0.202  0.00  0.00    +0.028 A 
ATOM      6  C   UNL     1       0.131  -0.164   0.195  0.00  0.00    +0.123 A 
ATOM      7  O   UNL     1       3.625   2.036   0.100  0.00  0.00    -0.487 OA
ATOM      8  C   UNL     1       3.603   3.406  -0.313  0.00  0.00    +0.192 C 
ATOM      9  C   UNL     1       4.899   4.047   0.167  0.00  0.00    +0.090 C 
ATOM     10  C   UNL     1       5.109   4.006   1.629  0.00  0.00    +0.036 C 
ATOM     11  C   UNL     1       3.891   4.133   2.471  0.00  0.00    +0.088 C 
ATOM     12  C   UNL     1       2.654   4.166   1.879  0.00  0.00    +0.028 C 
ATOM     13  C   UNL     1       2.453   4.117   0.401  0.00  0.00    +0.080 C 
ATOM     14  C   UNL     1       1.125   3.471   0.029  0.00  0.00    +0.052 C 
ATOM     15  N   UNL     1       6.302   3.866   2.154  0.00  0.00    -0.400 N 
ATOM     16  H   UNL     1       7.079   3.785   1.578  0.00  0.00    +0.156 HD
ATOM     17  H   UNL     1       6.408   3.843   3.117  0.00  0.00    +0.156 HD
ENDROOT
BRANCH   5  18
ATOM     18  C   UNL     1       1.438  -2.303   0.253  0.00  0.00    +0.177 C 
ATOM     19  C   UNL     1       1.327  -2.869  -1.165  0.00  0.00    +0.196 C 
ATOM     20  O   UNL     1       1.510  -4.288  -1.120  0.00  0.00    -0.375 OA
ATOM     21  C   UNL     1       2.761  -4.686  -0.552  0.00  0.00    +0.188 C 
ATOM     22  C   UNL     1       2.872  -4.120   0.866  0.00  0.00    +0.188 C 
ATOM     23  O   UNL     1       2.689  -2.701   0.821  0.00  0.00    -0.367 OA
ENDBRANCH   5  18
BRANCH  12  24
ATOM     24  N   UNL     1       1.556   4.247   2.679  0.00  0.00    -0.360 N 
ATOM     25  H   UNL     1       1.650   4.162   3.641  0.00  0.00    +0.142 HD
ATOM     26  H   UNL     1       0.680   4.390   2.288  0.00  0.00    +0.142 HD
ENDBRANCH  12  24
BRANCH   6  27
ATOM     27  O   UNL     1      -1.013  -0.897   0.240  0.00  0.00    -0.506 OA
ATOM     28  H   UNL     1      -1.357  -1.143  -0.630  0.00  0.00    +0.292 HD
ENDBRANCH   6  27
BRANCH  11  29
ATOM     29  C   UNL     1       4.009   4.220   3.895  0.00  0.00    +0.102 C 
ATOM     30  N   UNL     1       4.102   4.289   5.025  0.00  0.00    -0.191 NA
ENDBRANCH  11  29
TORSDOF 4
