REMARK  Name = CHEMBL562754
REMARK  1 active torsions:
REMARK  status: ('A' for Active; 'I' for Inactive)
REMARK    1  A    between atoms: C_1  and  C_2
REMARK                            x       y       z     vdW  Elec       q    Type
REMARK                         _______ _______ _______ _____ _____    ______ ____
ROOT
ATOM      1  C   UNL     1      -0.019   1.526   0.010  0.00  0.00    +0.029 C 
ATOM      2  C   UNL     1       0.002  -0.004   0.002  0.00  0.00    +0.087 C 
ATOM      3  C   UNL     1       0.672  -0.473  -1.270  0.00  0.00    +0.123 C 
ATOM      4  N   UNL     1       0.478  -1.881  -1.516  0.00  0.00    -0.341 N 
ATOM      5  C   UNL     1       1.087  -2.885  -0.758  0.00  0.00    +0.055 A 
ATOM      6  C   UNL     1       1.418  -4.184  -1.363  0.00  0.00    +0.018 A 
ATOM      7  C   UNL     1       2.017  -5.124  -0.503  0.00  0.00    +0.022 A 
ATOM      8  C   UNL     1       2.373  -6.386  -0.936  0.00  0.00    +0.019 A 
ATOM      9  C   UNL     1       2.146  -6.754  -2.244  0.00  0.00    +0.047 A 
ATOM     10  C   UNL     1       1.557  -5.847  -3.134  0.00  0.00    +0.124 A 
ATOM     11  C   UNL     1       1.208  -4.590  -2.699  0.00  0.00    +0.007 A 
ATOM     12  C   UNL     1       0.625  -3.845  -3.884  0.00  0.00    +0.080 C 
ATOM     13  C   UNL     1       1.075  -4.732  -5.069  0.00  0.00    +0.234 C 
ATOM     14  O   UNL     1       1.244  -6.019  -4.452  0.00  0.00    -0.491 OA
ATOM     15  S   UNL     1       2.137  -4.275   1.047  0.00  0.00    -0.082 S 
ATOM     16  C   UNL     1       1.409  -2.718   0.574  0.00  0.00    +0.096 A 
ATOM     17  C   UNL     1       1.241  -1.621   1.422  0.00  0.00    +0.253 C 
ATOM     18  O   UNL     1       1.703  -1.760   2.540  0.00  0.00    -0.270 OA
ATOM     19  N   UNL     1       0.664  -0.464   1.198  0.00  0.00    -0.307 N 
ATOM     20  H   UNL     1      -0.105  -2.145  -2.245  0.00  0.00    +0.146 HD
ATOM     21  H   UNL     1       0.684   0.164   1.936  0.00  0.00    +0.149 HD
ENDROOT
TORSDOF 0
