REMARK  Name = CHEMBL552339
REMARK  2 active torsions:
REMARK  status: ('A' for Active; 'I' for Inactive)
REMARK    1  A    between atoms: C_1  and  C_2
REMARK    2  A    between atoms: C_11  and  C_22
REMARK                            x       y       z     vdW  Elec       q    Type
REMARK                         _______ _______ _______ _____ _____    ______ ____
ROOT
ATOM      1  C   UNL     1      -0.019   1.526   0.010  0.00  0.00    +0.029 C 
ATOM      2  C   UNL     1       0.002  -0.004   0.002  0.00  0.00    +0.087 C 
ATOM      3  C   UNL     1       0.672  -0.473  -1.270  0.00  0.00    +0.123 C 
ATOM      4  N   UNL     1       0.474  -1.880  -1.521  0.00  0.00    -0.341 N 
ATOM      5  C   UNL     1       1.081  -2.888  -0.764  0.00  0.00    +0.055 A 
ATOM      6  C   UNL     1       1.395  -4.141  -1.360  0.00  0.00    +0.020 A 
ATOM      7  C   UNL     1       1.166  -4.548  -2.762  0.00  0.00    +0.010 A 
ATOM      8  C   UNL     1       0.575  -3.662  -3.672  0.00  0.00    +0.013 A 
ATOM      9  C   UNL     1       0.391  -4.086  -4.959  0.00  0.00    +0.029 A 
ATOM     10  C   UNL     1       0.795  -5.376  -5.328  0.00  0.00    +0.072 A 
ATOM     11  N   UNL     1       1.348  -6.201  -4.458  0.00  0.00    -0.247 NA
ATOM     12  C   UNL     1       1.546  -5.838  -3.188  0.00  0.00    +0.072 A 
ATOM     13  C   UNL     1       2.132  -6.742  -2.273  0.00  0.00    +0.029 A 
ATOM     14  C   UNL     1       2.342  -6.370  -0.985  0.00  0.00    +0.018 A 
ATOM     15  C   UNL     1       1.991  -5.103  -0.531  0.00  0.00    +0.023 A 
ATOM     16  S   UNL     1       2.124  -4.281   1.036  0.00  0.00    -0.082 S 
ATOM     17  C   UNL     1       1.403  -2.717   0.572  0.00  0.00    +0.096 A 
ATOM     18  C   UNL     1       1.241  -1.623   1.420  0.00  0.00    +0.253 C 
ATOM     19  O   UNL     1       1.708  -1.761   2.537  0.00  0.00    -0.270 OA
ATOM     20  N   UNL     1       0.664  -0.464   1.198  0.00  0.00    -0.307 N 
ATOM     21  H   UNL     1      -0.109  -2.140  -2.251  0.00  0.00    +0.146 HD
ATOM     22  H   UNL     1       0.683   0.164   1.937  0.00  0.00    +0.149 HD
ENDROOT
BRANCH  10  23
ATOM     23  C   UNL     1       0.595  -5.825  -6.727  0.00  0.00    +0.003 A 
ATOM     24  C   UNL     1       0.018  -4.978  -7.678  0.00  0.00    +0.030 A 
ATOM     25  C   UNL     1      -0.149  -5.436  -8.969  0.00  0.00    +0.111 A 
ATOM     26  N   UNL     1       0.228  -6.654  -9.309  0.00  0.00    -0.263 NA
ATOM     27  C   UNL     1       0.776  -7.484  -8.443  0.00  0.00    +0.111 A 
ATOM     28  C   UNL     1       0.985  -7.105  -7.133  0.00  0.00    +0.030 A 
ENDBRANCH  10  23
TORSDOF 1
