REMARK  Name = CHEMBL404224
REMARK  3 active torsions:
REMARK  status: ('A' for Active; 'I' for Inactive)
REMARK    1  A    between atoms: C_3  and  C_18
REMARK    2  A    between atoms: C_11  and  C_16
REMARK    3  A    between atoms: C_16  and  N_17
REMARK                            x       y       z     vdW  Elec       q    Type
REMARK                         _______ _______ _______ _____ _____    ______ ____
ROOT
ATOM      1  C   UNL     1      -0.017   1.397   0.010  0.00  0.00    +0.011 A 
ATOM      2  C   UNL     1       1.151   2.097   0.002  0.00  0.00    +0.014 A 
ATOM      3  C   UNL     1       2.381   1.423  -0.013  0.00  0.00    +0.039 A 
ATOM      4  C   UNL     1       2.421   0.033  -0.021  0.00  0.00    +0.039 A 
ATOM      5  C   UNL     1       1.236  -0.693  -0.013  0.00  0.00    +0.050 A 
ATOM      6  C   UNL     1       0.002  -0.004   0.002  0.00  0.00    +0.001 A 
ATOM      7  C   UNL     1      -1.023  -0.985   0.005  0.00  0.00    +0.041 A 
ATOM      8  C   UNL     1      -0.430  -2.193  -0.007  0.00  0.00    +0.105 A 
ATOM      9  N   UNL     1       0.952  -2.030  -0.016  0.00  0.00    -0.335 N 
ATOM     10  C   UNL     1       1.859  -3.181  -0.027  0.00  0.00    +0.143 C 
ATOM     11  C   UNL     1       1.194  -4.351   0.697  0.00  0.00    +0.075 C 
ATOM     12  N   UNL     1      -0.181  -4.571   0.265  0.00  0.00    -0.307 N 
ATOM     13  C   UNL     1      -1.023  -3.546  -0.010  0.00  0.00    +0.261 C 
ATOM     14  O   UNL     1      -2.202  -3.729  -0.245  0.00  0.00    -0.269 OA
ATOM     15  H   UNL     1      -0.503  -5.481   0.170  0.00  0.00    +0.149 HD
ENDROOT
BRANCH   3  16
ATOM     16  C   UNL     1       3.640   2.195  -0.022  0.00  0.00    +0.250 C 
ATOM     17  O   UNL     1       4.709   1.614  -0.035  0.00  0.00    -0.270 OA
ATOM     18  N   UNL     1       3.606   3.542  -0.015  0.00  0.00    -0.261 N 
ATOM     19  C   UNL     1       4.790   4.267  -0.024  0.00  0.00    +0.165 A 
ATOM     20  N   UNL     1       6.026   3.815  -0.044  0.00  0.00    -0.233 NA
ATOM     21  C   UNL     1       7.055   4.642  -0.049  0.00  0.00    +0.120 A 
ATOM     22  C   UNL     1       6.779   5.969  -0.033  0.00  0.00    +0.068 A 
ATOM     23  S   UNL     1       4.994   5.938  -0.018  0.00  0.00    -0.061 S 
ATOM     24  H   UNL     1       2.754   4.005  -0.004  0.00  0.00    +0.157 HD
ENDBRANCH   3  16
BRANCH  11  25
ATOM     25  C   UNL     1       1.197  -4.067   2.200  0.00  0.00    -0.062 C 
BRANCH  25  26
ATOM     26  N   UNL     1       0.455  -5.124   2.900  0.00  0.00    +0.379 N 
ATOM     27  H   UNL     1      -0.496  -5.146   2.564  0.00  0.00    -0.090 HD
ATOM     28  H   UNL     1       0.894  -6.016   2.725  0.00  0.00    -0.090 HD
ATOM     29  H   UNL     1       0.458  -4.937   3.891  0.00  0.00    -0.090 HD
ENDBRANCH  25  26
ENDBRANCH  11  25
TORSDOF 3
