REMARK  Name = CHEMBL469124
REMARK  5 active torsions:
REMARK  status: ('A' for Active; 'I' for Inactive)
REMARK    1  A    between atoms: C_1  and  C_2
REMARK    2  A    between atoms: C_2  and  C_4
REMARK    3  A    between atoms: C_2  and  N_10
REMARK    4  A    between atoms: C_12  and  N_17
REMARK    5  A    between atoms: C_22  and  N_24
REMARK                            x       y       z     vdW  Elec       q    Type
REMARK                         _______ _______ _______ _____ _____    ______ ____
ROOT
ATOM      1  N   UNL     1       3.957  -1.127   2.337  0.00  0.00    -0.266 NA
ATOM      2  C   UNL     1       4.127  -0.713   3.584  0.00  0.00    +0.064 A 
ATOM      3  C   UNL     1       3.236  -1.170   4.658  0.00  0.00    +0.045 A 
ATOM      4  C   UNL     1       3.447  -0.724   5.910  0.00  0.00    +0.086 A 
ATOM      5  N   UNL     1       4.468   0.138   6.180  0.00  0.00    -0.349 N 
ATOM      6  C   UNL     1       5.314   0.584   5.207  0.00  0.00    +0.103 A 
ATOM      7  C   UNL     1       5.177   0.179   3.918  0.00  0.00    +0.069 A 
ATOM      8  H   UNL     1       4.596   0.444   7.091  0.00  0.00    +0.167 HD
ENDROOT
BRANCH   6   9
ATOM      9  N   UNL     1       6.332   1.457   5.540  0.00  0.00    -0.286 N 
ATOM     10  C   UNL     1       6.565   1.776   6.871  0.00  0.00    +0.127 A 
ATOM     11  C   UNL     1       7.658   2.566   7.230  0.00  0.00    +0.063 A 
ATOM     12  C   UNL     1       7.847   2.856   8.567  0.00  0.00    +0.116 A 
ATOM     13  N   UNL     1       6.991   2.379   9.459  0.00  0.00    -0.244 NA
ATOM     14  C   UNL     1       5.968   1.636   9.088  0.00  0.00    +0.223 A 
ATOM     15  N   UNL     1       5.747   1.339   7.824  0.00  0.00    -0.221 NA
ATOM     16  H   UNL     1       6.883   1.847   4.844  0.00  0.00    +0.155 HD
ENDBRANCH   6   9
BRANCH   1  19
ATOM     17  N   UNL     1       0.766  -0.570   1.159  0.00  0.00    -0.274 NA
ATOM     18  C   UNL     1       1.828  -1.295   1.046  0.00  0.00    +0.119 C 
ATOM     19  C   UNL     1       2.802  -1.961   1.993  0.00  0.00    +0.232 C 
ATOM     20  C   UNL     1       3.065  -2.933   0.863  0.00  0.00    +0.234 C 
ATOM     21  O   UNL     1       3.449  -4.074   0.762  0.00  0.00    -0.286 OA
ATOM     22  C   UNL     1       2.634  -1.852  -0.071  0.00  0.00    +0.247 C 
ATOM     23  O   UNL     1       2.847  -1.560  -1.229  0.00  0.00    -0.282 OA
BRANCH  17  25
ATOM     24  C   UNL     1       0.042   1.428  -0.053  0.00  0.00    +0.038 C 
ATOM     25  C   UNL     1       0.068  -0.102  -0.042  0.00  0.00    +0.133 C 
BRANCH  25  26
ATOM     26  C   UNL     1      -1.344  -0.628  -0.039  0.00  0.00    -0.023 A 
ATOM     27  C   UNL     1      -2.067  -0.661   1.139  0.00  0.00    +0.006 A 
ATOM     28  C   UNL     1      -3.362  -1.144   1.141  0.00  0.00    +0.000 A 
ATOM     29  C   UNL     1      -3.935  -1.594  -0.034  0.00  0.00    +0.000 A 
ATOM     30  C   UNL     1      -3.212  -1.560  -1.212  0.00  0.00    +0.000 A 
ATOM     31  C   UNL     1      -1.918  -1.073  -1.215  0.00  0.00    +0.006 A 
ENDBRANCH  25  26
ENDBRANCH  17  25
ENDBRANCH   1  19
TORSDOF 4
