REMARK  Name = CHEMBL246910
REMARK  4 active torsions:
REMARK  status: ('A' for Active; 'I' for Inactive)
REMARK    1  A    between atoms: C_1  and  C_2
REMARK    2  A    between atoms: C_11  and  C_17
REMARK    3  A    between atoms: N_19  and  C_20
REMARK    4  A    between atoms: C_24  and  C_26
REMARK                            x       y       z     vdW  Elec       q    Type
REMARK                         _______ _______ _______ _____ _____    ______ ____
ROOT
ATOM      1  C   UNL     1      -0.016   1.529   0.001  0.00  0.00    +0.014 C 
ATOM      2  C   UNL     1       0.002  -0.001   0.004  0.00  0.00    +0.036 C 
ATOM      3  C   UNL     1      -1.432  -0.531   0.036  0.00  0.00    +0.112 C 
ATOM      4  N   UNL     1      -2.060  -0.361   1.339  0.00  0.00    -0.310 N 
ATOM      5  C   UNL     1      -1.387  -0.535   2.499  0.00  0.00    +0.261 C 
ATOM      6  O   UNL     1      -1.956  -0.518   3.574  0.00  0.00    -0.269 OA
ATOM      7  C   UNL     1       0.069  -0.747   2.403  0.00  0.00    +0.106 A 
ATOM      8  C   UNL     1       0.732  -0.494   1.226  0.00  0.00    -0.006 A 
ATOM      9  C   UNL     1       2.081  -0.778   1.436  0.00  0.00    +0.005 A 
ATOM     10  C   UNL     1       3.202  -0.702   0.600  0.00  0.00    +0.023 A 
ATOM     11  C   UNL     1       4.427  -1.074   1.156  0.00  0.00    +0.038 A 
ATOM     12  C   UNL     1       4.532  -1.503   2.485  0.00  0.00    +0.015 A 
ATOM     13  C   UNL     1       3.446  -1.583   3.313  0.00  0.00    +0.027 A 
ATOM     14  C   UNL     1       2.206  -1.216   2.786  0.00  0.00    +0.047 A 
ATOM     15  N   UNL     1       0.964  -1.186   3.346  0.00  0.00    -0.350 N 
ATOM     16  H   UNL     1       0.748  -1.433   4.259  0.00  0.00    +0.166 HD
ATOM     17  H   UNL     1      -2.997  -0.113   1.377  0.00  0.00    +0.149 HD
ENDROOT
BRANCH  11  18
ATOM     18  C   UNL     1       5.644  -1.014   0.322  0.00  0.00    +0.248 C 
ATOM     19  O   UNL     1       5.570  -0.643  -0.834  0.00  0.00    -0.270 OA
ATOM     20  N   UNL     1       6.835  -1.369   0.841  0.00  0.00    -0.281 N 
ATOM     21  H   UNL     1       6.906  -1.600   1.780  0.00  0.00    +0.155 HD
BRANCH  20  22
ATOM     22  C   UNL     1       7.971  -1.405   0.025  0.00  0.00    +0.035 A 
ATOM     23  C   UNL     1       8.946  -2.374   0.233  0.00  0.00    +0.023 A 
ATOM     24  C   UNL     1      10.070  -2.414  -0.570  0.00  0.00    +0.003 A 
ATOM     25  C   UNL     1      10.233  -1.492  -1.584  0.00  0.00    +0.019 A 
ATOM     26  C   UNL     1       9.260  -0.515  -1.801  0.00  0.00    +0.054 A 
ATOM     27  C   UNL     1       8.122  -0.478  -0.994  0.00  0.00    +0.042 A 
BRANCH  26  28
ATOM     28  C   UNL     1       9.426   0.444  -2.852  0.00  0.00    +0.099 C 
ATOM     29  N   UNL     1       9.558   1.204  -3.686  0.00  0.00    -0.191 NA
ENDBRANCH  26  28
ENDBRANCH  20  22
ENDBRANCH  11  18
TORSDOF 3
