REMARK  Name = CHEMBL247509
REMARK  3 active torsions:
REMARK  status: ('A' for Active; 'I' for Inactive)
REMARK    1  A    between atoms: C_1  and  C_2
REMARK    2  A    between atoms: C_11  and  C_17
REMARK    3  A    between atoms: N_19  and  C_20
REMARK                            x       y       z     vdW  Elec       q    Type
REMARK                         _______ _______ _______ _____ _____    ______ ____
ROOT
ATOM      1  C   UNL     1      -0.011   1.542   0.010  0.00  0.00    +0.014 C 
ATOM      2  C   UNL     1       0.005   0.013   0.007  0.00  0.00    +0.036 C 
ATOM      3  C   UNL     1      -1.430  -0.515   0.036  0.00  0.00    +0.112 C 
ATOM      4  N   UNL     1      -2.059  -0.349   1.340  0.00  0.00    -0.310 N 
ATOM      5  C   UNL     1      -1.386  -0.529   2.499  0.00  0.00    +0.261 C 
ATOM      6  O   UNL     1      -1.956  -0.516   3.574  0.00  0.00    -0.269 OA
ATOM      7  C   UNL     1       0.069  -0.743   2.402  0.00  0.00    +0.106 A 
ATOM      8  C   UNL     1       0.733  -0.487   1.227  0.00  0.00    -0.006 A 
ATOM      9  C   UNL     1       2.082  -0.774   1.436  0.00  0.00    +0.005 A 
ATOM     10  C   UNL     1       3.203  -0.696   0.601  0.00  0.00    +0.023 A 
ATOM     11  C   UNL     1       4.427  -1.073   1.156  0.00  0.00    +0.038 A 
ATOM     12  C   UNL     1       4.531  -1.508   2.482  0.00  0.00    +0.015 A 
ATOM     13  C   UNL     1       3.444  -1.588   3.311  0.00  0.00    +0.027 A 
ATOM     14  C   UNL     1       2.205  -1.217   2.784  0.00  0.00    +0.047 A 
ATOM     15  N   UNL     1       0.963  -1.188   3.345  0.00  0.00    -0.350 N 
ATOM     16  H   UNL     1       0.746  -1.439   4.256  0.00  0.00    +0.166 HD
ATOM     17  H   UNL     1      -2.995  -0.099   1.378  0.00  0.00    +0.149 HD
ENDROOT
BRANCH  11  18
ATOM     18  C   UNL     1       5.644  -1.012   0.322  0.00  0.00    +0.248 C 
ATOM     19  O   UNL     1       5.572  -0.637  -0.833  0.00  0.00    -0.270 OA
ATOM     20  N   UNL     1       6.835  -1.372   0.840  0.00  0.00    -0.281 N 
ATOM     21  H   UNL     1       6.905  -1.606   1.779  0.00  0.00    +0.155 HD
BRANCH  20  22
ATOM     22  C   UNL     1       7.967  -1.409   0.026  0.00  0.00    +0.037 A 
ATOM     23  C   UNL     1       8.140  -0.482  -1.000  0.00  0.00    +0.043 A 
ATOM     24  C   UNL     1       9.274  -0.552  -1.783  0.00  0.00    +0.112 A 
ATOM     25  N   UNL     1      10.187  -1.481  -1.569  0.00  0.00    -0.263 NA
ATOM     26  C   UNL     1      10.059  -2.376  -0.608  0.00  0.00    +0.112 A 
ATOM     27  C   UNL     1       8.958  -2.370   0.222  0.00  0.00    +0.043 A 
ENDBRANCH  20  22
ENDBRANCH  11  18
TORSDOF 2
