REMARK  Name = CHEMBL599682
REMARK  5 active torsions:
REMARK  status: ('A' for Active; 'I' for Inactive)
REMARK    1  A    between atoms: C_1  and  O_2
REMARK    2  A    between atoms: O_2  and  C_3
REMARK    3  A    between atoms: C_7  and  C_9
REMARK    4  A    between atoms: C_13  and  N_15
REMARK    5  A    between atoms: C_17  and  C_21
REMARK                            x       y       z     vdW  Elec       q    Type
REMARK                         _______ _______ _______ _____ _____    ______ ____
ROOT
ATOM      1  N   UNL     1       2.633  -6.704  -4.542  0.00  0.00    -0.237 N 
ATOM      2  C   UNL     1       2.662  -8.031  -4.783  0.00  0.00    +0.125 A 
ATOM      3  C   UNL     1       3.369  -8.229  -5.935  0.00  0.00    +0.041 A 
ATOM      4  C   UNL     1       3.782  -6.957  -6.402  0.00  0.00    +0.146 A 
ATOM      5  N   UNL     1       3.332  -6.054  -5.566  0.00  0.00    -0.151 NA
ATOM      6  N   UNL     1       4.530  -6.710  -7.555  0.00  0.00    -0.341 N 
ATOM      7  H   UNL     1       4.816  -7.447  -8.116  0.00  0.00    +0.144 HD
ATOM      8  H   UNL     1       4.765  -5.799  -7.794  0.00  0.00    +0.144 HD
ENDROOT
BRANCH   3   9
ATOM      9  C   UNL     1       3.653  -9.533  -6.576  0.00  0.00    -0.013 A 
ATOM     10  C   UNL     1       4.173 -10.584  -5.818  0.00  0.00    +0.009 A 
ATOM     11  C   UNL     1       4.438 -11.790  -6.404  0.00  0.00    +0.014 A 
ATOM     12  C   UNL     1       4.187 -11.971  -7.764  0.00  0.00    +0.040 A 
ATOM     13  C   UNL     1       3.664 -10.922  -8.529  0.00  0.00    -0.033 A 
ATOM     14  C   UNL     1       3.395  -9.711  -7.938  0.00  0.00    +0.013 A 
ATOM     15  C   UNL     1       3.399 -11.142  -9.995  0.00  0.00    +0.054 C 
ATOM     16  C   UNL     1       4.444 -12.092 -10.575  0.00  0.00    +0.109 C 
ATOM     17  N   UNL     1       4.554 -13.305  -9.769  0.00  0.00    -0.311 N 
ATOM     18  C   UNL     1       4.463 -13.262  -8.425  0.00  0.00    +0.244 C 
ATOM     19  O   UNL     1       4.608 -14.273  -7.765  0.00  0.00    -0.270 OA
ATOM     20  H   UNL     1       4.696 -14.158 -10.210  0.00  0.00    +0.149 HD
ENDBRANCH   3   9
BRANCH   1  25
ATOM     21  C   UNL     1       1.332  -4.084  -2.299  0.00  0.00    -0.016 A 
ATOM     22  C   UNL     1       0.760  -4.864  -1.295  0.00  0.00    +0.008 A 
ATOM     23  C   UNL     1       0.812  -6.241  -1.376  0.00  0.00    +0.003 A 
ATOM     24  C   UNL     1       1.432  -6.851  -2.450  0.00  0.00    +0.028 A 
ATOM     25  C   UNL     1       2.005  -6.082  -3.455  0.00  0.00    +0.066 A 
ATOM     26  C   UNL     1       1.951  -4.698  -3.384  0.00  0.00    +0.036 A 
BRANCH  21  31
ATOM     27  C   UNL     1       0.606  -0.607  -1.056  0.00  0.00    +0.121 A 
ATOM     28  C   UNL     1       1.173   0.162  -2.062  0.00  0.00    +0.045 A 
ATOM     29  C   UNL     1       1.788  -0.447  -3.140  0.00  0.00    +0.004 A 
ATOM     30  C   UNL     1       1.842  -1.824  -3.221  0.00  0.00    +0.009 A 
ATOM     31  C   UNL     1       1.276  -2.603  -2.214  0.00  0.00    -0.014 A 
ATOM     32  C   UNL     1       0.660  -1.989  -1.126  0.00  0.00    +0.054 A 
BRANCH  27  34
ATOM     33  C   UNL     1      -0.017   1.425   0.010  0.00  0.00    +0.277 C 
ATOM     34  O   UNL     1       0.002  -0.004   0.002  0.00  0.00    -0.495 OA
ENDBRANCH  27  34
ENDBRANCH  21  31
ENDBRANCH   1  25
TORSDOF 4
