REMARK  Name = CHEMBL592288
REMARK  2 active torsions:
REMARK  status: ('A' for Active; 'I' for Inactive)
REMARK    1  A    between atoms: C_3  and  C_7
REMARK    2  A    between atoms: C_10  and  N_17
REMARK                            x       y       z     vdW  Elec       q    Type
REMARK                         _______ _______ _______ _____ _____    ______ ____
ROOT
ATOM      1  C   UNL     1       3.166   0.076  -0.520  0.00  0.00    +0.090 A 
ATOM      2  C   UNL     1       4.091  -0.669   0.219  0.00  0.00    +0.031 A 
ATOM      3  C   UNL     1       3.996  -1.699   1.170  0.00  0.00    +0.035 A 
ATOM      4  C   UNL     1       5.135  -2.221   1.713  0.00  0.00    +0.033 A 
ATOM      5  C   UNL     1       6.403  -1.752   1.344  0.00  0.00    +0.025 A 
ATOM      6  C   UNL     1       6.558  -0.760   0.432  0.00  0.00    +0.032 A 
ATOM      7  C   UNL     1       5.420  -0.177  -0.168  0.00  0.00    +0.093 A 
ATOM      8  N   UNL     1       5.235   0.778  -1.063  0.00  0.00    -0.173 NA
ATOM      9  H   UNL     1       3.473   1.576  -1.911  0.00  0.00    +0.189 HD
ATOM     10  N   UNL     1       3.864   0.939  -1.292  0.00  0.00    -0.274 N 
ENDROOT
BRANCH   4  11
ATOM     11  N   UNL     1       5.034  -3.247   2.659  0.00  0.00    -0.299 N 
ATOM     12  C   UNL     1       3.960  -3.279   3.534  0.00  0.00    +0.128 A 
ATOM     13  C   UNL     1       3.783  -4.361   4.400  0.00  0.00    +0.063 A 
ATOM     14  C   UNL     1       2.699  -4.350   5.256  0.00  0.00    +0.118 A 
ATOM     15  N   UNL     1       1.864  -3.321   5.231  0.00  0.00    -0.223 NA
ATOM     16  C   UNL     1       2.056  -2.308   4.399  0.00  0.00    +0.214 A 
ATOM     17  N   UNL     1       3.086  -2.278   3.567  0.00  0.00    -0.200 NA
ATOM     18  N   UNL     1       1.161  -1.252   4.404  0.00  0.00    -0.327 N 
ATOM     19  H   UNL     1       5.715  -3.936   2.702  0.00  0.00    +0.154 HD
ATOM     20  H   UNL     1       0.405  -1.260   5.011  0.00  0.00    +0.145 HD
ATOM     21  H   UNL     1       1.290  -0.505   3.800  0.00  0.00    +0.145 HD
ENDBRANCH   4  11
BRANCH   1  24
ATOM     22  C   UNL     1      -0.488   0.390  -0.489  0.00  0.00    +0.019 A 
ATOM     23  C   UNL     1       0.788   0.963  -0.596  0.00  0.00    +0.029 A 
ATOM     24  C   UNL     1       1.704  -0.058  -0.471  0.00  0.00    +0.065 A 
ATOM     25  N   UNL     1       1.002  -1.226  -0.292  0.00  0.00    -0.359 N 
ATOM     26  H   UNL     1       1.390  -2.108  -0.176  0.00  0.00    +0.165 HD
ATOM     27  C   UNL     1      -0.331  -0.939  -0.305  0.00  0.00    +0.083 A 
ENDBRANCH   1  24
TORSDOF 2
