REMARK  Name = CHEMBL557318
REMARK  1 active torsions:
REMARK  status: ('A' for Active; 'I' for Inactive)
REMARK    1  A    between atoms: C_1  and  C_2
REMARK                            x       y       z     vdW  Elec       q    Type
REMARK                         _______ _______ _______ _____ _____    ______ ____
ROOT
ATOM      1  C   UNL     1      -0.019   1.526   0.010  0.00  0.00    +0.029 C 
ATOM      2  C   UNL     1       0.002  -0.004   0.002  0.00  0.00    +0.087 C 
ATOM      3  C   UNL     1       0.672  -0.473  -1.270  0.00  0.00    +0.123 C 
ATOM      4  N   UNL     1       0.475  -1.880  -1.520  0.00  0.00    -0.341 N 
ATOM      5  C   UNL     1       1.083  -2.888  -0.763  0.00  0.00    +0.055 A 
ATOM      6  C   UNL     1       1.392  -4.143  -1.358  0.00  0.00    +0.022 A 
ATOM      7  C   UNL     1       1.156  -4.560  -2.748  0.00  0.00    +0.030 A 
ATOM      8  C   UNL     1       0.578  -3.898  -3.915  0.00  0.00    +0.050 A 
ATOM      9  C   UNL     1       0.631  -4.794  -4.915  0.00  0.00    +0.196 A 
ATOM     10  O   UNL     1       1.183  -5.938  -4.476  0.00  0.00    -0.463 OA
ATOM     11  C   UNL     1       1.517  -5.840  -3.171  0.00  0.00    +0.135 A 
ATOM     12  C   UNL     1       2.109  -6.733  -2.277  0.00  0.00    +0.048 A 
ATOM     13  C   UNL     1       2.340  -6.364  -0.983  0.00  0.00    +0.019 A 
ATOM     14  C   UNL     1       1.994  -5.104  -0.526  0.00  0.00    +0.023 A 
ATOM     15  S   UNL     1       2.133  -4.277   1.036  0.00  0.00    -0.082 S 
ATOM     16  C   UNL     1       1.406  -2.716   0.572  0.00  0.00    +0.096 A 
ATOM     17  C   UNL     1       1.241  -1.623   1.420  0.00  0.00    +0.253 C 
ATOM     18  O   UNL     1       1.706  -1.762   2.537  0.00  0.00    -0.270 OA
ATOM     19  N   UNL     1       0.664  -0.464   1.198  0.00  0.00    -0.307 N 
ATOM     20  H   UNL     1      -0.109  -2.141  -2.249  0.00  0.00    +0.146 HD
ATOM     21  H   UNL     1       0.684   0.164   1.937  0.00  0.00    +0.149 HD
ENDROOT
TORSDOF 0
