REMARK  Name = CHEMBL1208951
REMARK  5 active torsions:
REMARK  status: ('A' for Active; 'I' for Inactive)
REMARK    1  A    between atoms: C_1  and  N_2
REMARK    2  A    between atoms: N_5  and  C_8
REMARK    3  A    between atoms: C_11  and  N_14
REMARK    4  A    between atoms: N_14  and  C_15
REMARK    5  A    between atoms: C_22  and  C_25
REMARK                            x       y       z     vdW  Elec       q    Type
REMARK                         _______ _______ _______ _____ _____    ______ ____
ROOT
ATOM      1  C   UNL     1      -1.528  -7.399   4.901  0.00  0.00    +0.042 A 
ATOM      2  C   UNL     1      -0.318  -6.809   5.236  0.00  0.00    +0.041 A 
ATOM      3  C   UNL     1       0.449  -7.349   6.258  0.00  0.00    +0.085 A 
ATOM      4  N   UNL     1       0.065  -8.411   6.927  0.00  0.00    -0.361 N 
ATOM      5  C   UNL     1      -1.089  -9.033   6.658  0.00  0.00    +0.048 A 
ATOM      6  C   UNL     1      -1.933  -8.541   5.634  0.00  0.00    +0.020 A 
ATOM      7  C   UNL     1      -3.143  -9.188   5.358  0.00  0.00    +0.020 A 
ATOM      8  C   UNL     1      -3.503 -10.301   6.097  0.00  0.00    -0.017 A 
ATOM      9  C   UNL     1      -2.664 -10.779   7.115  0.00  0.00    +0.010 A 
ATOM     10  C   UNL     1      -1.481 -10.170   7.387  0.00  0.00    +0.027 A 
ATOM     11  H   UNL     1       0.633  -8.755   7.634  0.00  0.00    +0.165 HD
ENDROOT
BRANCH   8  12
ATOM     12  C   UNL     1      -4.784 -10.993   5.811  0.00  0.00    -0.018 A 
ATOM     13  C   UNL     1      -5.620 -10.527   4.797  0.00  0.00    +0.010 A 
ATOM     14  C   UNL     1      -6.809 -11.175   4.535  0.00  0.00    +0.020 A 
ATOM     15  C   UNL     1      -7.174 -12.286   5.277  0.00  0.00    +0.041 A 
ATOM     16  C   UNL     1      -6.347 -12.752   6.285  0.00  0.00    +0.020 A 
ATOM     17  C   UNL     1      -5.153 -12.115   6.551  0.00  0.00    +0.010 A 
ATOM     18 CL   UNL     1      -8.672 -13.095   4.942  0.00  0.00    -0.084 Cl
ENDBRANCH   8  12
BRANCH   1  19
ATOM     19  N   UNL     1      -2.317  -6.883   3.884  0.00  0.00    -0.314 N 
ATOM     20  H   UNL     1      -3.207  -7.239   3.734  0.00  0.00    +0.152 HD
BRANCH  19  24
ATOM     21  C   UNL     1      -0.866  -3.805   1.475  0.00  0.00    +0.030 A 
ATOM     22  C   UNL     1      -2.191  -3.795   1.891  0.00  0.00    +0.025 A 
ATOM     23  C   UNL     1      -2.671  -4.814   2.689  0.00  0.00    +0.025 A 
ATOM     24  C   UNL     1      -1.830  -5.850   3.075  0.00  0.00    +0.031 A 
ATOM     25  C   UNL     1      -0.505  -5.860   2.658  0.00  0.00    +0.025 A 
ATOM     26  C   UNL     1      -0.026  -4.844   1.856  0.00  0.00    +0.025 A 
BRANCH  21  31
ATOM     27  C   UNL     1       1.220   1.068   0.109  0.00  0.00    +0.105 C 
ATOM     28  N   UNL     1       0.683  -0.292  -0.031  0.00  0.00    -0.302 NA
ATOM     29  C   UNL     1      -0.700  -0.365   0.457  0.00  0.00    +0.103 C 
ATOM     30  C   UNL     1      -1.283  -1.744   0.129  0.00  0.00    +0.120 C 
ATOM     31  N   UNL     1      -0.379  -2.772   0.666  0.00  0.00    -0.327 N 
ATOM     32  C   UNL     1       1.051  -2.686   0.331  0.00  0.00    +0.120 C 
ATOM     33  C   UNL     1       1.541  -1.270   0.651  0.00  0.00    +0.103 C 
ENDBRANCH  21  31
ENDBRANCH  19  24
ENDBRANCH   1  19
TORSDOF 4
