REMARK  Name = CHEMBL403258
REMARK  5 active torsions:
REMARK  status: ('A' for Active; 'I' for Inactive)
REMARK    1  A    between atoms: C_4  and  C_7
REMARK    2  A    between atoms: C_7  and  N_8
REMARK    3  A    between atoms: C_11  and  N_14
REMARK    4  A    between atoms: C_15  and  C_17
REMARK    5  A    between atoms: C_23  and  C_25
REMARK                            x       y       z     vdW  Elec       q    Type
REMARK                         _______ _______ _______ _____ _____    ______ ____
ROOT
ATOM      1  C   UNL     1       7.985  -1.704   6.659  0.00  0.00    +0.135 A 
ATOM      2  C   UNL     1       9.267  -2.006   7.021  0.00  0.00    +0.081 A 
ATOM      3  S   UNL     1       9.129  -2.266   8.677  0.00  0.00    -0.060 S 
ATOM      4  C   UNL     1       7.377  -1.967   8.839  0.00  0.00    +0.165 A 
ATOM      5  N   UNL     1       7.035  -1.684   7.599  0.00  0.00    -0.220 NA
ATOM      6  N   UNL     1       6.583  -2.015   9.976  0.00  0.00    -0.261 N 
ATOM      7  C   UNL     1       7.131  -2.323  11.168  0.00  0.00    +0.250 C 
ATOM      8  O   UNL     1       8.321  -2.559  11.248  0.00  0.00    -0.270 OA
ATOM      9  H   UNL     1       5.634  -1.827   9.913  0.00  0.00    +0.157 HD
ENDROOT
BRANCH   7  10
ATOM     10  C   UNL     1       6.286  -2.374  12.379  0.00  0.00    +0.039 A 
ATOM     11  C   UNL     1       4.917  -2.105  12.263  0.00  0.00    +0.014 A 
ATOM     12  C   UNL     1       4.080  -2.135  13.344  0.00  0.00    +0.011 A 
ATOM     13  C   UNL     1       4.649  -2.451  14.588  0.00  0.00    +0.001 A 
ATOM     14  C   UNL     1       4.081  -2.568  15.869  0.00  0.00    +0.041 A 
ATOM     15  C   UNL     1       5.074  -2.885  16.725  0.00  0.00    +0.106 A 
ATOM     16  N   UNL     1       6.277  -2.995  16.024  0.00  0.00    -0.329 N 
ATOM     17  C   UNL     1       6.040  -2.727  14.718  0.00  0.00    +0.051 A 
ATOM     18  C   UNL     1       6.875  -2.696  13.604  0.00  0.00    +0.039 A 
ATOM     19  C   UNL     1       7.513  -3.356  16.720  0.00  0.00    +0.062 C 
ATOM     20  C   UNL     1       8.785  -2.928  15.979  0.00  0.00    +0.030 C 
ATOM     21  C   UNL     1       8.735  -4.295  15.274  0.00  0.00    +0.005 C 
ATOM     22  C   UNL     1       7.947  -4.809  16.492  0.00  0.00    +0.030 C 
ATOM     23  C   UNL     1       7.490  -2.944  18.189  0.00  0.00    +0.133 C 
ATOM     24  N   UNL     1       6.213  -3.251  18.826  0.00  0.00    -0.308 N 
ATOM     25  C   UNL     1       5.032  -3.123  18.181  0.00  0.00    +0.261 C 
ATOM     26  O   UNL     1       3.975  -3.201  18.777  0.00  0.00    -0.269 OA
ATOM     27  H   UNL     1       6.212  -3.558  19.746  0.00  0.00    +0.149 HD
ENDBRANCH   7  10
BRANCH   1  29
ATOM     28  N   UNL     1       6.388  -1.099   4.912  0.00  0.00    -0.307 N 
ATOM     29  C   UNL     1       7.655  -1.400   5.256  0.00  0.00    +0.263 C 
ATOM     30  O   UNL     1       8.527  -1.421   4.409  0.00  0.00    -0.269 OA
ATOM     31  H   UNL     1       5.692  -1.082   5.588  0.00  0.00    +0.149 HD
BRANCH  28  35
ATOM     32  N   UNL     1       4.153  -0.953   1.342  0.00  0.00    +0.382 N 
ATOM     33  C   UNL     1       4.424   0.329   2.003  0.00  0.00    -0.077 C 
ATOM     34  C   UNL     1       4.807   0.083   3.464  0.00  0.00    +0.004 C 
ATOM     35  C   UNL     1       6.060  -0.796   3.517  0.00  0.00    +0.070 C 
ATOM     36  C   UNL     1       5.790  -2.099   2.760  0.00  0.00    +0.004 C 
ATOM     37  C   UNL     1       5.371  -1.772   1.325  0.00  0.00    -0.077 C 
ATOM     38  H   UNL     1       3.427  -1.441   1.844  0.00  0.00    -0.081 HD
BRANCH  32  39
ATOM     39  C   UNL     1       3.711  -0.707  -0.038  0.00  0.00    -0.043 C 
BRANCH  39  43
ATOM     40  C   UNL     1      -0.017   1.378   0.010  0.00  0.00    +0.000 A 
ATOM     41  C   UNL     1       1.171   2.086   0.002  0.00  0.00    +0.000 A 
ATOM     42  C   UNL     1       2.377   1.411  -0.013  0.00  0.00    +0.002 A 
ATOM     43  C   UNL     1       2.396   0.029  -0.020  0.00  0.00    -0.064 A 
ATOM     44  C   UNL     1       1.208  -0.679  -0.012  0.00  0.00    +0.002 A 
ATOM     45  C   UNL     1       0.002  -0.004   0.002  0.00  0.00    +0.000 A 
ENDBRANCH  39  43
ENDBRANCH  32  39
ENDBRANCH  28  35
ENDBRANCH   1  29
TORSDOF 5
