REMARK  Name = CHEMBL257834
REMARK  8 active torsions:
REMARK  status: ('A' for Active; 'I' for Inactive)
REMARK    1  A    between atoms: C_1  and  C_2
REMARK    2  A    between atoms: C_2  and  C_3
REMARK    3  A    between atoms: C_2  and  C_4
REMARK    4  A    between atoms: C_2  and  C_5
REMARK    5  A    between atoms: C_5  and  N_6
REMARK    6  A    between atoms: C_9  and  N_12
REMARK    7  A    between atoms: C_13  and  C_15
REMARK    8  A    between atoms: C_21  and  C_23
REMARK                            x       y       z     vdW  Elec       q    Type
REMARK                         _______ _______ _______ _____ _____    ______ ____
ROOT
ATOM      1  C   UNL     1       6.512   3.559  -4.427  0.00  0.00    +0.135 A 
ATOM      2  C   UNL     1       7.162   3.669  -5.624  0.00  0.00    +0.081 A 
ATOM      3  S   UNL     1       8.518   4.580  -5.221  0.00  0.00    -0.060 S 
ATOM      4  C   UNL     1       8.182   4.787  -3.481  0.00  0.00    +0.165 A 
ATOM      5  N   UNL     1       7.043   4.139  -3.347  0.00  0.00    -0.220 NA
ATOM      6  N   UNL     1       8.925   5.460  -2.521  0.00  0.00    -0.261 N 
ATOM      7  C   UNL     1      10.075   6.072  -2.865  0.00  0.00    +0.250 C 
ATOM      8  O   UNL     1      10.463   6.034  -4.017  0.00  0.00    -0.270 OA
ATOM      9  H   UNL     1       8.615   5.490  -1.602  0.00  0.00    +0.157 HD
ENDROOT
BRANCH   7  10
ATOM     10  C   UNL     1      10.865   6.787  -1.843  0.00  0.00    +0.039 A 
ATOM     11  C   UNL     1      10.403   6.813  -0.522  0.00  0.00    +0.014 A 
ATOM     12  C   UNL     1      11.086   7.458   0.472  0.00  0.00    +0.011 A 
ATOM     13  C   UNL     1      12.283   8.100   0.115  0.00  0.00    +0.001 A 
ATOM     14  C   UNL     1      13.208   8.835   0.877  0.00  0.00    +0.041 A 
ATOM     15  C   UNL     1      14.186   9.245   0.043  0.00  0.00    +0.106 A 
ATOM     16  N   UNL     1      13.924   8.777  -1.248  0.00  0.00    -0.329 N 
ATOM     17  C   UNL     1      12.764   8.081  -1.225  0.00  0.00    +0.051 A 
ATOM     18  C   UNL     1      12.055   7.415  -2.222  0.00  0.00    +0.039 A 
ATOM     19  C   UNL     1      14.851   9.065  -2.344  0.00  0.00    +0.062 C 
ATOM     20  C   UNL     1      14.208   8.972  -3.733  0.00  0.00    +0.030 C 
ATOM     21  C   UNL     1      14.611   7.487  -3.729  0.00  0.00    +0.005 C 
ATOM     22  C   UNL     1      15.726   7.871  -2.740  0.00  0.00    +0.030 C 
ATOM     23  C   UNL     1      15.634  10.354  -2.115  0.00  0.00    +0.133 C 
ATOM     24  N   UNL     1      16.119  10.466  -0.743  0.00  0.00    -0.308 N 
ATOM     25  C   UNL     1      15.395  10.044   0.318  0.00  0.00    +0.261 C 
ATOM     26  O   UNL     1      15.728  10.313   1.456  0.00  0.00    -0.269 OA
ATOM     27  H   UNL     1      16.992  10.858  -0.586  0.00  0.00    +0.149 HD
ENDBRANCH   7  10
BRANCH   1  29
ATOM     28  N   UNL     1       4.608   2.721  -3.146  0.00  0.00    -0.307 N 
ATOM     29  C   UNL     1       5.243   2.818  -4.330  0.00  0.00    +0.263 C 
ATOM     30  O   UNL     1       4.768   2.294  -5.320  0.00  0.00    -0.269 OA
ATOM     31  H   UNL     1       4.987   3.139  -2.357  0.00  0.00    +0.149 HD
BRANCH  28  35
ATOM     32  N   UNL     1       1.600   0.274  -1.494  0.00  0.00    +0.380 N 
ATOM     33  C   UNL     1       1.255   1.683  -1.719  0.00  0.00    -0.077 C 
ATOM     34  C   UNL     1       2.535   2.509  -1.861  0.00  0.00    +0.003 C 
ATOM     35  C   UNL     1       3.346   1.984  -3.050  0.00  0.00    +0.070 C 
ATOM     36  C   UNL     1       3.636   0.495  -2.839  0.00  0.00    +0.003 C 
ATOM     37  C   UNL     1       2.316  -0.256  -2.660  0.00  0.00    -0.077 C 
ATOM     38  H   UNL     1       2.189   0.201  -0.677  0.00  0.00    -0.082 HD
BRANCH  32  39
ATOM     39  C   UNL     1       0.371  -0.501  -1.280  0.00  0.00    -0.073 C 
BRANCH  39  41
ATOM     40  C   UNL     1       1.330  -1.321   0.877  0.00  0.00    +0.009 C 
ATOM     41  C   UNL     1       0.691  -1.744  -0.447  0.00  0.00    -0.052 C 
ATOM     42  C   UNL     1       1.663  -2.640  -1.219  0.00  0.00    +0.009 C 
ATOM     43  C   UNL     1      -0.600  -2.516  -0.166  0.00  0.00    +0.009 C 
ENDBRANCH  39  41
ENDBRANCH  32  39
ENDBRANCH  28  35
ENDBRANCH   1  29
TORSDOF 5
