REMARK  Name = CHEMBL181212
REMARK  4 active torsions:
REMARK  status: ('A' for Active; 'I' for Inactive)
REMARK    1  A    between atoms: C_5  and  O_8
REMARK    2  A    between atoms: C_6  and  O_7
REMARK    3  A    between atoms: C_13  and  C_18
REMARK    4  A    between atoms: C_14  and  N_17
REMARK                            x       y       z     vdW  Elec       q    Type
REMARK                         _______ _______ _______ _____ _____    ______ ____
ROOT
ATOM      1  C   UNL     1      -0.017   1.379   0.010  0.00  0.00    +0.056 A 
ATOM      2  C   UNL     1       1.170   2.096   0.002  0.00  0.00    -0.001 A 
ATOM      3  C   UNL     1       2.381   1.427  -0.008  0.00  0.00    +0.128 A 
ATOM      4  C   UNL     1       2.403   0.036  -0.018  0.00  0.00    +0.095 A 
ATOM      5  C   UNL     1       1.219  -0.679  -0.013  0.00  0.00    +0.162 A 
ATOM      6  C   UNL     1       0.002  -0.004   0.002  0.00  0.00    +0.159 A 
ATOM      7  O   UNL     1       3.565   2.092   0.002  0.00  0.00    -0.487 OA
ATOM      8  C   UNL     1       3.574   3.475  -0.364  0.00  0.00    +0.188 C 
ATOM      9  C   UNL     1       4.919   4.078   0.078  0.00  0.00    +0.101 C 
ATOM     10  C   UNL     1       5.090   3.756   1.548  0.00  0.00    +0.055 C 
ATOM     11  C   UNL     1       3.915   3.892   2.426  0.00  0.00    +0.089 C 
ATOM     12  C   UNL     1       2.669   4.088   1.881  0.00  0.00    +0.028 C 
ATOM     13  C   UNL     1       2.456   4.188   0.402  0.00  0.00    +0.079 C 
ATOM     14  C   UNL     1       1.107   3.601  -0.001  0.00  0.00    +0.052 C 
ATOM     15  N   UNL     1       6.237   3.374   2.020  0.00  0.00    -0.303 NA
ATOM     16  H   UNL     1       6.330   3.171   2.964  0.00  0.00    +0.186 HD
ENDROOT
BRANCH  12  17
ATOM     17  N   UNL     1       1.597   4.196   2.710  0.00  0.00    -0.360 N 
ATOM     18  H   UNL     1       1.718   4.133   3.670  0.00  0.00    +0.142 HD
ATOM     19  H   UNL     1       0.711   4.335   2.341  0.00  0.00    +0.142 HD
ENDBRANCH  12  17
BRANCH   6  20
ATOM     20  O   UNL     1      -1.166  -0.702   0.009  0.00  0.00    -0.503 OA
ATOM     21  H   UNL     1      -1.512  -0.899  -0.872  0.00  0.00    +0.292 HD
ENDBRANCH   6  20
BRANCH   5  22
ATOM     22  O   UNL     1       1.244  -2.039  -0.023  0.00  0.00    -0.503 OA
ATOM     23  H   UNL     1       1.259  -2.439   0.857  0.00  0.00    +0.292 HD
ENDBRANCH   5  22
BRANCH  11  24
ATOM     24  C   UNL     1       4.072   3.819   3.848  0.00  0.00    +0.102 C 
ATOM     25  N   UNL     1       4.195   3.761   4.975  0.00  0.00    -0.191 NA
ENDBRANCH  11  24
TORSDOF 4
