REMARK  Name = CHEMBL181069
REMARK  2 active torsions:
REMARK  status: ('A' for Active; 'I' for Inactive)
REMARK    1  A    between atoms: C_15  and  C_20
REMARK    2  A    between atoms: C_16  and  N_19
REMARK                            x       y       z     vdW  Elec       q    Type
REMARK                         _______ _______ _______ _____ _____    ______ ____
ROOT
ATOM      1  C   UNL     1      -0.017   1.380   0.010  0.00  0.00    +0.056 A 
ATOM      2  C   UNL     1       1.169   2.099   0.002  0.00  0.00    -0.001 A 
ATOM      3  C   UNL     1       2.379   1.430  -0.009  0.00  0.00    +0.128 A 
ATOM      4  C   UNL     1       2.401   0.040  -0.021  0.00  0.00    +0.095 A 
ATOM      5  C   UNL     1       1.217  -0.678  -0.017  0.00  0.00    +0.166 A 
ATOM      6  C   UNL     1       0.002  -0.004   0.002  0.00  0.00    +0.163 A 
ATOM      7  O   UNL     1      -1.175  -0.690   0.016  0.00  0.00    -0.485 OA
ATOM      8  C   UNL     1      -1.121  -2.067  -0.372  0.00  0.00    +0.270 C 
ATOM      9  C   UNL     1       0.062  -2.724   0.351  0.00  0.00    +0.270 C 
ATOM     10  O   UNL     1       1.259  -2.039  -0.033  0.00  0.00    -0.485 OA
ATOM     11  O   UNL     1       3.561   2.099   0.002  0.00  0.00    -0.487 OA
ATOM     12  C   UNL     1       3.566   3.482  -0.321  0.00  0.00    +0.188 C 
ATOM     13  C   UNL     1       3.368   3.695  -1.824  0.00  0.00    +0.101 C 
ATOM     14  C   UNL     1       3.533   5.179  -2.087  0.00  0.00    +0.055 C 
ATOM     15  C   UNL     1       2.953   6.118  -1.112  0.00  0.00    +0.089 C 
ATOM     16  C   UNL     1       2.450   5.664   0.081  0.00  0.00    +0.028 C 
ATOM     17  C   UNL     1       2.445   4.199   0.437  0.00  0.00    +0.079 C 
ATOM     18  C   UNL     1       1.102   3.603  -0.001  0.00  0.00    +0.052 C 
ATOM     19  N   UNL     1       4.165   5.608  -3.137  0.00  0.00    -0.303 NA
ATOM     20  H   UNL     1       4.541   4.975  -3.768  0.00  0.00    +0.186 HD
ENDROOT
BRANCH  16  21
ATOM     21  N   UNL     1       1.942   6.561   0.967  0.00  0.00    -0.360 N 
ATOM     22  H   UNL     1       1.938   7.507   0.752  0.00  0.00    +0.142 HD
ATOM     23  H   UNL     1       1.583   6.255   1.815  0.00  0.00    +0.142 HD
ENDBRANCH  16  21
BRANCH  15  24
ATOM     24  C   UNL     1       2.914   7.518  -1.412  0.00  0.00    +0.102 C 
ATOM     25  N   UNL     1       2.883   8.628  -1.649  0.00  0.00    -0.191 NA
ENDBRANCH  15  24
TORSDOF 2
