REMARK  Name = CHEMBL551534
REMARK  6 active torsions:
REMARK  status: ('A' for Active; 'I' for Inactive)
REMARK    1  A    between atoms: C_1  and  O_2
REMARK    2  A    between atoms: O_2  and  C_3
REMARK    3  A    between atoms: C_15  and  C_19
REMARK    4  A    between atoms: C_19  and  N_20
REMARK    5  A    between atoms: N_20  and  C_21
REMARK    6  A    between atoms: C_21  and  C_22
REMARK                            x       y       z     vdW  Elec       q    Type
REMARK                         _______ _______ _______ _____ _____    ______ ____
ROOT
ATOM      1  C   UNL     1       0.626  -0.619   1.042  0.00  0.00    +0.121 A 
ATOM      2  C   UNL     1       1.201   0.155   2.049  0.00  0.00    +0.047 A 
ATOM      3  C   UNL     1       1.836  -0.465   3.104  0.00  0.00    +0.019 A 
ATOM      4  C   UNL     1       1.895  -1.845   3.151  0.00  0.00    +0.022 A 
ATOM      5  C   UNL     1       1.323  -2.655   2.155  0.00  0.00    +0.014 A 
ATOM      6  C   UNL     1       0.674  -1.990   1.084  0.00  0.00    +0.056 A 
ATOM      7  C   UNL     1       1.463  -4.105   2.348  0.00  0.00    +0.055 A 
ATOM      8  C   UNL     1       2.137  -4.520   3.479  0.00  0.00    +0.096 A 
ATOM      9  S   UNL     1       2.599  -3.003   4.294  0.00  0.00    -0.082 S 
ATOM     10  C   UNL     1       2.429  -5.802   3.948  0.00  0.00    +0.253 C 
ATOM     11  O   UNL     1       2.978  -5.841   5.034  0.00  0.00    -0.270 OA
ATOM     12  N   UNL     1       2.201  -6.973   3.399  0.00  0.00    -0.308 N 
ATOM     13  C   UNL     1       1.596  -7.265   2.123  0.00  0.00    +0.073 C 
ATOM     14  C   UNL     1       0.468  -6.324   1.764  0.00  0.00    +0.122 C 
ATOM     15  N   UNL     1       0.933  -5.003   1.417  0.00  0.00    -0.341 N 
ATOM     16  H   UNL     1       2.476  -7.744   3.921  0.00  0.00    +0.149 HD
ATOM     17  H   UNL     1       0.876  -4.724   0.490  0.00  0.00    +0.146 HD
ENDROOT
BRANCH   1  19
ATOM     18  C   UNL     1      -0.017   1.425   0.010  0.00  0.00    +0.277 C 
ATOM     19  O   UNL     1       0.002  -0.004   0.002  0.00  0.00    -0.495 OA
ENDBRANCH   1  19
BRANCH  13  20
ATOM     20  C   UNL     1       2.671  -7.174   1.038  0.00  0.00    -0.058 C 
BRANCH  20  21
ATOM     21  N   UNL     1       3.791  -8.061   1.383  0.00  0.00    +0.383 N 
ATOM     22  H   UNL     1       4.182  -7.779   2.269  0.00  0.00    -0.085 HD
ATOM     23  H   UNL     1       3.459  -9.011   1.449  0.00  0.00    -0.085 HD
BRANCH  21  24
ATOM     24  C   UNL     1       4.823  -7.973   0.341  0.00  0.00    -0.047 C 
BRANCH  24  25
ATOM     25  C   UNL     1       5.971  -8.883   0.695  0.00  0.00    -0.064 A 
ATOM     26  C   UNL     1       7.021  -8.406   1.458  0.00  0.00    +0.002 A 
ATOM     27  C   UNL     1       8.075  -9.240   1.782  0.00  0.00    +0.000 A 
ATOM     28  C   UNL     1       8.078 -10.551   1.344  0.00  0.00    +0.000 A 
ATOM     29  C   UNL     1       7.028 -11.028   0.582  0.00  0.00    +0.000 A 
ATOM     30  C   UNL     1       5.973 -10.195   0.261  0.00  0.00    +0.002 A 
ENDBRANCH  24  25
ENDBRANCH  21  24
ENDBRANCH  20  21
ENDBRANCH  13  20
TORSDOF 5
