REMARK  Name = CHEMBL455156
REMARK  3 active torsions:
REMARK  status: ('A' for Active; 'I' for Inactive)
REMARK    1  A    between atoms: C_3  and  C_12
REMARK    2  A    between atoms: C_6  and  C_7
REMARK    3  A    between atoms: C_17  and  C_21
REMARK                            x       y       z     vdW  Elec       q    Type
REMARK                         _______ _______ _______ _____ _____    ______ ____
ROOT
ATOM      1  C   UNL     1       3.657   2.160  -0.023  0.00  0.00    +0.249 C 
ATOM      2  O   UNL     1       3.643   3.375  -0.016  0.00  0.00    -0.270 OA
ATOM      3  N   UNL     1       4.831   1.499  -0.036  0.00  0.00    -0.266 N 
ATOM      4  C   UNL     1       6.027   2.206  -0.150  0.00  0.00    +0.126 A 
ATOM      5  C   UNL     1       7.224   1.514  -0.269  0.00  0.00    +0.053 A 
ATOM      6  C   UNL     1       8.415   2.237  -0.382  0.00  0.00    +0.003 A 
ATOM      7  C   UNL     1       8.343   3.638  -0.370  0.00  0.00    +0.030 A 
ATOM      8  C   UNL     1       7.113   4.246  -0.248  0.00  0.00    +0.113 A 
ATOM      9  N   UNL     1       6.008   3.530  -0.148  0.00  0.00    -0.240 NA
ATOM     10  H   UNL     1       4.844   0.532   0.033  0.00  0.00    +0.157 HD
ENDROOT
BRANCH   6  11
ATOM     11  C   UNL     1       9.713   1.545  -0.511  0.00  0.00    +0.049 A 
ATOM     12  C   UNL     1      10.924   2.153  -0.621  0.00  0.00    +0.043 A 
ATOM     13  C   UNL     1      11.898   1.137  -0.720  0.00  0.00    +0.083 A 
ATOM     14  C   UNL     1      11.224  -0.093  -0.666  0.00  0.00    +0.145 A 
ATOM     15  N   UNL     1       9.894   0.178  -0.533  0.00  0.00    -0.339 N 
ATOM     16  H   UNL     1       9.188  -0.484  -0.467  0.00  0.00    +0.167 HD
ATOM     17  N   UNL     1      11.935  -1.228  -0.741  0.00  0.00    -0.220 NA
ATOM     18  C   UNL     1      13.230  -1.222  -0.863  0.00  0.00    +0.201 A 
ATOM     19  N   UNL     1      13.963  -0.083  -0.923  0.00  0.00    -0.313 N 
ATOM     20  H   UNL     1      14.928  -0.132  -1.015  0.00  0.00    +0.170 HD
ATOM     21  C   UNL     1      13.353   1.124  -0.858  0.00  0.00    +0.261 A 
ATOM     22  O   UNL     1      13.992   2.160  -0.910  0.00  0.00    -0.267 OA
ENDBRANCH   6  11
BRANCH   1  25
ATOM     23  C   UNL     1      -0.017   1.379   0.003  0.00  0.00    +0.004 A 
ATOM     24  C   UNL     1       1.167   2.088  -0.002  0.00  0.00    +0.013 A 
ATOM     25  C   UNL     1       2.385   1.407  -0.016  0.00  0.00    +0.037 A 
ATOM     26  C   UNL     1       2.397   0.011  -0.025  0.00  0.00    +0.013 A 
ATOM     27  C   UNL     1       1.206  -0.686  -0.019  0.00  0.00    +0.004 A 
ATOM     28  C   UNL     1       0.002  -0.004  -0.005  0.00  0.00    -0.044 A 
BRANCH  28  29
ATOM     29  C   UNL     1      -1.294  -0.772   0.002  0.00  0.00    +0.019 C 
ATOM     30  C   UNL     1      -1.338  -1.725   1.214  0.00  0.00    +0.008 C 
ATOM     31  C   UNL     1      -2.050  -2.991   0.677  0.00  0.00    +0.001 C 
ATOM     32  C   UNL     1      -1.489  -3.114  -0.762  0.00  0.00    +0.001 C 
ATOM     33  C   UNL     1      -1.391  -1.655  -1.255  0.00  0.00    +0.008 C 
ENDBRANCH  28  29
ENDBRANCH   1  25
TORSDOF 3
