REMARK  Name = CHEMBL409727
REMARK  4 active torsions:
REMARK  status: ('A' for Active; 'I' for Inactive)
REMARK    1  A    between atoms: C_1  and  C_2
REMARK    2  A    between atoms: C_11  and  C_16
REMARK    3  A    between atoms: C_21  and  C_24
REMARK    4  A    between atoms: N_26  and  C_27
REMARK                            x       y       z     vdW  Elec       q    Type
REMARK                         _______ _______ _______ _____ _____    ______ ____
ROOT
ATOM      1  C   UNL     1       5.558  -1.013   0.190  0.00  0.00    +0.250 C 
ATOM      2  O   UNL     1       5.458  -0.638  -0.962  0.00  0.00    -0.270 OA
ATOM      3  N   UNL     1       6.761  -1.373   0.680  0.00  0.00    -0.261 N 
ATOM      4  C   UNL     1       7.886  -1.315  -0.131  0.00  0.00    +0.165 A 
ATOM      5  N   UNL     1       9.133  -1.625   0.157  0.00  0.00    -0.220 NA
ATOM      6  C   UNL     1      10.058  -1.485  -0.798  0.00  0.00    +0.135 A 
ATOM      7  C   UNL     1       9.674  -1.030  -2.028  0.00  0.00    +0.081 A 
ATOM      8  S   UNL     1       8.017  -0.807  -1.836  0.00  0.00    -0.060 S 
ATOM      9  H   UNL     1       6.840  -1.673   1.599  0.00  0.00    +0.157 HD
ENDROOT
BRANCH   1  20
ATOM     10  C   UNL     1      -0.019   1.526   0.010  0.00  0.00    +0.032 C 
ATOM     11  C   UNL     1       0.002  -0.004   0.002  0.00  0.00    +0.102 C 
ATOM     12  C   UNL     1      -1.431  -0.534   0.019  0.00  0.00    +0.129 C 
ATOM     13  N   UNL     1      -2.084  -0.347   1.308  0.00  0.00    -0.308 N 
ATOM     14  C   UNL     1      -1.423  -0.517   2.478  0.00  0.00    +0.261 C 
ATOM     15  O   UNL     1      -1.998  -0.486   3.549  0.00  0.00    -0.269 OA
ATOM     16  C   UNL     1       0.033  -0.741   2.384  0.00  0.00    +0.106 A 
ATOM     17  N   UNL     1       0.711  -0.491   1.190  0.00  0.00    -0.332 N 
ATOM     18  C   UNL     1       2.023  -0.773   1.375  0.00  0.00    +0.051 A 
ATOM     19  C   UNL     1       3.124  -0.698   0.525  0.00  0.00    +0.039 A 
ATOM     20  C   UNL     1       4.361  -1.075   1.053  0.00  0.00    +0.039 A 
ATOM     21  C   UNL     1       4.499  -1.511   2.376  0.00  0.00    +0.014 A 
ATOM     22  C   UNL     1       3.431  -1.591   3.227  0.00  0.00    +0.011 A 
ATOM     23  C   UNL     1       2.177  -1.217   2.719  0.00  0.00    +0.001 A 
ATOM     24  C   UNL     1       0.904  -1.182   3.316  0.00  0.00    +0.041 A 
ATOM     25  H   UNL     1      -3.020  -0.094   1.329  0.00  0.00    +0.149 HD
ENDBRANCH   1  20
BRANCH   6  26
ATOM     26  C   UNL     1      11.466  -1.817  -0.529  0.00  0.00    +0.263 C 
ATOM     27  O   UNL     1      12.300  -1.687  -1.406  0.00  0.00    -0.269 OA
ATOM     28  N   UNL     1      11.833  -2.266   0.687  0.00  0.00    -0.307 N 
ATOM     29  H   UNL     1      11.168  -2.370   1.386  0.00  0.00    +0.149 HD
BRANCH  28  30
ATOM     30  C   UNL     1      13.235  -2.596   0.955  0.00  0.00    +0.073 C 
ATOM     31  C   UNL     1      13.516  -4.031   0.503  0.00  0.00    +0.022 C 
ATOM     32  C   UNL     1      14.980  -4.376   0.782  0.00  0.00    +0.002 C 
ATOM     33  C   UNL     1      15.257  -4.250   2.282  0.00  0.00    +0.000 C 
ATOM     34  C   UNL     1      14.976  -2.816   2.734  0.00  0.00    +0.002 C 
ATOM     35  C   UNL     1      13.511  -2.471   2.454  0.00  0.00    +0.022 C 
ENDBRANCH  28  30
ENDBRANCH   6  26
TORSDOF 3
