REMARK  Name = CHEMBL270150
REMARK  5 active torsions:
REMARK  status: ('A' for Active; 'I' for Inactive)
REMARK    1  A    between atoms: C_1  and  C_2
REMARK    2  A    between atoms: C_2  and  C_33
REMARK    3  A    between atoms: C_11  and  C_16
REMARK    4  A    between atoms: C_21  and  C_24
REMARK    5  A    between atoms: N_26  and  C_27
REMARK                            x       y       z     vdW  Elec       q    Type
REMARK                         _______ _______ _______ _____ _____    ______ ____
ROOT
ATOM      1  C   UNL     1       5.479  -1.355   0.267  0.00  0.00    +0.250 C 
ATOM      2  O   UNL     1       5.421  -0.962  -0.882  0.00  0.00    -0.270 OA
ATOM      3  N   UNL     1       6.651  -1.785   0.774  0.00  0.00    -0.261 N 
ATOM      4  C   UNL     1       7.792  -1.781  -0.017  0.00  0.00    +0.165 A 
ATOM      5  N   UNL     1       9.015  -2.163   0.289  0.00  0.00    -0.220 NA
ATOM      6  C   UNL     1       9.963  -2.065  -0.648  0.00  0.00    +0.135 A 
ATOM      7  C   UNL     1       9.628  -1.576  -1.879  0.00  0.00    +0.081 A 
ATOM      8  S   UNL     1       7.982  -1.264  -1.713  0.00  0.00    -0.060 S 
ATOM      9  H   UNL     1       6.697  -2.098   1.691  0.00  0.00    +0.157 HD
ENDROOT
BRANCH   1  20
ATOM     10  C   UNL     1       0.073   1.523   0.063  0.00  0.00    +0.036 C 
ATOM     11  C   UNL     1       0.002  -0.004   0.002  0.00  0.00    +0.056 C 
ATOM     12  C   UNL     1      -1.460  -0.446  -0.032  0.00  0.00    +0.132 C 
ATOM     13  N   UNL     1      -2.129  -0.261   1.251  0.00  0.00    -0.308 N 
ATOM     14  C   UNL     1      -1.514  -0.542   2.423  0.00  0.00    +0.261 C 
ATOM     15  O   UNL     1      -2.123  -0.561   3.476  0.00  0.00    -0.269 OA
ATOM     16  C   UNL     1      -0.067  -0.826   2.357  0.00  0.00    +0.106 A 
ATOM     17  N   UNL     1       0.652  -0.573   1.188  0.00  0.00    -0.329 N 
ATOM     18  C   UNL     1       1.942  -0.932   1.393  0.00  0.00    +0.051 A 
ATOM     19  C   UNL     1       3.060  -0.908   0.562  0.00  0.00    +0.039 A 
ATOM     20  C   UNL     1       4.265  -1.359   1.108  0.00  0.00    +0.039 A 
ATOM     21  C   UNL     1       4.354  -1.815   2.428  0.00  0.00    +0.014 A 
ATOM     22  C   UNL     1       3.268  -1.847   3.259  0.00  0.00    +0.011 A 
ATOM     23  C   UNL     1       2.046  -1.400   2.732  0.00  0.00    +0.001 A 
ATOM     24  C   UNL     1       0.765  -1.307   3.304  0.00  0.00    +0.041 A 
ATOM     25  C   UNL     1       0.716  -0.498  -1.258  0.00  0.00    +0.036 C 
ATOM     26  H   UNL     1      -3.040   0.072   1.264  0.00  0.00    +0.149 HD
ENDBRANCH   1  20
BRANCH   6  27
ATOM     27  C   UNL     1      11.346  -2.477  -0.358  0.00  0.00    +0.263 C 
ATOM     28  O   UNL     1      12.201  -2.384  -1.218  0.00  0.00    -0.269 OA
ATOM     29  N   UNL     1      11.665  -2.958   0.860  0.00  0.00    -0.307 N 
ATOM     30  H   UNL     1      10.983  -3.033   1.546  0.00  0.00    +0.149 HD
BRANCH  29  31
ATOM     31  C   UNL     1      13.042  -3.368   1.148  0.00  0.00    +0.073 C 
ATOM     32  C   UNL     1      13.251  -4.811   0.685  0.00  0.00    +0.022 C 
ATOM     33  C   UNL     1      14.689  -5.240   0.986  0.00  0.00    +0.002 C 
ATOM     34  C   UNL     1      14.945  -5.145   2.492  0.00  0.00    +0.000 C 
ATOM     35  C   UNL     1      14.735  -3.702   2.955  0.00  0.00    +0.002 C 
ATOM     36  C   UNL     1      13.297  -3.273   2.654  0.00  0.00    +0.022 C 
ENDBRANCH  29  31
ENDBRANCH   6  27
TORSDOF 3
