REMARK  Name = CHEMBL361425
REMARK  3 active torsions:
REMARK  status: ('A' for Active; 'I' for Inactive)
REMARK    1  A    between atoms: C_6  and  O_7
REMARK    2  A    between atoms: C_12  and  C_17
REMARK    3  A    between atoms: C_13  and  N_16
REMARK                            x       y       z     vdW  Elec       q    Type
REMARK                         _______ _______ _______ _____ _____    ______ ____
ROOT
ATOM      1  C   UNL     1      -0.017   1.383   0.010  0.00  0.00    +0.046 A 
ATOM      2  C   UNL     1       1.170   2.088   0.002  0.00  0.00    +0.011 A 
ATOM      3  C   UNL     1       2.382   1.419  -0.014  0.00  0.00    -0.005 A 
ATOM      4  C   UNL     1       2.407   0.034  -0.023  0.00  0.00    +0.128 A 
ATOM      5  C   UNL     1       1.212  -0.677  -0.013  0.00  0.00    +0.091 A 
ATOM      6  C   UNL     1       0.002  -0.004   0.002  0.00  0.00    +0.120 A 
ATOM      7  O   UNL     1       3.574  -0.663  -0.046  0.00  0.00    -0.487 OA
ATOM      8  C   UNL     1       4.766   0.036   0.317  0.00  0.00    +0.188 C 
ATOM      9  C   UNL     1       5.992  -0.816  -0.030  0.00  0.00    +0.101 C 
ATOM     10  C   UNL     1       7.221  -0.047   0.408  0.00  0.00    +0.055 C 
ATOM     11  C   UNL     1       7.258   1.400   0.132  0.00  0.00    +0.089 C 
ATOM     12  C   UNL     1       6.122   2.049  -0.280  0.00  0.00    +0.028 C 
ATOM     13  C   UNL     1       4.817   1.342  -0.481  0.00  0.00    +0.079 C 
ATOM     14  C   UNL     1       3.656   2.228  -0.021  0.00  0.00    +0.052 C 
ATOM     15  N   UNL     1       8.208  -0.642   1.005  0.00  0.00    -0.303 NA
ATOM     16  H   UNL     1       8.166  -1.596   1.177  0.00  0.00    +0.186 HD
ENDROOT
BRANCH  12  17
ATOM     17  N   UNL     1       6.182   3.387  -0.514  0.00  0.00    -0.360 N 
ATOM     18  H   UNL     1       7.018   3.864  -0.389  0.00  0.00    +0.142 HD
ATOM     19  H   UNL     1       5.390   3.865  -0.806  0.00  0.00    +0.142 HD
ENDBRANCH  12  17
BRANCH   6  20
ATOM     20  O   UNL     1      -1.165  -0.701   0.010  0.00  0.00    -0.507 OA
ATOM     21  H   UNL     1      -1.511  -0.898  -0.871  0.00  0.00    +0.292 HD
ENDBRANCH   6  20
BRANCH  11  22
ATOM     22  C   UNL     1       8.480   2.128   0.294  0.00  0.00    +0.102 C 
ATOM     23  N   UNL     1       9.450   2.706   0.423  0.00  0.00    -0.191 NA
ENDBRANCH  11  22
TORSDOF 3
