REMARK  Name = CHEMBL361425
REMARK  3 active torsions:
REMARK  status: ('A' for Active; 'I' for Inactive)
REMARK    1  A    between atoms: C_6  and  O_7
REMARK    2  A    between atoms: C_12  and  C_17
REMARK    3  A    between atoms: C_13  and  N_16
REMARK                            x       y       z     vdW  Elec       q    Type
REMARK                         _______ _______ _______ _____ _____    ______ ____
ROOT
ATOM      1  C   UNL     1      -0.017   1.383   0.010  0.00  0.00    +0.046 A 
ATOM      2  C   UNL     1       1.170   2.088   0.002  0.00  0.00    +0.011 A 
ATOM      3  C   UNL     1       2.382   1.418  -0.011  0.00  0.00    -0.005 A 
ATOM      4  C   UNL     1       2.408   0.034  -0.012  0.00  0.00    +0.128 A 
ATOM      5  C   UNL     1       1.212  -0.677  -0.009  0.00  0.00    +0.091 A 
ATOM      6  C   UNL     1       0.002  -0.004   0.002  0.00  0.00    +0.120 A 
ATOM      7  O   UNL     1       3.573  -0.660  -0.004  0.00  0.00    -0.487 OA
ATOM      8  C   UNL     1       4.775   0.019  -0.378  0.00  0.00    +0.188 C 
ATOM      9  C   UNL     1       5.970  -0.843   0.068  0.00  0.00    +0.101 C 
ATOM     10  C   UNL     1       5.781  -1.139   1.542  0.00  0.00    +0.055 C 
ATOM     11  C   UNL     1       5.317  -0.044   2.412  0.00  0.00    +0.089 C 
ATOM     12  C   UNL     1       4.864   1.129   1.857  0.00  0.00    +0.028 C 
ATOM     13  C   UNL     1       4.839   1.349   0.376  0.00  0.00    +0.079 C 
ATOM     14  C   UNL     1       3.656   2.223  -0.030  0.00  0.00    +0.052 C 
ATOM     15  N   UNL     1       6.021  -2.319   2.024  0.00  0.00    -0.303 NA
ATOM     16  H   UNL     1       5.895  -2.492   2.970  0.00  0.00    +0.186 HD
ENDROOT
BRANCH  12  17
ATOM     17  N   UNL     1       4.425   2.120   2.678  0.00  0.00    -0.360 N 
ATOM     18  H   UNL     1       4.434   1.993   3.639  0.00  0.00    +0.142 HD
ATOM     19  H   UNL     1       4.102   2.954   2.302  0.00  0.00    +0.142 HD
ENDBRANCH  12  17
BRANCH   6  20
ATOM     20  O   UNL     1      -1.165  -0.701   0.005  0.00  0.00    -0.507 OA
ATOM     21  H   UNL     1      -1.508  -0.898  -0.877  0.00  0.00    +0.292 HD
ENDBRANCH   6  20
BRANCH  11  22
ATOM     22  C   UNL     1       5.337  -0.202   3.835  0.00  0.00    +0.102 C 
ATOM     23  N   UNL     1       5.353  -0.327   4.964  0.00  0.00    -0.191 NA
ENDBRANCH  11  22
TORSDOF 3
