REMARK  Name = CHEMBL178413
REMARK  4 active torsions:
REMARK  status: ('A' for Active; 'I' for Inactive)
REMARK    1  A    between atoms: C_5  and  C_8
REMARK    2  A    between atoms: C_6  and  O_7
REMARK    3  A    between atoms: C_18  and  C_23
REMARK    4  A    between atoms: C_19  and  N_22
REMARK                            x       y       z     vdW  Elec       q    Type
REMARK                         _______ _______ _______ _____ _____    ______ ____
ROOT
ATOM      1  C   UNL     1      -0.017   1.381   0.010  0.00  0.00    +0.053 A 
ATOM      2  C   UNL     1       1.170   2.095   0.002  0.00  0.00    -0.002 A 
ATOM      3  C   UNL     1       2.379   1.424  -0.014  0.00  0.00    +0.125 A 
ATOM      4  C   UNL     1       2.397   0.033  -0.020  0.00  0.00    +0.055 A 
ATOM      5  C   UNL     1       1.214  -0.678  -0.012  0.00  0.00    +0.028 A 
ATOM      6  C   UNL     1       0.002  -0.004   0.002  0.00  0.00    +0.123 A 
ATOM      7  O   UNL     1       3.568   2.085  -0.028  0.00  0.00    -0.488 OA
ATOM      8  C   UNL     1       3.560   3.463   0.351  0.00  0.00    +0.188 C 
ATOM      9  C   UNL     1       4.911   4.101   0.012  0.00  0.00    +0.101 C 
ATOM     10  C   UNL     1       4.861   5.545   0.467  0.00  0.00    +0.055 C 
ATOM     11  C   UNL     1       3.627   6.304   0.200  0.00  0.00    +0.089 C 
ATOM     12  C   UNL     1       2.495   5.651  -0.220  0.00  0.00    +0.028 C 
ATOM     13  C   UNL     1       2.455   4.170  -0.440  0.00  0.00    +0.079 C 
ATOM     14  C   UNL     1       1.107   3.603   0.013  0.00  0.00    +0.052 C 
ATOM     15  N   UNL     1       5.870   6.094   1.070  0.00  0.00    -0.303 NA
ATOM     16  H   UNL     1       5.819   7.020   1.355  0.00  0.00    +0.186 HD
ENDROOT
BRANCH   5  17
ATOM     17  C   UNL     1       1.240  -2.185  -0.021  0.00  0.00    +0.177 C 
ATOM     18  C   UNL     1       1.117  -2.691  -1.461  0.00  0.00    +0.196 C 
ATOM     19  O   UNL     1       1.254  -4.115  -1.471  0.00  0.00    -0.375 OA
ATOM     20  C   UNL     1       2.490  -4.576  -0.915  0.00  0.00    +0.188 C 
ATOM     21  C   UNL     1       2.612  -4.070   0.525  0.00  0.00    +0.188 C 
ATOM     22  O   UNL     1       2.475  -2.646   0.535  0.00  0.00    -0.367 OA
ENDBRANCH   5  17
BRANCH  12  23
ATOM     23  N   UNL     1       1.367   6.376  -0.444  0.00  0.00    -0.360 N 
ATOM     24  H   UNL     1       1.373   7.336  -0.308  0.00  0.00    +0.142 HD
ATOM     25  H   UNL     1       0.557   5.933  -0.742  0.00  0.00    +0.142 HD
ENDBRANCH  12  23
BRANCH   6  26
ATOM     26  O   UNL     1      -1.165  -0.701   0.009  0.00  0.00    -0.506 OA
ATOM     27  H   UNL     1      -1.511  -0.898  -0.872  0.00  0.00    +0.292 HD
ENDBRANCH   6  26
BRANCH  11  28
ATOM     28  C   UNL     1       3.608   7.725   0.380  0.00  0.00    +0.102 C 
ATOM     29  N   UNL     1       3.593   8.852   0.522  0.00  0.00    -0.191 NA
ENDBRANCH  11  28
TORSDOF 4
