REMARK  Name = CHEMBL392596
REMARK  2 active torsions:
REMARK  status: ('A' for Active; 'I' for Inactive)
REMARK    1  A    between atoms: C_1  and  C_2
REMARK    2  A    between atoms: C_11  and  C_17
REMARK                            x       y       z     vdW  Elec       q    Type
REMARK                         _______ _______ _______ _____ _____    ______ ____
ROOT
ATOM      1  C   UNL     1      -0.019   1.533   0.014  0.00  0.00    +0.014 C 
ATOM      2  C   UNL     1       0.004   0.003   0.004  0.00  0.00    +0.036 C 
ATOM      3  C   UNL     1       0.733  -0.491  -1.246  0.00  0.00    +0.112 C 
ATOM      4  N   UNL     1       2.175  -0.295  -1.164  0.00  0.00    -0.310 N 
ATOM      5  C   UNL     1       2.869  -0.477  -0.018  0.00  0.00    +0.261 C 
ATOM      6  O   UNL     1       4.085  -0.437   0.002  0.00  0.00    -0.269 OA
ATOM      7  C   UNL     1       2.087  -0.725   1.206  0.00  0.00    +0.106 A 
ATOM      8  C   UNL     1       0.732  -0.498   1.224  0.00  0.00    -0.006 A 
ATOM      9  C   UNL     1       0.271  -0.815   2.501  0.00  0.00    +0.005 A 
ATOM     10  C   UNL     1      -1.004  -0.773   3.081  0.00  0.00    +0.023 A 
ATOM     11  C   UNL     1      -1.100  -1.171   4.416  0.00  0.00    +0.038 A 
ATOM     12  C   UNL     1       0.021  -1.592   5.141  0.00  0.00    +0.015 A 
ATOM     13  C   UNL     1       1.272  -1.637   4.588  0.00  0.00    +0.027 A 
ATOM     14  C   UNL     1       1.401  -1.245   3.254  0.00  0.00    +0.047 A 
ATOM     15  N   UNL     1       2.491  -1.178   2.438  0.00  0.00    -0.350 N 
ATOM     16  H   UNL     1       3.399  -1.412   2.685  0.00  0.00    +0.166 HD
ATOM     17  H   UNL     1       2.655  -0.024  -1.963  0.00  0.00    +0.149 HD
ENDROOT
BRANCH  11  18
ATOM     18  C   UNL     1      -2.419  -1.148   5.079  0.00  0.00    +0.249 C 
ATOM     19  O   UNL     1      -3.402  -0.785   4.464  0.00  0.00    -0.270 OA
ATOM     20  N   UNL     1      -2.532  -1.529   6.367  0.00  0.00    -0.265 N 
ATOM     21  C   UNL     1      -3.753  -1.407   7.025  0.00  0.00    +0.143 A 
ATOM     22  C   UNL     1      -3.848  -1.700   8.383  0.00  0.00    +0.154 A 
ATOM     23  N   UNL     1      -5.007  -1.583   9.002  0.00  0.00    -0.258 NA
ATOM     24  C   UNL     1      -6.078  -1.188   8.335  0.00  0.00    +0.130 A 
ATOM     25  C   UNL     1      -5.988  -0.896   6.987  0.00  0.00    +0.132 A 
ATOM     26  N   UNL     1      -4.829  -1.005   6.361  0.00  0.00    -0.237 NA
ATOM     27  H   UNL     1      -1.762  -1.888   6.836  0.00  0.00    +0.157 HD
ENDBRANCH  11  18
TORSDOF 1
