REMARK  Name = CHEMBL373598
REMARK  6 active torsions:
REMARK  status: ('A' for Active; 'I' for Inactive)
REMARK    1  A    between atoms: C_5  and  O_8
REMARK    2  A    between atoms: O_8  and  C_9
REMARK    3  A    between atoms: C_9  and  C_10
REMARK    4  A    between atoms: C_10  and  C_11
REMARK    5  A    between atoms: C_11  and  O_12
REMARK    6  A    between atoms: C_21  and  C_30
REMARK                            x       y       z     vdW  Elec       q    Type
REMARK                         _______ _______ _______ _____ _____    ______ ____
ROOT
ATOM      1  C   UNL     1      -0.017   1.379   0.010  0.00  0.00    +0.050 A 
ATOM      2  C   UNL     1       1.166   2.090   0.002  0.00  0.00    +0.078 A 
ATOM      3  C   UNL     1       2.388   1.416   0.036  0.00  0.00    +0.145 A 
ATOM      4  C   UNL     1       2.408   0.034   0.043  0.00  0.00    +0.094 A 
ATOM      5  C   UNL     1       1.216  -0.677   0.015  0.00  0.00    +0.142 A 
ATOM      6  C   UNL     1       0.002  -0.004   0.002  0.00  0.00    +0.085 A 
ATOM      7 CL   UNL     1      -1.488  -0.895  -0.024  0.00  0.00    -0.080 Cl
ATOM      8  O   UNL     1       3.553   2.115   0.074  0.00  0.00    -0.490 OA
ATOM      9  C   UNL     1       4.722   1.464  -0.422  0.00  0.00    +0.229 C 
ATOM     10  C   UNL     1       5.953   1.979   0.327  0.00  0.00    +0.041 C 
ATOM     11  C   UNL     1       6.861   2.738  -0.641  0.00  0.00    +0.007 C 
ATOM     12  C   UNL     1       6.273   4.124  -0.910  0.00  0.00    +0.041 C 
ATOM     13  C   UNL     1       6.607   4.551  -2.341  0.00  0.00    +0.231 C 
ATOM     14  O   UNL     1       6.304   5.938  -2.498  0.00  0.00    -0.474 OA
ATOM     15  C   UNL     1       4.997   6.279  -2.596  0.00  0.00    +0.254 A 
ATOM     16  C   UNL     1       4.621   7.343  -3.432  0.00  0.00    +0.202 A 
ATOM     17  N   UNL     1       3.342   7.699  -3.523  0.00  0.00    -0.236 NA
ATOM     18  C   UNL     1       2.429   7.054  -2.828  0.00  0.00    +0.156 A 
ATOM     19  C   UNL     1       2.800   5.989  -2.006  0.00  0.00    +0.148 A 
ATOM     20  N   UNL     1       4.070   5.621  -1.915  0.00  0.00    -0.194 NA
ATOM     21  N   UNL     1       1.805   5.345  -1.253  0.00  0.00    -0.253 N 
ATOM     22  C   UNL     1       2.112   4.102  -0.774  0.00  0.00    +0.309 C 
ATOM     23  O   UNL     1       3.179   3.563  -0.997  0.00  0.00    -0.252 OA
ATOM     24  N   UNL     1       1.130   3.508  -0.026  0.00  0.00    -0.266 N 
ATOM     25  H   UNL     1       0.945   5.760  -1.082  0.00  0.00    +0.158 HD
ATOM     26  H   UNL     1       0.458   4.021   0.451  0.00  0.00    +0.156 HD
ENDROOT
BRANCH  16  27
ATOM     27  C   UNL     1       5.615   8.045  -4.188  0.00  0.00    +0.125 C 
ATOM     28  N   UNL     1       6.403   8.602  -4.787  0.00  0.00    -0.189 NA
ENDBRANCH  16  27
BRANCH   5  29
ATOM     29  O   UNL     1       1.238  -2.037   0.001  0.00  0.00    -0.490 OA
BRANCH  29  30
ATOM     30  C   UNL     1       2.522  -2.665   0.016  0.00  0.00    +0.231 C 
BRANCH  30  31
ATOM     31  C   UNL     1       2.346  -4.185  -0.004  0.00  0.00    +0.069 C 
BRANCH  31  32
ATOM     32  C   UNL     1       3.720  -4.858   0.012  0.00  0.00    +0.159 C 
BRANCH  32  33
ATOM     33  O   UNL     1       3.555  -6.277  -0.006  0.00  0.00    -0.395 OA
ATOM     34  H   UNL     1       4.388  -6.770   0.003  0.00  0.00    +0.209 HD
ENDBRANCH  32  33
ENDBRANCH  31  32
ENDBRANCH  30  31
ENDBRANCH  29  30
ENDBRANCH   5  29
TORSDOF 6
