REMARK  Name = CHEMBL600081
REMARK  2 active torsions:
REMARK  status: ('A' for Active; 'I' for Inactive)
REMARK    1  A    between atoms: C_8  and  C_10
REMARK    2  A    between atoms: C_13  and  N_20
REMARK                            x       y       z     vdW  Elec       q    Type
REMARK                         _______ _______ _______ _____ _____    ______ ____
ROOT
ATOM      1  C   UNL     1       3.029  -4.537  -0.300  0.00  0.00    +0.107 A 
ATOM      2  C   UNL     1       4.252  -4.925  -1.014  0.00  0.00    +0.030 A 
ATOM      3  C   UNL     1       5.286  -4.209  -1.621  0.00  0.00    +0.035 A 
ATOM      4  C   UNL     1       6.323  -4.893  -2.227  0.00  0.00    +0.033 A 
ATOM      5  C   UNL     1       6.337  -6.288  -2.232  0.00  0.00    +0.025 A 
ATOM      6  C   UNL     1       5.332  -6.997  -1.641  0.00  0.00    +0.029 A 
ATOM      7  C   UNL     1       4.275  -6.330  -1.025  0.00  0.00    +0.066 A 
ATOM      8  N   UNL     1       3.147  -6.753  -0.364  0.00  0.00    -0.276 N 
ATOM      9  H   UNL     1       2.898  -7.679  -0.216  0.00  0.00    +0.189 HD
ATOM     10  N   UNL     1       2.419  -5.640   0.066  0.00  0.00    -0.172 NA
ENDROOT
BRANCH   4  11
ATOM     11  N   UNL     1       7.364  -4.183  -2.838  0.00  0.00    -0.299 N 
ATOM     12  C   UNL     1       8.663  -4.661  -2.770  0.00  0.00    +0.128 A 
ATOM     13  C   UNL     1       9.688  -4.031  -3.478  0.00  0.00    +0.061 A 
ATOM     14  C   UNL     1      10.967  -4.542  -3.380  0.00  0.00    +0.089 A 
ATOM     15  N   UNL     1      11.183  -5.609  -2.624  0.00  0.00    -0.334 N 
ATOM     16  C   UNL     1      10.191  -6.187  -1.963  0.00  0.00    +0.192 A 
ATOM     17  N   UNL     1       8.952  -5.724  -2.025  0.00  0.00    -0.201 NA
ATOM     18  N   UNL     1      10.458  -7.299  -1.184  0.00  0.00    -0.329 N 
ATOM     19  H   UNL     1       7.175  -3.356  -3.309  0.00  0.00    +0.154 HD
ATOM     20  H   UNL     1      11.362  -7.646  -1.126  0.00  0.00    +0.145 HD
ATOM     21  H   UNL     1       9.740  -7.732  -0.695  0.00  0.00    +0.145 HD
ATOM     22  H   UNL     1      12.080  -5.971  -2.553  0.00  0.00    +0.168 HD
ENDBRANCH   4  11
BRANCH   1  30
ATOM     23  C   UNL     1      -0.168   0.754   0.648  0.00  0.00    +0.001 A 
ATOM     24  C   UNL     1       1.003   1.472   0.849  0.00  0.00    +0.001 A 
ATOM     25  C   UNL     1       2.221   0.825   0.771  0.00  0.00    +0.015 A 
ATOM     26  C   UNL     1       2.257  -0.525   0.494  0.00  0.00    +0.020 A 
ATOM     27  C   UNL     1       1.081  -1.279   0.284  0.00  0.00    -0.010 A 
ATOM     28  C   UNL     1      -0.147  -0.578   0.374  0.00  0.00    +0.009 A 
ATOM     29  C   UNL     1       1.302  -2.687   0.003  0.00  0.00    +0.026 A 
ATOM     30  C   UNL     1       2.573  -3.158  -0.036  0.00  0.00    +0.041 A 
ATOM     31  S   UNL     1       3.560  -1.714   0.307  0.00  0.00    -0.087 S 
ENDBRANCH   1  30
TORSDOF 2
