REMARK  Name = CHEMBL600081
REMARK  2 active torsions:
REMARK  status: ('A' for Active; 'I' for Inactive)
REMARK    1  A    between atoms: C_8  and  C_10
REMARK    2  A    between atoms: C_13  and  N_20
REMARK                            x       y       z     vdW  Elec       q    Type
REMARK                         _______ _______ _______ _____ _____    ______ ____
ROOT
ATOM      1  C   UNL     1       3.651  -3.424   0.328  0.00  0.00    +0.080 A 
ATOM      2  C   UNL     1       4.478  -4.132  -0.551  0.00  0.00    +0.030 A 
ATOM      3  C   UNL     1       5.247  -3.787  -1.676  0.00  0.00    +0.035 A 
ATOM      4  C   UNL     1       5.961  -4.753  -2.325  0.00  0.00    +0.033 A 
ATOM      5  C   UNL     1       5.945  -6.087  -1.896  0.00  0.00    +0.025 A 
ATOM      6  C   UNL     1       5.223  -6.480  -0.818  0.00  0.00    +0.032 A 
ATOM      7  C   UNL     1       4.462  -5.530  -0.101  0.00  0.00    +0.093 A 
ATOM      8  N   UNL     1       3.676  -5.589   0.960  0.00  0.00    -0.173 NA
ATOM      9  H   UNL     1       2.579  -4.095   1.973  0.00  0.00    +0.189 HD
ATOM     10  N   UNL     1       3.176  -4.312   1.240  0.00  0.00    -0.275 N 
ENDROOT
BRANCH   4  11
ATOM     11  N   UNL     1       6.724  -4.403  -3.444  0.00  0.00    -0.299 N 
ATOM     12  C   UNL     1       6.290  -3.397  -4.293  0.00  0.00    +0.128 A 
ATOM     13  C   UNL     1       7.099  -2.956  -5.342  0.00  0.00    +0.063 A 
ATOM     14  C   UNL     1       6.625  -1.952  -6.163  0.00  0.00    +0.118 A 
ATOM     15  N   UNL     1       5.425  -1.439  -5.933  0.00  0.00    -0.223 NA
ATOM     16  C   UNL     1       4.678  -1.876  -4.930  0.00  0.00    +0.214 A 
ATOM     17  N   UNL     1       5.094  -2.841  -4.123  0.00  0.00    -0.200 NA
ATOM     18  N   UNL     1       3.431  -1.314  -4.722  0.00  0.00    -0.327 N 
ATOM     19  H   UNL     1       7.557  -4.865  -3.626  0.00  0.00    +0.154 HD
ATOM     20  H   UNL     1       3.113  -0.609  -5.308  0.00  0.00    +0.145 HD
ATOM     21  H   UNL     1       2.874  -1.625  -3.991  0.00  0.00    +0.145 HD
ENDBRANCH   4  11
BRANCH   1  29
ATOM     22  C   UNL     1       1.038   2.219   0.342  0.00  0.00    +0.001 A 
ATOM     23  C   UNL     1       2.262   2.840   0.128  0.00  0.00    +0.001 A 
ATOM     24  C   UNL     1       3.404   2.071   0.015  0.00  0.00    +0.015 A 
ATOM     25  C   UNL     1       3.313   0.701   0.115  0.00  0.00    +0.020 A 
ATOM     26  C   UNL     1       2.081   0.041   0.332  0.00  0.00    -0.010 A 
ATOM     27  C   UNL     1       0.934   0.868   0.443  0.00  0.00    +0.009 A 
ATOM     28  C   UNL     1       2.154  -1.363   0.411  0.00  0.00    +0.026 A 
ATOM     29  C   UNL     1       3.357  -1.987   0.279  0.00  0.00    +0.039 A 
ATOM     30  S   UNL     1       4.487  -0.628   0.032  0.00  0.00    -0.087 S 
ENDBRANCH   1  29
TORSDOF 2
