REMARK  Name = CHEMBL361425
REMARK  3 active torsions:
REMARK  status: ('A' for Active; 'I' for Inactive)
REMARK    1  A    between atoms: C_6  and  O_7
REMARK    2  A    between atoms: C_12  and  C_17
REMARK    3  A    between atoms: C_13  and  N_16
REMARK                            x       y       z     vdW  Elec       q    Type
REMARK                         _______ _______ _______ _____ _____    ______ ____
ROOT
ATOM      1  C   UNL     1      -0.017   1.383   0.010  0.00  0.00    +0.046 A 
ATOM      2  C   UNL     1       1.169   2.090   0.002  0.00  0.00    +0.011 A 
ATOM      3  C   UNL     1       2.382   1.419  -0.009  0.00  0.00    -0.005 A 
ATOM      4  C   UNL     1       2.405   0.035  -0.007  0.00  0.00    +0.128 A 
ATOM      5  C   UNL     1       1.212  -0.677  -0.008  0.00  0.00    +0.091 A 
ATOM      6  C   UNL     1       0.002  -0.004   0.002  0.00  0.00    +0.120 A 
ATOM      7  O   UNL     1       3.573  -0.655   0.012  0.00  0.00    -0.487 OA
ATOM      8  C   UNL     1       4.784   0.018  -0.272  0.00  0.00    +0.192 C 
ATOM      9  C   UNL     1       4.964   0.248  -1.756  0.00  0.00    +0.090 C 
ATOM     10  C   UNL     1       6.228   0.925  -2.123  0.00  0.00    +0.036 C 
ATOM     11  C   UNL     1       6.745   1.907  -1.136  0.00  0.00    +0.088 C 
ATOM     12  C   UNL     1       6.106   2.094   0.060  0.00  0.00    +0.028 C 
ATOM     13  C   UNL     1       4.840   1.371   0.439  0.00  0.00    +0.080 C 
ATOM     14  C   UNL     1       3.654   2.224  -0.028  0.00  0.00    +0.052 C 
ATOM     15  N   UNL     1       6.851   0.675  -3.249  0.00  0.00    -0.400 N 
ATOM     16  H   UNL     1       6.486   0.027  -3.872  0.00  0.00    +0.156 HD
ATOM     17  H   UNL     1       7.678   1.137  -3.458  0.00  0.00    +0.156 HD
ENDROOT
BRANCH  12  18
ATOM     18  N   UNL     1       6.641   2.974   0.950  0.00  0.00    -0.360 N 
ATOM     19  H   UNL     1       7.456   3.452   0.729  0.00  0.00    +0.142 HD
ATOM     20  H   UNL     1       6.207   3.124   1.804  0.00  0.00    +0.142 HD
ENDBRANCH  12  18
BRANCH   6  21
ATOM     21  O   UNL     1      -1.165  -0.701   0.004  0.00  0.00    -0.507 OA
ATOM     22  H   UNL     1      -1.507  -0.898  -0.879  0.00  0.00    +0.292 HD
ENDBRANCH   6  21
BRANCH  11  23
ATOM     23  C   UNL     1       7.922   2.664  -1.438  0.00  0.00    +0.102 C 
ATOM     24  N   UNL     1       8.856   3.265  -1.677  0.00  0.00    -0.191 NA
ENDBRANCH  11  23
TORSDOF 3
