REMARK  Name = CHEMBL541448
REMARK  6 active torsions:
REMARK  status: ('A' for Active; 'I' for Inactive)
REMARK    1  A    between atoms: C_1  and  C_2
REMARK    2  A    between atoms: C_9  and  O_18
REMARK    3  A    between atoms: O_18  and  C_19
REMARK    4  A    between atoms: C_19  and  C_20
REMARK    5  A    between atoms: C_24  and  O_26
REMARK    6  A    between atoms: O_26  and  C_27
REMARK                            x       y       z     vdW  Elec       q    Type
REMARK                         _______ _______ _______ _____ _____    ______ ____
ROOT
ATOM      1  C   UNL     1      -0.019   1.526   0.010  0.00  0.00    +0.029 C 
ATOM      2  C   UNL     1       0.002  -0.004   0.002  0.00  0.00    +0.086 C 
ATOM      3  C   UNL     1      -1.437  -0.511  -0.038  0.00  0.00    +0.104 C 
ATOM      4  N   UNL     1      -1.499  -1.938   0.275  0.00  0.00    -0.402 NA
ATOM      5  C   UNL     1      -0.488  -2.667  -0.376  0.00  0.00    +0.039 A 
ATOM      6  C   UNL     1      -0.764  -3.553  -1.453  0.00  0.00    +0.013 A 
ATOM      7  C   UNL     1      -2.034  -3.852  -2.012  0.00  0.00    +0.056 A 
ATOM      8  C   UNL     1      -2.146  -4.734  -3.057  0.00  0.00    +0.122 A 
ATOM      9  C   UNL     1      -1.026  -5.361  -3.600  0.00  0.00    +0.047 A 
ATOM     10  C   UNL     1       0.223  -5.093  -3.079  0.00  0.00    +0.019 A 
ATOM     11  C   UNL     1       0.347  -4.209  -2.029  0.00  0.00    +0.022 A 
ATOM     12  S   UNL     1       1.722  -3.600  -1.080  0.00  0.00    -0.082 S 
ATOM     13  C   UNL     1       0.811  -2.550   0.010  0.00  0.00    +0.094 A 
ATOM     14  C   UNL     1       1.282  -1.717   1.123  0.00  0.00    +0.253 C 
ATOM     15  O   UNL     1       2.083  -2.116   1.948  0.00  0.00    -0.270 OA
ATOM     16  N   UNL     1       0.751  -0.465   1.161  0.00  0.00    -0.307 N 
ATOM     17  H   UNL     1      -1.400  -2.060   1.271  0.00  0.00    +0.124 HD
ATOM     18  H   UNL     1       0.870   0.105   1.937  0.00  0.00    +0.149 HD
ATOM     19  H   UNL     1      -2.397  -2.298  -0.011  0.00  0.00    +0.124 HD
ENDROOT
BRANCH   8  20
ATOM     20  O   UNL     1      -3.375  -5.001  -3.572  0.00  0.00    -0.487 OA
BRANCH  20  21
ATOM     21  C   UNL     1      -3.435  -5.927  -4.660  0.00  0.00    +0.264 C 
BRANCH  21  22
ATOM     22  C   UNL     1      -4.867  -6.098  -5.096  0.00  0.00    -0.007 A 
ATOM     23  C   UNL     1      -5.655  -7.075  -4.516  0.00  0.00    +0.007 A 
ATOM     24  C   UNL     1      -6.969  -7.234  -4.914  0.00  0.00    +0.004 A 
ATOM     25  C   UNL     1      -7.499  -6.417  -5.893  0.00  0.00    +0.045 A 
ATOM     26  C   UNL     1      -6.712  -5.435  -6.476  0.00  0.00    +0.120 A 
ATOM     27  C   UNL     1      -5.395  -5.273  -6.071  0.00  0.00    +0.052 A 
BRANCH  26  28
ATOM     28  O   UNL     1      -7.231  -4.629  -7.440  0.00  0.00    -0.495 OA
ATOM     29  C   UNL     1      -8.595  -4.849  -7.803  0.00  0.00    +0.277 C 
ENDBRANCH  26  28
ENDBRANCH  21  22
ENDBRANCH  20  21
ENDBRANCH   8  20
TORSDOF 4
