REMARK  Name = CHEMBL549915
REMARK  3 active torsions:
REMARK  status: ('A' for Active; 'I' for Inactive)
REMARK    1  A    between atoms: C_1  and  C_2
REMARK    2  A    between atoms: C_7  and  C_8
REMARK    3  A    between atoms: C_24  and  C_28
REMARK                            x       y       z     vdW  Elec       q    Type
REMARK                         _______ _______ _______ _____ _____    ______ ____
ROOT
ATOM      1  C   UNL     1       0.175   0.113   2.420  0.00  0.00    +0.073 A 
ATOM      2  C   UNL     1       0.397  -0.566   3.626  0.00  0.00    +0.029 A 
ATOM      3  C   UNL     1       0.469   0.140   4.795  0.00  0.00    +0.013 A 
ATOM      4  C   UNL     1       0.318   1.532   4.738  0.00  0.00    +0.010 A 
ATOM      5  C   UNL     1       0.102   2.162   3.495  0.00  0.00    +0.072 A 
ATOM      6  N   UNL     1       0.042   1.425   2.381  0.00  0.00    -0.247 NA
ATOM      7  C   UNL     1      -0.044   3.565   3.429  0.00  0.00    +0.029 A 
ATOM      8  C   UNL     1       0.018   4.313   4.560  0.00  0.00    +0.018 A 
ATOM      9  C   UNL     1       0.224   3.727   5.804  0.00  0.00    +0.023 A 
ATOM     10  C   UNL     1       0.382   2.343   5.971  0.00  0.00    +0.020 A 
ATOM     11  C   UNL     1       0.585   1.877   7.299  0.00  0.00    +0.055 A 
ATOM     12  C   UNL     1       0.606   2.821   8.312  0.00  0.00    +0.096 A 
ATOM     13  S   UNL     1       0.354   4.365   7.455  0.00  0.00    -0.082 S 
ATOM     14  C   UNL     1       0.773   2.683   9.689  0.00  0.00    +0.253 C 
ATOM     15  O   UNL     1       0.660   3.713  10.329  0.00  0.00    -0.270 OA
ATOM     16  N   UNL     1       1.033   1.611  10.403  0.00  0.00    -0.307 N 
ATOM     17  C   UNL     1       1.244   0.258   9.947  0.00  0.00    +0.087 C 
ATOM     18  C   UNL     1       0.363  -0.127   8.780  0.00  0.00    +0.123 C 
ATOM     19  N   UNL     1       0.758   0.511   7.548  0.00  0.00    -0.341 N 
ATOM     20  C   UNL     1       0.963  -0.699  11.107  0.00  0.00    +0.029 C 
ATOM     21  H   UNL     1       1.091   1.746  11.361  0.00  0.00    +0.149 HD
ATOM     22  H   UNL     1       1.163  -0.036   6.856  0.00  0.00    +0.146 HD
ENDROOT
BRANCH   1  29
ATOM     23  C   UNL     1      -1.998   0.607   0.527  0.00  0.00    +0.044 C 
ATOM     24  C   UNL     1      -0.941  -0.431   0.248  0.00  0.00    -0.038 A 
ATOM     25  C   UNL     1      -0.968  -1.176  -0.918  0.00  0.00    +0.023 A 
ATOM     26  C   UNL     1       0.018  -2.119  -1.142  0.00  0.00    +0.111 A 
ATOM     27  N   UNL     1       0.980  -2.319  -0.262  0.00  0.00    -0.263 NA
ATOM     28  C   UNL     1       1.047  -1.635   0.862  0.00  0.00    +0.121 A 
ATOM     29  C   UNL     1       0.094  -0.662   1.158  0.00  0.00    +0.021 A 
ENDBRANCH   1  29
TORSDOF 1
