REMARK  Name = CHEMBL562194
REMARK  2 active torsions:
REMARK  status: ('A' for Active; 'I' for Inactive)
REMARK    1  A    between atoms: C_1  and  C_2
REMARK    2  A    between atoms: C_14  and  C_16
REMARK                            x       y       z     vdW  Elec       q    Type
REMARK                         _______ _______ _______ _____ _____    ______ ____
ROOT
ATOM      1  C   UNL     1      -0.019   1.526   0.010  0.00  0.00    +0.029 C 
ATOM      2  C   UNL     1       0.002  -0.004   0.002  0.00  0.00    +0.087 C 
ATOM      3  C   UNL     1       0.672  -0.473  -1.270  0.00  0.00    +0.123 C 
ATOM      4  N   UNL     1       0.474  -1.880  -1.520  0.00  0.00    -0.341 N 
ATOM      5  C   UNL     1       1.079  -2.888  -0.761  0.00  0.00    +0.055 A 
ATOM      6  C   UNL     1       1.396  -4.140  -1.358  0.00  0.00    +0.022 A 
ATOM      7  C   UNL     1       1.992  -5.104  -0.526  0.00  0.00    +0.023 A 
ATOM      8  C   UNL     1       2.346  -6.359  -0.985  0.00  0.00    +0.019 A 
ATOM      9  C   UNL     1       2.131  -6.721  -2.284  0.00  0.00    +0.048 A 
ATOM     10  C   UNL     1       1.547  -5.827  -3.179  0.00  0.00    +0.136 A 
ATOM     11  C   UNL     1       1.172  -4.550  -2.755  0.00  0.00    +0.031 A 
ATOM     12  C   UNL     1       0.614  -3.893  -3.877  0.00  0.00    +0.059 A 
ATOM     13  C   UNL     1       0.672  -4.769  -4.911  0.00  0.00    +0.136 A 
ATOM     14  O   UNL     1       1.231  -5.922  -4.491  0.00  0.00    -0.455 OA
ATOM     15  S   UNL     1       2.115  -4.284   1.042  0.00  0.00    -0.082 S 
ATOM     16  C   UNL     1       1.400  -2.718   0.575  0.00  0.00    +0.096 A 
ATOM     17  C   UNL     1       1.240  -1.622   1.421  0.00  0.00    +0.253 C 
ATOM     18  O   UNL     1       1.710  -1.759   2.536  0.00  0.00    -0.270 OA
ATOM     19  N   UNL     1       0.664  -0.464   1.198  0.00  0.00    -0.307 N 
ATOM     20  H   UNL     1      -0.107  -2.140  -2.251  0.00  0.00    +0.146 HD
ATOM     21  H   UNL     1       0.684   0.164   1.937  0.00  0.00    +0.149 HD
ENDROOT
BRANCH  13  22
ATOM     22  C   UNL     1       0.197  -4.502  -6.284  0.00  0.00    +0.017 A 
ATOM     23  C   UNL     1      -0.360  -3.263  -6.604  0.00  0.00    +0.011 A 
ATOM     24  C   UNL     1      -0.802  -3.019  -7.888  0.00  0.00    +0.001 A 
ATOM     25  C   UNL     1      -0.693  -4.000  -8.858  0.00  0.00    +0.000 A 
ATOM     26  C   UNL     1      -0.141  -5.230  -8.548  0.00  0.00    +0.001 A 
ATOM     27  C   UNL     1       0.310  -5.485  -7.269  0.00  0.00    +0.011 A 
ENDBRANCH  13  22
TORSDOF 1
