REMARK  Name = CHEMBL599479
REMARK  4 active torsions:
REMARK  status: ('A' for Active; 'I' for Inactive)
REMARK    1  A    between atoms: C_1  and  O_2
REMARK    2  A    between atoms: O_2  and  C_3
REMARK    3  A    between atoms: C_6  and  N_9
REMARK    4  A    between atoms: C_11  and  C_15
REMARK                            x       y       z     vdW  Elec       q    Type
REMARK                         _______ _______ _______ _____ _____    ______ ____
ROOT
ATOM      1  N   UNL     1       2.459  -2.458  -4.302  0.00  0.00    -0.237 N 
ATOM      2  C   UNL     1       2.571  -3.791  -4.495  0.00  0.00    +0.125 A 
ATOM      3  C   UNL     1       3.239  -3.985  -5.668  0.00  0.00    +0.041 A 
ATOM      4  C   UNL     1       3.542  -2.711  -6.202  0.00  0.00    +0.146 A 
ATOM      5  N   UNL     1       3.067  -1.805  -5.380  0.00  0.00    -0.151 NA
ATOM      6  N   UNL     1       4.222  -2.461  -7.397  0.00  0.00    -0.341 N 
ATOM      7  H   UNL     1       4.533  -3.200  -7.941  0.00  0.00    +0.144 HD
ATOM      8  H   UNL     1       4.383  -1.547  -7.681  0.00  0.00    +0.144 HD
ENDROOT
BRANCH   3   9
ATOM      9  C   UNL     1       3.586  -5.295  -6.274  0.00  0.00    -0.012 A 
ATOM     10  C   UNL     1       4.209  -6.277  -5.502  0.00  0.00    +0.012 A 
ATOM     11  C   UNL     1       4.533  -7.498  -6.055  0.00  0.00    +0.047 A 
ATOM     12  C   UNL     1       4.242  -7.758  -7.385  0.00  0.00    +0.133 A 
ATOM     13  C   UNL     1       3.617  -6.774  -8.169  0.00  0.00    +0.079 A 
ATOM     14  C   UNL     1       3.284  -5.545  -7.608  0.00  0.00    +0.025 A 
ATOM     15  C   UNL     1       3.325  -7.068  -9.585  0.00  0.00    +0.248 C 
ATOM     16  O   UNL     1       3.619  -6.272 -10.456  0.00  0.00    -0.270 OA
ATOM     17  N   UNL     1       2.723  -8.241  -9.898  0.00  0.00    -0.308 N 
ATOM     18  C   UNL     1       2.282  -9.134  -8.825  0.00  0.00    +0.145 C 
ATOM     19  C   UNL     1       3.470  -9.850  -8.196  0.00  0.00    +0.247 C 
ATOM     20  O   UNL     1       4.547  -8.956  -7.944  0.00  0.00    -0.490 OA
ATOM     21  H   UNL     1       2.585  -8.487 -10.826  0.00  0.00    +0.149 HD
ENDBRANCH   3   9
BRANCH   1  25
ATOM     22  C   UNL     1       0.606  -0.607  -1.056  0.00  0.00    +0.120 A 
ATOM     23  C   UNL     1       1.173   0.162  -2.062  0.00  0.00    +0.048 A 
ATOM     24  C   UNL     1       1.787  -0.450  -3.137  0.00  0.00    +0.031 A 
ATOM     25  C   UNL     1       1.837  -1.836  -3.211  0.00  0.00    +0.066 A 
ATOM     26  C   UNL     1       1.269  -2.605  -2.203  0.00  0.00    +0.031 A 
ATOM     27  C   UNL     1       0.660  -1.992  -1.127  0.00  0.00    +0.048 A 
BRANCH  22  29
ATOM     28  C   UNL     1      -0.017   1.425   0.010  0.00  0.00    +0.277 C 
ATOM     29  O   UNL     1       0.002  -0.004   0.002  0.00  0.00    -0.495 OA
ENDBRANCH  22  29
ENDBRANCH   1  25
TORSDOF 3
