REMARK  Name = CHEMBL1091199
REMARK  6 active torsions:
REMARK  status: ('A' for Active; 'I' for Inactive)
REMARK    1  A    between atoms: C_1  and  C_2
REMARK    2  A    between atoms: C_5  and  C_27
REMARK    3  A    between atoms: C_7  and  C_8
REMARK    4  A    between atoms: N_13  and  C_19
REMARK    5  A    between atoms: N_15  and  C_18
REMARK    6  A    between atoms: N_29  and  C_30
REMARK                            x       y       z     vdW  Elec       q    Type
REMARK                         _______ _______ _______ _____ _____    ______ ____
ROOT
ATOM      1  C   UNL     1       0.570  -0.890   3.211  0.00  0.00    +0.048 A 
ATOM      2  C   UNL     1       1.399   0.214   3.241  0.00  0.00    +0.027 A 
ATOM      3  C   UNL     1       1.109   1.261   4.141  0.00  0.00    +0.038 A 
ATOM      4  C   UNL     1       1.735   2.499   4.422  0.00  0.00    +0.145 A 
ATOM      5  N   UNL     1       1.053   3.099   5.357  0.00  0.00    -0.172 NA
ATOM      6  N   UNL     1      -0.033   2.298   5.728  0.00  0.00    -0.213 N 
ATOM      7  C   UNL     1      -0.003   1.163   4.982  0.00  0.00    +0.147 A 
ATOM      8  N   UNL     1      -0.809   0.058   4.933  0.00  0.00    -0.295 N 
ATOM      9  C   UNL     1      -0.551  -0.948   4.075  0.00  0.00    +0.260 A 
ATOM     10  O   UNL     1      -1.287  -1.919   4.046  0.00  0.00    -0.267 OA
ATOM     11  C   UNL     1      -1.971  -0.030   5.821  0.00  0.00    +0.154 C 
ENDROOT
BRANCH   6  12
ATOM     12  C   UNL     1      -0.989   2.614   6.705  0.00  0.00    +0.103 A 
ATOM     13  C   UNL     1      -2.288   2.927   6.330  0.00  0.00    +0.033 A 
ATOM     14  C   UNL     1      -3.228   3.237   7.293  0.00  0.00    +0.040 A 
ATOM     15  C   UNL     1      -2.877   3.236   8.633  0.00  0.00    +0.126 A 
ATOM     16  C   UNL     1      -1.582   2.924   9.011  0.00  0.00    +0.078 A 
ATOM     17  C   UNL     1      -0.638   2.607   8.050  0.00  0.00    +0.151 A 
ATOM     18  F   UNL     1       0.624   2.297   8.419  0.00  0.00    -0.203 F 
ATOM     19  F   UNL     1      -3.799   3.540   9.572  0.00  0.00    -0.205 F 
ENDBRANCH   6  12
BRANCH   1  26
ATOM     20  C   UNL     1       0.001  -0.569   0.396  0.00  0.00    +0.044 C 
ATOM     21  C   UNL     1       0.577  -1.861   0.915  0.00  0.00    -0.043 A 
ATOM     22  C   UNL     1       0.841  -2.898   0.041  0.00  0.00    +0.005 A 
ATOM     23  C   UNL     1       1.369  -4.085   0.507  0.00  0.00    +0.013 A 
ATOM     24  C   UNL     1       1.640  -4.244   1.868  0.00  0.00    +0.037 A 
ATOM     25  C   UNL     1       1.376  -3.202   2.754  0.00  0.00    +0.022 A 
ATOM     26  C   UNL     1       0.848  -2.006   2.276  0.00  0.00    -0.009 A 
BRANCH  24  27
ATOM     27  C   UNL     1       2.205  -5.516   2.367  0.00  0.00    +0.244 C 
ATOM     28  O   UNL     1       2.440  -5.654   3.552  0.00  0.00    -0.270 OA
ATOM     29  N   UNL     1       2.459  -6.524   1.508  0.00  0.00    -0.308 N 
ATOM     30  H   UNL     1       2.271  -6.414   0.563  0.00  0.00    +0.149 HD
BRANCH  29  31
ATOM     31  C   UNL     1       3.018  -7.784   2.003  0.00  0.00    +0.073 C 
ATOM     32  C   UNL     1       4.151  -8.420   1.194  0.00  0.00    +0.024 C 
ATOM     33  C   UNL     1       2.755  -9.046   1.179  0.00  0.00    +0.024 C 
ENDBRANCH  29  31
ENDBRANCH  24  27
ENDBRANCH   1  26
TORSDOF 4
