REMARK  Name = CHEMBL246910
REMARK  4 active torsions:
REMARK  status: ('A' for Active; 'I' for Inactive)
REMARK    1  A    between atoms: C_1  and  C_2
REMARK    2  A    between atoms: C_11  and  C_17
REMARK    3  A    between atoms: N_19  and  C_20
REMARK    4  A    between atoms: C_24  and  C_26
REMARK                            x       y       z     vdW  Elec       q    Type
REMARK                         _______ _______ _______ _____ _____    ______ ____
ROOT
ATOM      1  C   UNL     1      -0.008   1.522   0.013  0.00  0.00    +0.014 C 
ATOM      2  C   UNL     1       0.002  -0.008   0.001  0.00  0.00    +0.036 C 
ATOM      3  C   UNL     1       0.725  -0.505  -1.251  0.00  0.00    +0.112 C 
ATOM      4  N   UNL     1       2.168  -0.321  -1.173  0.00  0.00    -0.310 N 
ATOM      5  C   UNL     1       2.864  -0.511  -0.028  0.00  0.00    +0.261 C 
ATOM      6  O   UNL     1       4.080  -0.481  -0.011  0.00  0.00    -0.269 OA
ATOM      7  C   UNL     1       2.082  -0.755   1.197  0.00  0.00    +0.106 A 
ATOM      8  C   UNL     1       0.729  -0.517   1.219  0.00  0.00    -0.006 A 
ATOM      9  C   UNL     1       0.268  -0.831   2.496  0.00  0.00    +0.005 A 
ATOM     10  C   UNL     1      -1.005  -0.781   3.079  0.00  0.00    +0.023 A 
ATOM     11  C   UNL     1      -1.102  -1.181   4.413  0.00  0.00    +0.038 A 
ATOM     12  C   UNL     1       0.017  -1.612   5.135  0.00  0.00    +0.015 A 
ATOM     13  C   UNL     1       1.267  -1.667   4.579  0.00  0.00    +0.027 A 
ATOM     14  C   UNL     1       1.396  -1.272   3.246  0.00  0.00    +0.047 A 
ATOM     15  N   UNL     1       2.485  -1.214   2.427  0.00  0.00    -0.350 N 
ATOM     16  H   UNL     1       3.392  -1.456   2.671  0.00  0.00    +0.166 HD
ATOM     17  H   UNL     1       2.648  -0.053  -1.972  0.00  0.00    +0.149 HD
ENDROOT
BRANCH  11  18
ATOM     18  C   UNL     1      -2.419  -1.149   5.079  0.00  0.00    +0.248 C 
ATOM     19  O   UNL     1      -3.401  -0.777   4.467  0.00  0.00    -0.270 OA
ATOM     20  N   UNL     1      -2.532  -1.531   6.366  0.00  0.00    -0.281 N 
ATOM     21  H   UNL     1      -1.763  -1.891   6.835  0.00  0.00    +0.155 HD
BRANCH  20  22
ATOM     22  C   UNL     1      -3.759  -1.409   7.027  0.00  0.00    +0.035 A 
ATOM     23  C   UNL     1      -3.792  -1.077   8.376  0.00  0.00    +0.023 A 
ATOM     24  C   UNL     1      -5.002  -0.956   9.034  0.00  0.00    +0.003 A 
ATOM     25  C   UNL     1      -6.186  -1.163   8.355  0.00  0.00    +0.019 A 
ATOM     26  C   UNL     1      -6.164  -1.497   6.999  0.00  0.00    +0.054 A 
ATOM     27  C   UNL     1      -4.942  -1.614   6.334  0.00  0.00    +0.042 A 
BRANCH  26  28
ATOM     28  C   UNL     1      -7.390  -1.713   6.292  0.00  0.00    +0.099 C 
ATOM     29  N   UNL     1      -8.363  -1.884   5.732  0.00  0.00    -0.191 NA
ENDBRANCH  26  28
ENDBRANCH  20  22
ENDBRANCH  11  18
TORSDOF 3
