REMARK  Name = CHEMBL402957
REMARK  4 active torsions:
REMARK  status: ('A' for Active; 'I' for Inactive)
REMARK    1  A    between atoms: C_3  and  N_7
REMARK    2  A    between atoms: C_8  and  C_10
REMARK    3  A    between atoms: C_20  and  C_25
REMARK    4  A    between atoms: C_25  and  N_26
REMARK                            x       y       z     vdW  Elec       q    Type
REMARK                         _______ _______ _______ _____ _____    ______ ____
ROOT
ATOM      1  C   UNL     1       6.045   1.977   0.167  0.00  0.00    +0.039 A 
ATOM      2  C   UNL     1       6.087   3.379   0.179  0.00  0.00    +0.014 A 
ATOM      3  C   UNL     1       7.278   4.031   0.273  0.00  0.00    +0.011 A 
ATOM      4  C   UNL     1       8.474   3.304   0.357  0.00  0.00    +0.001 A 
ATOM      5  C   UNL     1       9.835   3.690   0.460  0.00  0.00    +0.041 A 
ATOM      6  C   UNL     1      10.574   2.567   0.509  0.00  0.00    +0.105 A 
ATOM      7  N   UNL     1       9.735   1.458   0.441  0.00  0.00    -0.335 N 
ATOM      8  C   UNL     1       8.443   1.892   0.347  0.00  0.00    +0.050 A 
ATOM      9  C   UNL     1       7.219   1.238   0.257  0.00  0.00    +0.039 A 
ATOM     10  C   UNL     1      10.267   0.092   0.472  0.00  0.00    +0.143 C 
ATOM     11  C   UNL     1      11.662   0.083  -0.150  0.00  0.00    +0.075 C 
ATOM     12  N   UNL     1      12.514   1.150   0.361  0.00  0.00    -0.307 N 
ATOM     13  C   UNL     1      12.037   2.391   0.617  0.00  0.00    +0.261 C 
ATOM     14  O   UNL     1      12.773   3.311   0.920  0.00  0.00    -0.269 OA
ATOM     15  H   UNL     1      13.452   0.964   0.523  0.00  0.00    +0.149 HD
ENDROOT
BRANCH   1  17
ATOM     16  N   UNL     1       3.605   1.995  -0.022  0.00  0.00    -0.280 N 
ATOM     17  C   UNL     1       4.745   1.282   0.065  0.00  0.00    +0.248 C 
ATOM     18  O   UNL     1       4.704   0.067   0.059  0.00  0.00    -0.270 OA
ATOM     19  H   UNL     1       3.642   2.962  -0.095  0.00  0.00    +0.155 HD
BRANCH  16  22
ATOM     20  C   UNL     1       0.953  -0.440   0.711  0.00  0.00    +0.021 A 
ATOM     21  C   UNL     1       2.197   0.171   0.727  0.00  0.00    +0.026 A 
ATOM     22  C   UNL     1       2.368   1.341  -0.007  0.00  0.00    +0.052 A 
ATOM     23  C   UNL     1       1.294   1.850  -0.725  0.00  0.00    +0.134 A 
ATOM     24  N   UNL     1       0.127   1.237  -0.714  0.00  0.00    -0.261 NA
ATOM     25  C   UNL     1      -0.068   0.128  -0.028  0.00  0.00    +0.111 A 
ENDBRANCH  16  22
ENDBRANCH   1  17
BRANCH  11  26
ATOM     26  C   UNL     1      11.528   0.245  -1.666  0.00  0.00    -0.062 C 
BRANCH  26  27
ATOM     27  N   UNL     1      12.863   0.358  -2.267  0.00  0.00    +0.379 N 
ATOM     28  H   UNL     1      13.338   1.162  -1.883  0.00  0.00    -0.090 HD
ATOM     29  H   UNL     1      13.395  -0.475  -2.063  0.00  0.00    -0.090 HD
ATOM     30  H   UNL     1      12.775   0.465  -3.266  0.00  0.00    -0.090 HD
ENDBRANCH  26  27
ENDBRANCH  11  26
TORSDOF 4
