REMARK  Name = CHEMBL455396
REMARK  4 active torsions:
REMARK  status: ('A' for Active; 'I' for Inactive)
REMARK    1  A    between atoms: C_1  and  O_2
REMARK    2  A    between atoms: O_2  and  C_3
REMARK    3  A    between atoms: C_6  and  C_9
REMARK    4  A    between atoms: C_11  and  C_15
REMARK                            x       y       z     vdW  Elec       q    Type
REMARK                         _______ _______ _______ _____ _____    ______ ____
ROOT
ATOM      1  C   UNL     1       2.509  -2.472   4.178  0.00  0.00    +0.035 C 
ATOM      2  C   UNL     1       2.575  -3.864   4.226  0.00  0.00    +0.015 C 
ATOM      3  C   UNL     1       3.223  -4.475   5.306  0.00  0.00    +0.070 C 
ATOM      4  C   UNL     1       3.788  -3.662   6.309  0.00  0.00    +0.007 C 
ATOM      5  C   UNL     1       3.697  -2.314   6.216  0.00  0.00    +0.069 C 
ATOM      6  N   UNL     1       3.074  -1.728   5.167  0.00  0.00    -0.321 N 
ATOM      7  H   UNL     1       3.026  -0.760   5.122  0.00  0.00    +0.152 HD
ENDROOT
BRANCH   3   8
ATOM      8  C   UNL     1       3.313  -5.945   5.392  0.00  0.00    +0.060 C 
ATOM      9  C   UNL     1       3.967  -6.705   6.486  0.00  0.00    +0.041 C 
ATOM     10  C   UNL     1       3.822  -8.019   6.176  0.00  0.00    +0.085 C 
ATOM     11  C   UNL     1       3.081  -8.071   4.895  0.00  0.00    +0.167 C 
ATOM     12  N   UNL     1       2.822  -6.791   4.516  0.00  0.00    -0.231 NA
ATOM     13  N   UNL     1       2.819  -9.258   4.388  0.00  0.00    -0.218 NA
ATOM     14  C   UNL     1       3.202 -10.379   4.999  0.00  0.00    +0.213 C 
ATOM     15  N   UNL     1       3.855 -10.429   6.125  0.00  0.00    -0.165 NA
ATOM     16  C   UNL     1       4.210  -9.302   6.787  0.00  0.00    +0.272 C 
ATOM     17  O   UNL     1       4.821  -9.348   7.838  0.00  0.00    -0.268 OA
ENDBRANCH   3   8
BRANCH   1  21
ATOM     18  C   UNL     1       0.564  -0.558   0.939  0.00  0.00    +0.120 A 
ATOM     19  C   UNL     1       1.149   0.210   1.963  0.00  0.00    +0.046 A 
ATOM     20  C   UNL     1       1.773  -0.406   3.003  0.00  0.00    +0.013 A 
ATOM     21  C   UNL     1       1.835  -1.808   3.055  0.00  0.00    -0.004 A 
ATOM     22  C   UNL     1       1.252  -2.576   2.033  0.00  0.00    +0.013 A 
ATOM     23  C   UNL     1       0.621  -1.962   0.995  0.00  0.00    +0.046 A 
BRANCH  18  25
ATOM     24  C   UNL     1      -0.017   1.425   0.010  0.00  0.00    +0.277 C 
ATOM     25  O   UNL     1       0.002  -0.004   0.002  0.00  0.00    -0.495 OA
ENDBRANCH  18  25
ENDBRANCH   1  21
TORSDOF 3
