REMARK  Name = CHEMBL255605
REMARK  4 active torsions:
REMARK  status: ('A' for Active; 'I' for Inactive)
REMARK    1  A    between atoms: C_3  and  N_7
REMARK    2  A    between atoms: C_8  and  C_10
REMARK    3  A    between atoms: C_23  and  C_25
REMARK    4  A    between atoms: C_25  and  N_26
REMARK                            x       y       z     vdW  Elec       q    Type
REMARK                         _______ _______ _______ _____ _____    ______ ____
ROOT
ATOM      1  C   UNL     1       6.044   1.977   0.167  0.00  0.00    +0.038 A 
ATOM      2  C   UNL     1       6.089   3.379   0.179  0.00  0.00    +0.015 A 
ATOM      3  C   UNL     1       7.280   4.034   0.274  0.00  0.00    +0.027 A 
ATOM      4  C   UNL     1       8.473   3.318   0.360  0.00  0.00    +0.047 A 
ATOM      5  C   UNL     1       8.446   1.904   0.348  0.00  0.00    +0.004 A 
ATOM      6  C   UNL     1       7.218   1.240   0.257  0.00  0.00    +0.023 A 
ATOM      7  C   UNL     1       9.781   1.474   0.446  0.00  0.00    -0.008 A 
ATOM      8  C   UNL     1      10.575   2.589   0.513  0.00  0.00    +0.106 A 
ATOM      9  N   UNL     1       9.788   3.707   0.463  0.00  0.00    -0.350 N 
ATOM     10  H   UNL     1      10.106   4.623   0.494  0.00  0.00    +0.166 HD
ATOM     11  C   UNL     1      12.040   2.454   0.619  0.00  0.00    +0.261 C 
ATOM     12  O   UNL     1      12.781   3.403   0.444  0.00  0.00    -0.269 OA
ATOM     13  N   UNL     1      12.522   1.226   0.920  0.00  0.00    -0.309 N 
ATOM     14  C   UNL     1      11.658   0.113   1.290  0.00  0.00    +0.060 C 
ATOM     15  C   UNL     1      10.360   0.085   0.482  0.00  0.00    +0.058 C 
ATOM     16  H   UNL     1      13.480   1.081   0.888  0.00  0.00    +0.149 HD
ENDROOT
BRANCH   1  18
ATOM     17  N   UNL     1       3.605   1.995  -0.022  0.00  0.00    -0.280 N 
ATOM     18  C   UNL     1       4.745   1.282   0.065  0.00  0.00    +0.248 C 
ATOM     19  O   UNL     1       4.705   0.067   0.059  0.00  0.00    -0.270 OA
ATOM     20  H   UNL     1       3.642   2.962  -0.095  0.00  0.00    +0.155 HD
BRANCH  17  23
ATOM     21  C   UNL     1       0.953  -0.440   0.711  0.00  0.00    +0.021 A 
ATOM     22  C   UNL     1       2.197   0.171   0.727  0.00  0.00    +0.026 A 
ATOM     23  C   UNL     1       2.368   1.341  -0.007  0.00  0.00    +0.052 A 
ATOM     24  C   UNL     1       1.294   1.850  -0.725  0.00  0.00    +0.134 A 
ATOM     25  N   UNL     1       0.127   1.238  -0.713  0.00  0.00    -0.261 NA
ATOM     26  C   UNL     1      -0.068   0.128  -0.028  0.00  0.00    +0.111 A 
ENDBRANCH  17  23
ENDBRANCH   1  18
BRANCH  14  27
ATOM     27  C   UNL     1      11.315   0.226   2.777  0.00  0.00    -0.064 C 
BRANCH  27  28
ATOM     28  N   UNL     1      12.554   0.302   3.561  0.00  0.00    +0.379 N 
ATOM     29  H   UNL     1      12.328   0.377   4.542  0.00  0.00    -0.090 HD
ATOM     30  H   UNL     1      13.103  -0.530   3.405  0.00  0.00    -0.090 HD
ATOM     31  H   UNL     1      13.084   1.112   3.276  0.00  0.00    -0.090 HD
ENDBRANCH  27  28
ENDBRANCH  14  27
TORSDOF 4
