REMARK  Name = CHEMBL178413
REMARK  4 active torsions:
REMARK  status: ('A' for Active; 'I' for Inactive)
REMARK    1  A    between atoms: C_5  and  C_8
REMARK    2  A    between atoms: C_6  and  O_7
REMARK    3  A    between atoms: C_18  and  C_23
REMARK    4  A    between atoms: C_19  and  N_22
REMARK                            x       y       z     vdW  Elec       q    Type
REMARK                         _______ _______ _______ _____ _____    ______ ____
ROOT
ATOM      1  C   UNL     1      -0.017   1.381   0.010  0.00  0.00    +0.053 A 
ATOM      2  C   UNL     1       1.170   2.096   0.002  0.00  0.00    -0.002 A 
ATOM      3  C   UNL     1       2.378   1.423  -0.007  0.00  0.00    +0.125 A 
ATOM      4  C   UNL     1       2.396   0.032  -0.019  0.00  0.00    +0.055 A 
ATOM      5  C   UNL     1       1.214  -0.679  -0.014  0.00  0.00    +0.028 A 
ATOM      6  C   UNL     1       0.002  -0.004   0.002  0.00  0.00    +0.123 A 
ATOM      7  O   UNL     1       3.562   2.088   0.006  0.00  0.00    -0.488 OA
ATOM      8  C   UNL     1       3.572   3.471  -0.317  0.00  0.00    +0.188 C 
ATOM      9  C   UNL     1       3.381   3.684  -1.821  0.00  0.00    +0.101 C 
ATOM     10  C   UNL     1       3.553   5.168  -2.084  0.00  0.00    +0.055 C 
ATOM     11  C   UNL     1       2.972   6.109  -1.111  0.00  0.00    +0.089 C 
ATOM     12  C   UNL     1       2.463   5.656   0.080  0.00  0.00    +0.028 C 
ATOM     13  C   UNL     1       2.452   4.192   0.438  0.00  0.00    +0.079 C 
ATOM     14  C   UNL     1       1.108   3.600  -0.002  0.00  0.00    +0.052 C 
ATOM     15  N   UNL     1       4.191   5.594  -3.130  0.00  0.00    -0.303 NA
ATOM     16  H   UNL     1       4.292   6.546  -3.282  0.00  0.00    +0.186 HD
ENDROOT
BRANCH   5  17
ATOM     17  C   UNL     1       1.239  -2.186  -0.026  0.00  0.00    +0.177 C 
ATOM     18  C   UNL     1       1.143  -2.711   1.410  0.00  0.00    +0.196 C 
ATOM     19  O   UNL     1       1.279  -4.135   1.399  0.00  0.00    -0.375 OA
ATOM     20  C   UNL     1       2.504  -4.588   0.814  0.00  0.00    +0.188 C 
ATOM     21  C   UNL     1       2.599  -4.064  -0.622  0.00  0.00    +0.188 C 
ATOM     22  O   UNL     1       2.463  -2.639  -0.611  0.00  0.00    -0.367 OA
ENDBRANCH   5  17
BRANCH  12  23
ATOM     23  N   UNL     1       1.953   6.555   0.963  0.00  0.00    -0.360 N 
ATOM     24  H   UNL     1       1.953   7.501   0.747  0.00  0.00    +0.142 HD
ATOM     25  H   UNL     1       1.589   6.251   1.809  0.00  0.00    +0.142 HD
ENDBRANCH  12  23
BRANCH   6  26
ATOM     26  O   UNL     1      -1.166  -0.701   0.010  0.00  0.00    -0.506 OA
ATOM     27  H   UNL     1      -1.512  -0.898  -0.871  0.00  0.00    +0.292 HD
ENDBRANCH   6  26
BRANCH  11  28
ATOM     28  C   UNL     1       2.938   7.508  -1.412  0.00  0.00    +0.102 C 
ATOM     29  N   UNL     1       2.910   8.619  -1.650  0.00  0.00    -0.191 NA
ENDBRANCH  11  28
TORSDOF 4
