REMARK  Name = CHEMBL592031
REMARK  5 active torsions:
REMARK  status: ('A' for Active; 'I' for Inactive)
REMARK    1  A    between atoms: C_8  and  C_10
REMARK    2  A    between atoms: C_12  and  C_20
REMARK    3  A    between atoms: N_22  and  C_30
REMARK    4  A    between atoms: C_30  and  C_31
REMARK    5  A    between atoms: C_31  and  C_32
REMARK                            x       y       z     vdW  Elec       q    Type
REMARK                         _______ _______ _______ _____ _____    ______ ____
ROOT
ATOM      1  C   UNL     1       2.525  -7.220   1.843  0.00  0.00    +0.026 A 
ATOM      2  C   UNL     1       2.429  -7.038   3.186  0.00  0.00    +0.097 A 
ATOM      3  N   UNL     1       1.862  -8.136   3.761  0.00  0.00    -0.344 N 
ATOM      4  C   UNL     1       1.569  -9.076   2.797  0.00  0.00    +0.087 A 
ATOM      5  C   UNL     1       1.965  -8.544   1.554  0.00  0.00    +0.101 A 
ATOM      6  N   UNL     1       1.781  -9.264   0.450  0.00  0.00    -0.213 NA
ATOM      7  C   UNL     1       1.230 -10.464   0.522  0.00  0.00    +0.213 A 
ATOM      8  N   UNL     1       0.843 -10.993   1.676  0.00  0.00    -0.221 NA
ATOM      9  C   UNL     1       1.000 -10.344   2.818  0.00  0.00    +0.142 A 
ATOM     10  N   UNL     1       1.051 -11.193  -0.644  0.00  0.00    -0.327 N 
ATOM     11  H   UNL     1       1.328 -10.821  -1.496  0.00  0.00    +0.145 HD
ATOM     12  H   UNL     1       0.648 -12.074  -0.608  0.00  0.00    +0.145 HD
ENDROOT
BRANCH   1  15
ATOM     13  C   UNL     1       3.174  -4.024  -0.050  0.00  0.00    +0.015 A 
ATOM     14  C   UNL     1       2.658  -4.931   0.865  0.00  0.00    +0.019 A 
ATOM     15  C   UNL     1       3.084  -6.262   0.859  0.00  0.00    -0.013 A 
ATOM     16  C   UNL     1       4.027  -6.692  -0.064  0.00  0.00    +0.020 A 
ATOM     17  C   UNL     1       4.555  -5.789  -0.993  0.00  0.00    +0.021 A 
ATOM     18  C   UNL     1       4.126  -4.449  -0.993  0.00  0.00    +0.074 A 
ATOM     19  N   UNL     1       4.802  -3.817  -2.002  0.00  0.00    -0.276 N 
ATOM     20  H   UNL     1       4.713  -2.881  -2.239  0.00  0.00    +0.189 HD
ATOM     21  N   UNL     1       5.643  -4.738  -2.636  0.00  0.00    -0.181 NA
ATOM     22  C   UNL     1       5.535  -5.906  -2.069  0.00  0.00    +0.142 A 
BRANCH  13  30
ATOM     23  C   UNL     1      -0.016   1.355   0.009  0.00  0.00    +0.001 A 
ATOM     24  C   UNL     1       1.157   2.097   0.002  0.00  0.00    +0.001 A 
ATOM     25  C   UNL     1       2.375   1.446  -0.013  0.00  0.00    +0.015 A 
ATOM     26  C   UNL     1       2.408   0.068  -0.021  0.00  0.00    +0.020 A 
ATOM     27  C   UNL     1       1.230  -0.711  -0.013  0.00  0.00    -0.010 A 
ATOM     28  C   UNL     1       0.002  -0.004   0.002  0.00  0.00    +0.009 A 
ATOM     29  C   UNL     1       1.448  -2.147  -0.023  0.00  0.00    +0.024 A 
ATOM     30  C   UNL     1       2.719  -2.619  -0.038  0.00  0.00    +0.023 A 
ATOM     31  S   UNL     1       3.711  -1.137  -0.040  0.00  0.00    -0.088 S 
ENDBRANCH  13  30
ENDBRANCH   1  15
BRANCH   3  32
ATOM     32  C   UNL     1       1.602  -8.293   5.194  0.00  0.00    +0.122 C 
BRANCH  32  33
ATOM     33  C   UNL     1       2.766  -9.044   5.844  0.00  0.00    +0.025 C 
BRANCH  33  34
ATOM     34  C   UNL     1       2.494  -9.208   7.341  0.00  0.00    -0.013 C 
ATOM     35  C   UNL     1       2.486  -7.832   8.014  0.00  0.00    -0.016 C 
ATOM     36  C   UNL     1       2.293  -8.009   9.521  0.00  0.00    -0.082 C 
ATOM     37  N   UNL     1       3.392  -8.815  10.067  0.00  0.00    +0.379 N 
ATOM     38  C   UNL     1       3.362 -10.160   9.479  0.00  0.00    -0.082 C 
ATOM     39  C   UNL     1       3.596 -10.066   7.970  0.00  0.00    -0.016 C 
ATOM     40  H   UNL     1       4.272  -8.373   9.850  0.00  0.00    -0.086 HD
ATOM     41  H   UNL     1       3.291  -8.885  11.069  0.00  0.00    -0.086 HD
ENDBRANCH  33  34
ENDBRANCH  32  33
ENDBRANCH   3  32
TORSDOF 5
