REMARK  Name = CHEMBL392876
REMARK  3 active torsions:
REMARK  status: ('A' for Active; 'I' for Inactive)
REMARK    1  A    between atoms: C_1  and  O_2
REMARK    2  A    between atoms: O_2  and  C_3
REMARK    3  A    between atoms: C_13  and  C_19
REMARK                            x       y       z     vdW  Elec       q    Type
REMARK                         _______ _______ _______ _____ _____    ______ ____
ROOT
ATOM      1  C   UNL     1      -1.032  -2.387  -0.561  0.00  0.00    +0.121 A 
ATOM      2  C   UNL     1      -0.861  -1.302  -1.413  0.00  0.00    +0.047 A 
ATOM      3  C   UNL     1      -0.079  -1.377  -2.551  0.00  0.00    +0.030 A 
ATOM      4  C   UNL     1       0.543  -2.594  -2.818  0.00  0.00    +0.047 A 
ATOM      5  C   UNL     1       0.370  -3.706  -1.950  0.00  0.00    +0.007 A 
ATOM      6  C   UNL     1      -0.423  -3.609  -0.800  0.00  0.00    +0.056 A 
ATOM      7  C   UNL     1       1.142  -4.773  -2.527  0.00  0.00    -0.019 A 
ATOM      8  C   UNL     1       1.724  -4.302  -3.655  0.00  0.00    +0.017 A 
ATOM      9  N   UNL     1       1.366  -2.995  -3.836  0.00  0.00    -0.359 N 
ATOM     10  H   UNL     1       1.652  -2.435  -4.575  0.00  0.00    +0.166 HD
ATOM     11  C   UNL     1       2.624  -5.145  -4.526  0.00  0.00    +0.095 C 
ATOM     12  N   UNL     1       2.611  -6.539  -4.057  0.00  0.00    +0.393 N 
ATOM     13  C   UNL     1       1.305  -7.170  -4.321  0.00  0.00    -0.077 C 
ATOM     14  C   UNL     1       0.470  -7.057  -3.031  0.00  0.00    -0.012 C 
ATOM     15  C   UNL     1       1.354  -6.207  -2.073  0.00  0.00    +0.003 C 
ATOM     16  C   UNL     1       2.785  -6.560  -2.583  0.00  0.00    -0.069 C 
ATOM     17  H   UNL     1       3.354  -7.059  -4.500  0.00  0.00    -0.080 HD
ENDROOT
BRANCH  11  18
ATOM     18  C   UNL     1       2.135  -5.092  -5.950  0.00  0.00    +0.349 C 
ATOM     19  O   UNL     1       1.915  -4.016  -6.479  0.00  0.00    -0.248 OA
ATOM     20  O   UNL     1       1.959  -6.125  -6.573  0.00  0.00    -0.248 OA
ENDBRANCH  11  18
BRANCH   1  22
ATOM     21  C   UNL     1      -2.422  -0.966   0.746  0.00  0.00    +0.277 C 
ATOM     22  O   UNL     1      -1.816  -2.244   0.542  0.00  0.00    -0.495 OA
ENDBRANCH   1  22
TORSDOF 2
