REMARK  Name = CHEMBL516802
REMARK  4 active torsions:
REMARK  status: ('A' for Active; 'I' for Inactive)
REMARK    1  A    between atoms: C_3  and  C_27
REMARK    2  A    between atoms: C_6  and  C_7
REMARK    3  A    between atoms: C_8  and  C_9
REMARK    4  A    between atoms: C_11  and  C_15
REMARK                            x       y       z     vdW  Elec       q    Type
REMARK                         _______ _______ _______ _____ _____    ______ ____
ROOT
ATOM      1  C   UNL     1      -2.553  -2.798   0.203  0.00  0.00    +0.064 A 
ATOM      2  C   UNL     1      -2.551  -4.164   0.482  0.00  0.00    +0.037 A 
ATOM      3  C   UNL     1      -3.766  -4.856   0.470  0.00  0.00    +0.002 A 
ATOM      4  C   UNL     1      -4.935  -4.140   0.175  0.00  0.00    +0.029 A 
ATOM      5  C   UNL     1      -4.850  -2.789  -0.090  0.00  0.00    +0.112 A 
ATOM      6  N   UNL     1      -3.690  -2.162  -0.066  0.00  0.00    -0.256 NA
ENDROOT
BRANCH   3   7
ATOM      7  C   UNL     1      -3.816  -6.304   0.759  0.00  0.00    +0.049 A 
ATOM      8  C   UNL     1      -4.939  -7.068   0.767  0.00  0.00    +0.043 A 
ATOM      9  C   UNL     1      -4.550  -8.386   1.087  0.00  0.00    +0.083 A 
ATOM     10  C   UNL     1      -3.158  -8.377   1.268  0.00  0.00    +0.145 A 
ATOM     11  N   UNL     1      -2.729  -7.099   1.058  0.00  0.00    -0.339 N 
ATOM     12  H   UNL     1      -1.809  -6.798   1.112  0.00  0.00    +0.167 HD
ATOM     13  N   UNL     1      -2.535  -9.523   1.583  0.00  0.00    -0.220 NA
ATOM     14  C   UNL     1      -3.184 -10.642   1.726  0.00  0.00    +0.201 A 
ATOM     15  N   UNL     1      -4.527 -10.744   1.571  0.00  0.00    -0.313 N 
ATOM     16  H   UNL     1      -4.964 -11.603   1.688  0.00  0.00    +0.170 HD
ATOM     17  C   UNL     1      -5.261  -9.652   1.251  0.00  0.00    +0.261 A 
ATOM     18  O   UNL     1      -6.469  -9.723   1.107  0.00  0.00    -0.267 OA
ENDBRANCH   3   7
BRANCH   1  20
ATOM     19  C   UNL     1      -1.278  -0.732  -0.053  0.00  0.00    +0.010 C 
ATOM     20  C   UNL     1      -1.283  -2.050   0.210  0.00  0.00    +0.028 C 
BRANCH  19  26
ATOM     21  C   UNL     1      -0.003   1.387  -0.319  0.00  0.00    +0.008 A 
ATOM     22  C   UNL     1       1.174   2.080  -0.311  0.00  0.00    +0.013 A 
ATOM     23  C   UNL     1       2.373   1.418  -0.030  0.00  0.00    +0.037 A 
ATOM     24  C   UNL     1       2.368   0.047   0.243  0.00  0.00    +0.013 A 
ATOM     25  C   UNL     1       1.191  -0.647   0.236  0.00  0.00    +0.008 A 
ATOM     26  C   UNL     1      -0.009   0.015  -0.045  0.00  0.00    -0.025 A 
BRANCH  23  27
ATOM     27  C   UNL     1       3.645   2.167  -0.022  0.00  0.00    +0.247 C 
ATOM     28  O   UNL     1       4.655   1.656  -0.466  0.00  0.00    -0.270 OA
ATOM     29  N   UNL     1       3.687   3.418   0.477  0.00  0.00    -0.293 N 
ATOM     30  C   UNL     1       2.514   4.009   1.140  0.00  0.00    +0.136 C 
ATOM     31  C   UNL     1       2.958   4.575   2.494  0.00  0.00    +0.179 C 
ATOM     32  O   UNL     1       4.079   5.441   2.298  0.00  0.00    -0.377 OA
ATOM     33  C   UNL     1       5.235   4.789   1.768  0.00  0.00    +0.179 C 
ATOM     34  C   UNL     1       4.910   4.231   0.382  0.00  0.00    +0.136 C 
ENDBRANCH  23  27
ENDBRANCH  19  26
ENDBRANCH   1  20
TORSDOF 4
