REMARK  Name = CHEMBL589650
REMARK  2 active torsions:
REMARK  status: ('A' for Active; 'I' for Inactive)
REMARK    1  A    between atoms: C_6  and  C_11
REMARK    2  A    between atoms: C_13  and  N_21
REMARK                            x       y       z     vdW  Elec       q    Type
REMARK                         _______ _______ _______ _____ _____    ______ ____
ROOT
ATOM      1  C   UNL     1       4.996  -3.181  -0.100  0.00  0.00    +0.009 A 
ATOM      2  C   UNL     1       5.958  -2.628  -0.933  0.00  0.00    +0.034 A 
ATOM      3  C   UNL     1       7.194  -3.249  -1.093  0.00  0.00    +0.034 A 
ATOM      4  C   UNL     1       7.480  -4.424  -0.424  0.00  0.00    +0.035 A 
ATOM      5  C   UNL     1       6.522  -4.996   0.420  0.00  0.00    +0.022 A 
ATOM      6  C   UNL     1       5.273  -4.371   0.589  0.00  0.00    +0.074 A 
ATOM      7  N   UNL     1       4.558  -5.146   1.464  0.00  0.00    -0.276 N 
ATOM      8  H   UNL     1       3.655  -4.965   1.768  0.00  0.00    +0.189 HD
ATOM      9  N   UNL     1       5.338  -6.241   1.848  0.00  0.00    -0.181 NA
ATOM     10  C   UNL     1       6.496  -6.196   1.252  0.00  0.00    +0.142 A 
ENDROOT
BRANCH   3  11
ATOM     11  N   UNL     1       8.155  -2.678  -1.937  0.00  0.00    -0.299 N 
ATOM     12  C   UNL     1       9.497  -2.732  -1.596  0.00  0.00    +0.128 A 
ATOM     13  C   UNL     1      10.473  -2.277  -2.486  0.00  0.00    +0.061 A 
ATOM     14  C   UNL     1      11.798  -2.349  -2.104  0.00  0.00    +0.089 A 
ATOM     15  N   UNL     1      12.103  -2.845  -0.913  0.00  0.00    -0.334 N 
ATOM     16  C   UNL     1      11.157  -3.269  -0.089  0.00  0.00    +0.192 A 
ATOM     17  N   UNL     1       9.874  -3.212  -0.415  0.00  0.00    -0.201 NA
ATOM     18  N   UNL     1      11.517  -3.780   1.146  0.00  0.00    -0.329 N 
ATOM     19  H   UNL     1       7.880  -2.245  -2.760  0.00  0.00    +0.154 HD
ATOM     20  H   UNL     1      12.452  -3.824   1.399  0.00  0.00    +0.145 HD
ATOM     21  H   UNL     1      10.833  -4.094   1.759  0.00  0.00    +0.145 HD
ATOM     22  H   UNL     1      13.033  -2.897  -0.641  0.00  0.00    +0.168 HD
ENDBRANCH   3  11
BRANCH   1  28
ATOM     23  C   UNL     1      -0.099   0.660   0.814  0.00  0.00    +0.001 A 
ATOM     24  C   UNL     1       1.067   1.409   0.957  0.00  0.00    +0.001 A 
ATOM     25  C   UNL     1       2.292   0.833   0.812  0.00  0.00    +0.008 A 
ATOM     26  C   UNL     1       2.385  -0.538   0.513  0.00  0.00    -0.017 A 
ATOM     27  C   UNL     1       3.631  -1.163   0.358  0.00  0.00    +0.017 A 
ATOM     28  C   UNL     1       3.682  -2.514   0.065  0.00  0.00    -0.015 A 
ATOM     29  C   UNL     1       2.500  -3.259  -0.077  0.00  0.00    +0.009 A 
ATOM     30  C   UNL     1       1.284  -2.672   0.069  0.00  0.00    +0.009 A 
ATOM     31  C   UNL     1       1.198  -1.300   0.367  0.00  0.00    -0.018 A 
ATOM     32  C   UNL     1      -0.048  -0.669   0.525  0.00  0.00    +0.008 A 
ENDBRANCH   1  28
TORSDOF 2
