REMARK  Name = CHEMBL467532
REMARK  5 active torsions:
REMARK  status: ('A' for Active; 'I' for Inactive)
REMARK    1  A    between atoms: C_1  and  C_2
REMARK    2  A    between atoms: C_2  and  C_3
REMARK    3  A    between atoms: C_2  and  N_10
REMARK    4  A    between atoms: C_7  and  O_9
REMARK    5  A    between atoms: C_12  and  N_17
REMARK                            x       y       z     vdW  Elec       q    Type
REMARK                         _______ _______ _______ _____ _____    ______ ____
ROOT
ATOM      1  N   UNL     1       0.711  -0.489   1.189  0.00  0.00    -0.274 NA
ATOM      2  C   UNL     1       1.769  -1.216   1.056  0.00  0.00    +0.119 C 
ATOM      3  C   UNL     1       2.580  -1.767  -0.097  0.00  0.00    +0.232 C 
ATOM      4  C   UNL     1       3.743  -1.778   0.871  0.00  0.00    +0.234 C 
ATOM      5  O   UNL     1       4.947  -1.724   0.793  0.00  0.00    -0.286 OA
ATOM      6  C   UNL     1       2.737  -1.880   1.969  0.00  0.00    +0.247 C 
ATOM      7  O   UNL     1       2.719  -2.312   3.102  0.00  0.00    -0.282 OA
ENDROOT
BRANCH   3   8
ATOM      8  N   UNL     1       2.160  -3.101  -0.532  0.00  0.00    -0.266 NA
ATOM      9  C   UNL     1       1.743  -3.291  -1.772  0.00  0.00    +0.062 A 
ATOM     10  C   UNL     1       1.694  -2.187  -2.742  0.00  0.00    +0.045 A 
ATOM     11  C   UNL     1       1.012  -2.381  -3.889  0.00  0.00    +0.084 A 
ATOM     12  N   UNL     1       0.384  -3.563  -4.133  0.00  0.00    -0.367 N 
ATOM     13  C   UNL     1       0.645  -4.687  -3.412  0.00  0.00    +0.084 A 
ATOM     14  C   UNL     1       1.314  -4.617  -2.242  0.00  0.00    +0.045 A 
ATOM     15  H   UNL     1      -0.272  -3.606  -4.846  0.00  0.00    +0.165 HD
ENDBRANCH   3   8
BRANCH   1  17
ATOM     16  C   UNL     1      -0.019   1.526   0.010  0.00  0.00    +0.038 C 
ATOM     17  C   UNL     1       0.002  -0.004   0.002  0.00  0.00    +0.133 C 
BRANCH  17  18
ATOM     18  C   UNL     1      -1.412  -0.526   0.013  0.00  0.00    -0.020 A 
ATOM     19  C   UNL     1      -2.123  -0.571   1.198  0.00  0.00    +0.006 A 
ATOM     20  C   UNL     1      -3.420  -1.049   1.211  0.00  0.00    +0.004 A 
ATOM     21  C   UNL     1      -4.009  -1.483   0.040  0.00  0.00    +0.045 A 
ATOM     22  C   UNL     1      -3.298  -1.439  -1.151  0.00  0.00    +0.117 A 
ATOM     23  C   UNL     1      -1.998  -0.953  -1.162  0.00  0.00    +0.051 A 
BRANCH  22  24
ATOM     24  O   UNL     1      -3.876  -1.866  -2.305  0.00  0.00    -0.507 OA
ATOM     25  H   UNL     1      -4.345  -1.173  -2.789  0.00  0.00    +0.292 HD
ENDBRANCH  22  24
ENDBRANCH  17  18
ENDBRANCH   1  17
TORSDOF 4
