REMARK  Name = CHEMBL256194
REMARK  9 active torsions:
REMARK  status: ('A' for Active; 'I' for Inactive)
REMARK    1  A    between atoms: C_1  and  C_2
REMARK    2  A    between atoms: C_11  and  C_16
REMARK    3  A    between atoms: C_21  and  C_24
REMARK    4  A    between atoms: N_26  and  C_27
REMARK    5  A    between atoms: N_30  and  C_33
REMARK    6  A    between atoms: C_33  and  C_34
REMARK    7  A    between atoms: C_34  and  C_35
REMARK    8  A    between atoms: C_34  and  C_36
REMARK    9  A    between atoms: C_34  and  C_37
REMARK                            x       y       z     vdW  Elec       q    Type
REMARK                         _______ _______ _______ _____ _____    ______ ____
ROOT
ATOM      1  C   UNL     1       8.967   3.472   1.032  0.00  0.00    +0.250 C 
ATOM      2  O   UNL     1       9.280   4.216   0.122  0.00  0.00    -0.270 OA
ATOM      3  N   UNL     1       9.828   2.526   1.454  0.00  0.00    -0.261 N 
ATOM      4  C   UNL     1      11.072   2.400   0.852  0.00  0.00    +0.165 A 
ATOM      5  N   UNL     1      12.040   1.546   1.115  0.00  0.00    -0.220 NA
ATOM      6  C   UNL     1      13.162   1.617   0.393  0.00  0.00    +0.135 A 
ATOM      7  C   UNL     1      13.261   2.568  -0.583  0.00  0.00    +0.081 A 
ATOM      8  S   UNL     1      11.774   3.349  -0.485  0.00  0.00    -0.060 S 
ATOM      9  H   UNL     1       9.579   1.932   2.180  0.00  0.00    +0.157 HD
ENDROOT
BRANCH   1  20
ATOM     10  C   UNL     1       4.750   7.912   1.325  0.00  0.00    +0.032 C 
ATOM     11  C   UNL     1       4.271   6.597   0.707  0.00  0.00    +0.102 C 
ATOM     12  C   UNL     1       2.786   6.705   0.367  0.00  0.00    +0.129 C 
ATOM     13  N   UNL     1       1.935   6.694   1.551  0.00  0.00    -0.308 N 
ATOM     14  C   UNL     1       2.198   5.899   2.615  0.00  0.00    +0.261 C 
ATOM     15  O   UNL     1       1.421   5.796   3.546  0.00  0.00    -0.269 OA
ATOM     16  C   UNL     1       3.477   5.162   2.585  0.00  0.00    +0.106 A 
ATOM     17  N   UNL     1       4.469   5.505   1.666  0.00  0.00    -0.332 N 
ATOM     18  C   UNL     1       5.530   4.682   1.853  0.00  0.00    +0.051 A 
ATOM     19  C   UNL     1       6.766   4.594   1.218  0.00  0.00    +0.039 A 
ATOM     20  C   UNL     1       7.643   3.606   1.673  0.00  0.00    +0.039 A 
ATOM     21  C   UNL     1       7.304   2.738   2.717  0.00  0.00    +0.014 A 
ATOM     22  C   UNL     1       6.095   2.809   3.354  0.00  0.00    +0.011 A 
ATOM     23  C   UNL     1       5.196   3.795   2.915  0.00  0.00    +0.001 A 
ATOM     24  C   UNL     1       3.900   4.130   3.345  0.00  0.00    +0.041 A 
ATOM     25  H   UNL     1       1.159   7.274   1.577  0.00  0.00    +0.149 HD
ENDBRANCH   1  20
BRANCH   6  26
ATOM     26  C   UNL     1      14.274   0.686   0.646  0.00  0.00    +0.263 C 
ATOM     27  O   UNL     1      15.291   0.759  -0.016  0.00  0.00    -0.269 OA
ATOM     28  N   UNL     1      14.165  -0.248   1.612  0.00  0.00    -0.307 N 
ATOM     29  H   UNL     1      13.353  -0.306   2.140  0.00  0.00    +0.149 HD
BRANCH  28  30
ATOM     30  C   UNL     1      15.271  -1.174   1.864  0.00  0.00    +0.070 C 
ATOM     31  C   UNL     1      15.165  -2.370   0.913  0.00  0.00    +0.003 C 
ATOM     32  C   UNL     1      16.276  -3.371   1.235  0.00  0.00    -0.077 C 
ATOM     33  N   UNL     1      16.138  -3.833   2.621  0.00  0.00    +0.380 N 
ATOM     34  C   UNL     1      16.311  -2.703   3.542  0.00  0.00    -0.077 C 
ATOM     35  C   UNL     1      15.200  -1.676   3.309  0.00  0.00    +0.003 C 
ATOM     36  H   UNL     1      15.221  -4.234   2.751  0.00  0.00    -0.082 HD
BRANCH  33  37
ATOM     37  C   UNL     1      17.159  -4.851   2.901  0.00  0.00    -0.073 C 
BRANCH  37  38
ATOM     38  C   UNL     1      16.644  -6.223   2.464  0.00  0.00    -0.052 C 
ATOM     39  C   UNL     1      16.458  -6.238   0.945  0.00  0.00    +0.009 C 
ATOM     40  C   UNL     1      17.656  -7.299   2.864  0.00  0.00    +0.009 C 
ATOM     41  C   UNL     1      15.303  -6.506   3.144  0.00  0.00    +0.009 C 
ENDBRANCH  37  38
ENDBRANCH  33  37
ENDBRANCH  28  30
ENDBRANCH   6  26
TORSDOF 5
