REMARK  Name = CHEMBL376384
REMARK  6 active torsions:
REMARK  status: ('A' for Active; 'I' for Inactive)
REMARK    1  A    between atoms: C_1  and  N_2
REMARK    2  A    between atoms: N_2  and  C_3
REMARK    3  A    between atoms: C_3  and  C_4
REMARK    4  A    between atoms: C_10  and  C_12
REMARK    5  A    between atoms: C_15  and  C_18
REMARK    6  A    between atoms: C_20  and  C_24
REMARK                            x       y       z     vdW  Elec       q    Type
REMARK                         _______ _______ _______ _____ _____    ______ ____
ROOT
ATOM      1  C   UNL     1      -0.168   2.162  -6.147  0.00  0.00    +0.072 A 
ATOM      2  C   UNL     1      -0.390   1.478  -7.337  0.00  0.00    +0.038 A 
ATOM      3  C   UNL     1      -0.407   2.196  -8.537  0.00  0.00    +0.002 A 
ATOM      4  C   UNL     1      -0.197   3.580  -8.483  0.00  0.00    +0.029 A 
ATOM      5  C   UNL     1       0.017   4.182  -7.260  0.00  0.00    +0.112 A 
ATOM      6  N   UNL     1       0.021   3.476  -6.147  0.00  0.00    -0.255 NA
ENDROOT
BRANCH   3   7
ATOM      7  C   UNL     1      -0.639   1.512  -9.827  0.00  0.00    +0.048 A 
ATOM      8  C   UNL     1      -0.858   0.177  -9.992  0.00  0.00    +0.041 A 
ATOM      9  C   UNL     1      -1.028  -0.037 -11.366  0.00  0.00    +0.058 A 
ATOM     10  C   UNL     1      -0.901   1.195 -11.999  0.00  0.00    +0.030 A 
ATOM     11  N   UNL     1      -0.675   2.119 -11.064  0.00  0.00    -0.357 N 
ATOM     12  H   UNL     1      -0.554   3.068 -11.229  0.00  0.00    +0.166 HD
ATOM     13  C   UNL     1      -1.026   1.316 -13.496  0.00  0.00    +0.072 C 
ATOM     14  C   UNL     1      -0.573   0.004 -14.136  0.00  0.00    +0.110 C 
ATOM     15  N   UNL     1      -1.141  -1.170 -13.487  0.00  0.00    -0.311 N 
ATOM     16  C   UNL     1      -1.294  -1.260 -12.145  0.00  0.00    +0.246 C 
ATOM     17  O   UNL     1      -1.634  -2.297 -11.608  0.00  0.00    -0.270 OA
ATOM     18  H   UNL     1      -1.421  -1.917 -14.038  0.00  0.00    +0.149 HD
ENDBRANCH   3   7
BRANCH   1  22
ATOM     19  C   UNL     1      -0.109   0.025  -2.467  0.00  0.00    +0.037 A 
ATOM     20  C   UNL     1       0.089   1.408  -2.476  0.00  0.00    +0.014 A 
ATOM     21  C   UNL     1       0.070   2.098  -3.667  0.00  0.00    +0.011 A 
ATOM     22  C   UNL     1      -0.147   1.417  -4.865  0.00  0.00    +0.000 A 
ATOM     23  C   UNL     1      -0.344   0.036  -4.857  0.00  0.00    +0.011 A 
ATOM     24  C   UNL     1      -0.320  -0.657  -3.668  0.00  0.00    +0.014 A 
BRANCH  19  27
ATOM     25  C   UNL     1      -1.246   1.156  -0.145  0.00  0.00    +0.132 C 
ATOM     26  N   UNL     1      -0.579  -0.146  -0.071  0.00  0.00    -0.296 N 
ATOM     27  C   UNL     1      -0.089  -0.717  -1.189  0.00  0.00    +0.247 C 
ATOM     28  O   UNL     1       0.370  -1.842  -1.147  0.00  0.00    -0.270 OA
BRANCH  26  29
ATOM     29  C   UNL     1      -0.444  -0.828   1.219  0.00  0.00    +0.142 C 
BRANCH  29  30
ATOM     30  C   UNL     1      -1.643  -1.712   1.447  0.00  0.00    -0.030 A 
ATOM     31  C   UNL     1      -2.761  -1.209   2.086  0.00  0.00    +0.005 A 
ATOM     32  C   UNL     1      -3.860  -2.020   2.296  0.00  0.00    +0.000 A 
ATOM     33  C   UNL     1      -3.842  -3.334   1.866  0.00  0.00    +0.000 A 
ATOM     34  C   UNL     1      -2.724  -3.837   1.227  0.00  0.00    +0.000 A 
ATOM     35  C   UNL     1      -1.626  -3.025   1.014  0.00  0.00    +0.005 A 
ENDBRANCH  29  30
ENDBRANCH  26  29
ENDBRANCH  19  27
ENDBRANCH   1  22
TORSDOF 5
