REMARK  Name = CHEMBL225519
REMARK  1 active torsions:
REMARK  status: ('A' for Active; 'I' for Inactive)
REMARK    1  A    between atoms: C_6  and  C_7
REMARK                            x       y       z     vdW  Elec       q    Type
REMARK                         _______ _______ _______ _____ _____    ______ ____
ROOT
ATOM      1  C   UNL     1      -1.255  -0.781   0.010  0.00  0.00    +0.047 A 
ATOM      2  C   UNL     1      -2.515  -0.258   0.020  0.00  0.00    +0.041 A 
ATOM      3  C   UNL     1      -3.402  -1.341   0.025  0.00  0.00    +0.058 A 
ATOM      4  C   UNL     1      -2.640  -2.505   0.020  0.00  0.00    +0.030 A 
ATOM      5  N   UNL     1      -1.352  -2.156   0.004  0.00  0.00    -0.357 N 
ATOM      6  H   UNL     1      -0.603  -2.772  -0.008  0.00  0.00    +0.166 HD
ATOM      7  C   UNL     1      -3.294  -3.862   0.029  0.00  0.00    +0.072 C 
ATOM      8  C   UNL     1      -4.641  -3.755   0.744  0.00  0.00    +0.110 C 
ATOM      9  N   UNL     1      -5.428  -2.611   0.304  0.00  0.00    -0.311 N 
ATOM     10  C   UNL     1      -4.874  -1.405   0.032  0.00  0.00    +0.246 C 
ATOM     11  O   UNL     1      -5.558  -0.425  -0.194  0.00  0.00    -0.270 OA
ATOM     12  H   UNL     1      -6.386  -2.717   0.201  0.00  0.00    +0.149 HD
ENDROOT
BRANCH   1  18
ATOM     13  C   UNL     1      -0.017   1.396   0.010  0.00  0.00    +0.029 A 
ATOM     14  C   UNL     1       1.180   2.081   0.002  0.00  0.00    +0.111 A 
ATOM     15  N   UNL     1       2.330   1.434  -0.013  0.00  0.00    -0.263 NA
ATOM     16  C   UNL     1       2.393   0.116  -0.020  0.00  0.00    +0.111 A 
ATOM     17  C   UNL     1       1.245  -0.648  -0.014  0.00  0.00    +0.029 A 
ATOM     18  C   UNL     1       0.002  -0.004   0.002  0.00  0.00    +0.001 A 
ENDBRANCH   1  18
TORSDOF 1
