REMARK  Name = CHEMBL564076
REMARK  2 active torsions:
REMARK  status: ('A' for Active; 'I' for Inactive)
REMARK    1  A    between atoms: C_1  and  C_2
REMARK    2  A    between atoms: C_11  and  C_22
REMARK                            x       y       z     vdW  Elec       q    Type
REMARK                         _______ _______ _______ _____ _____    ______ ____
ROOT
ATOM      1  C   UNL     1      -0.019   1.526   0.010  0.00  0.00    +0.029 C 
ATOM      2  C   UNL     1       0.002  -0.004   0.002  0.00  0.00    +0.087 C 
ATOM      3  C   UNL     1       0.671  -0.473  -1.270  0.00  0.00    +0.123 C 
ATOM      4  N   UNL     1       0.473  -1.880  -1.521  0.00  0.00    -0.341 N 
ATOM      5  C   UNL     1       1.080  -2.888  -0.764  0.00  0.00    +0.055 A 
ATOM      6  C   UNL     1       1.392  -4.141  -1.359  0.00  0.00    +0.020 A 
ATOM      7  C   UNL     1       1.157  -4.549  -2.760  0.00  0.00    +0.010 A 
ATOM      8  C   UNL     1       0.565  -3.661  -3.668  0.00  0.00    +0.013 A 
ATOM      9  C   UNL     1       0.374  -4.085  -4.954  0.00  0.00    +0.029 A 
ATOM     10  C   UNL     1       0.770  -5.378  -5.323  0.00  0.00    +0.072 A 
ATOM     11  N   UNL     1       1.323  -6.204  -4.455  0.00  0.00    -0.247 NA
ATOM     12  C   UNL     1       1.532  -5.840  -3.186  0.00  0.00    +0.072 A 
ATOM     13  C   UNL     1       2.125  -6.741  -2.275  0.00  0.00    +0.029 A 
ATOM     14  C   UNL     1       2.343  -6.369  -0.988  0.00  0.00    +0.018 A 
ATOM     15  C   UNL     1       1.991  -5.103  -0.532  0.00  0.00    +0.023 A 
ATOM     16  S   UNL     1       2.125  -4.282   1.035  0.00  0.00    -0.082 S 
ATOM     17  C   UNL     1       1.403  -2.718   0.572  0.00  0.00    +0.096 A 
ATOM     18  C   UNL     1       1.241  -1.623   1.421  0.00  0.00    +0.253 C 
ATOM     19  O   UNL     1       1.707  -1.762   2.537  0.00  0.00    -0.270 OA
ATOM     20  N   UNL     1       0.664  -0.464   1.198  0.00  0.00    -0.307 N 
ATOM     21  H   UNL     1      -0.110  -2.139  -2.251  0.00  0.00    +0.146 HD
ATOM     22  H   UNL     1       0.684   0.164   1.937  0.00  0.00    +0.149 HD
ENDROOT
BRANCH  10  23
ATOM     23  C   UNL     1       0.561  -5.828  -6.720  0.00  0.00    +0.000 A 
ATOM     24  C   UNL     1      -0.017  -4.968  -7.653  0.00  0.00    +0.010 A 
ATOM     25  C   UNL     1      -0.208  -5.393  -8.953  0.00  0.00    +0.001 A 
ATOM     26  C   UNL     1       0.172  -6.668  -9.330  0.00  0.00    +0.000 A 
ATOM     27  C   UNL     1       0.746  -7.525  -8.408  0.00  0.00    +0.001 A 
ATOM     28  C   UNL     1       0.947  -7.110  -7.107  0.00  0.00    +0.010 A 
ENDBRANCH  10  23
TORSDOF 1
