REMARK  Name = CHEMBL467532
REMARK  6 active torsions:
REMARK  status: ('A' for Active; 'I' for Inactive)
REMARK    1  A    between atoms: C_1  and  C_2
REMARK    2  A    between atoms: C_2  and  C_3
REMARK    3  A    between atoms: C_2  and  N_10
REMARK    4  A    between atoms: C_7  and  O_9
REMARK    5  A    between atoms: C_12  and  N_17
REMARK    6  A    between atoms: N_17  and  C_18
REMARK                            x       y       z     vdW  Elec       q    Type
REMARK                         _______ _______ _______ _____ _____    ______ ____
ROOT
ATOM      1  N   UNL     1      -1.372  -0.511   0.012  0.00  0.00    -0.274 NA
ATOM      2  C   UNL     1      -1.775  -1.264   0.980  0.00  0.00    +0.114 C 
ATOM      3  C   UNL     1      -3.059  -1.973   1.352  0.00  0.00    +0.198 C 
ATOM      4  C   UNL     1      -2.177  -2.933   2.120  0.00  0.00    +0.230 C 
ATOM      5  O   UNL     1      -2.245  -4.083   2.484  0.00  0.00    -0.286 OA
ATOM      6  C   UNL     1      -1.182  -1.826   2.222  0.00  0.00    +0.246 C 
ATOM      7  O   UNL     1      -0.286  -1.522   2.981  0.00  0.00    -0.282 OA
ENDROOT
BRANCH   1   9
ATOM      8  C   UNL     1      -0.019   1.526   0.010  0.00  0.00    +0.038 C 
ATOM      9  C   UNL     1       0.002  -0.004   0.002  0.00  0.00    +0.133 C 
BRANCH   9  10
ATOM     10  C   UNL     1       0.707  -0.490  -1.238  0.00  0.00    -0.020 A 
ATOM     11  C   UNL     1       0.037  -0.521  -2.447  0.00  0.00    +0.006 A 
ATOM     12  C   UNL     1       0.681  -0.967  -3.586  0.00  0.00    +0.004 A 
ATOM     13  C   UNL     1       1.997  -1.382  -3.519  0.00  0.00    +0.045 A 
ATOM     14  C   UNL     1       2.672  -1.352  -2.308  0.00  0.00    +0.117 A 
ATOM     15  C   UNL     1       2.025  -0.898  -1.167  0.00  0.00    +0.051 A 
BRANCH  14  16
ATOM     16  O   UNL     1       3.966  -1.760  -2.239  0.00  0.00    -0.507 OA
ATOM     17  H   UNL     1       4.610  -1.054  -2.390  0.00  0.00    +0.292 HD
ENDBRANCH  14  16
ENDBRANCH   9  10
ENDBRANCH   1   9
BRANCH   3  18
ATOM     18  N   UNL     1      -3.949  -1.178   2.203  0.00  0.00    -0.329 N 
ATOM     19  H   UNL     1      -3.584  -0.476   2.764  0.00  0.00    +0.147 HD
BRANCH  18  20
ATOM     20  C   UNL     1      -5.317  -1.431   2.206  0.00  0.00    +0.031 A 
ATOM     21  C   UNL     1      -5.861  -2.439   1.410  0.00  0.00    +0.042 A 
ATOM     22  C   UNL     1      -7.222  -2.658   1.442  0.00  0.00    +0.112 A 
ATOM     23  N   UNL     1      -8.007  -1.927   2.212  0.00  0.00    -0.263 NA
ATOM     24  C   UNL     1      -7.531  -0.964   2.978  0.00  0.00    +0.112 A 
ATOM     25  C   UNL     1      -6.181  -0.685   3.008  0.00  0.00    +0.042 A 
ENDBRANCH  18  20
ENDBRANCH   3  18
TORSDOF 5
