REMARK  Name = CHEMBL604510
REMARK  4 active torsions:
REMARK  status: ('A' for Active; 'I' for Inactive)
REMARK    1  A    between atoms: C_1  and  N_2
REMARK    2  A    between atoms: C_8  and  C_11
REMARK    3  A    between atoms: C_15  and  N_17
REMARK    4  A    between atoms: C_19  and  C_23
REMARK                            x       y       z     vdW  Elec       q    Type
REMARK                         _______ _______ _______ _____ _____    ______ ____
ROOT
ATOM      1  N   UNL     1       0.131  -3.119   8.055  0.00  0.00    -0.237 N 
ATOM      2  C   UNL     1       0.042  -2.993   9.396  0.00  0.00    +0.125 A 
ATOM      3  C   UNL     1       0.111  -4.245   9.936  0.00  0.00    +0.041 A 
ATOM      4  C   UNL     1       0.247  -5.162   8.866  0.00  0.00    +0.146 A 
ATOM      5  N   UNL     1       0.252  -4.479   7.747  0.00  0.00    -0.151 NA
ATOM      6  N   UNL     1       0.351  -6.550   8.982  0.00  0.00    -0.341 N 
ATOM      7  H   UNL     1       0.333  -6.966   9.858  0.00  0.00    +0.144 HD
ATOM      8  H   UNL     1       0.442  -7.098   8.187  0.00  0.00    +0.144 HD
ENDROOT
BRANCH   3   9
ATOM      9  C   UNL     1       0.053  -4.582  11.377  0.00  0.00    -0.013 A 
ATOM     10  C   UNL     1       0.874  -3.908  12.283  0.00  0.00    +0.009 A 
ATOM     11  C   UNL     1       0.826  -4.214  13.614  0.00  0.00    +0.014 A 
ATOM     12  C   UNL     1      -0.046  -5.203  14.068  0.00  0.00    +0.040 A 
ATOM     13  C   UNL     1      -0.873  -5.881  13.165  0.00  0.00    -0.033 A 
ATOM     14  C   UNL     1      -0.827  -5.569  11.828  0.00  0.00    +0.013 A 
ATOM     15  C   UNL     1      -1.808  -6.944  13.679  0.00  0.00    +0.054 C 
ATOM     16  C   UNL     1      -1.168  -7.673  14.858  0.00  0.00    +0.109 C 
ATOM     17  N   UNL     1      -0.683  -6.727  15.860  0.00  0.00    -0.311 N 
ATOM     18  C   UNL     1      -0.119  -5.557  15.500  0.00  0.00    +0.244 C 
ATOM     19  O   UNL     1       0.325  -4.802  16.344  0.00  0.00    -0.270 OA
ATOM     20  H   UNL     1      -0.769  -6.945  16.801  0.00  0.00    +0.149 HD
ENDBRANCH   3   9
BRANCH   1  25
ATOM     21  C   UNL     1       0.064  -1.295   4.852  0.00  0.00    -0.016 A 
ATOM     22  C   UNL     1       0.044   0.023   5.306  0.00  0.00    +0.008 A 
ATOM     23  C   UNL     1       0.052   0.287   6.661  0.00  0.00    +0.003 A 
ATOM     24  C   UNL     1       0.081  -0.752   7.572  0.00  0.00    +0.028 A 
ATOM     25  C   UNL     1       0.101  -2.069   7.129  0.00  0.00    +0.066 A 
ATOM     26  C   UNL     1       0.086  -2.343   5.769  0.00  0.00    +0.036 A 
BRANCH  21  34
ATOM     27  C   UNL     1      -0.018   1.461   0.010  0.00  0.00    +0.149 C 
ATOM     28  N   UNL     1       0.002  -0.004   0.002  0.00  0.00    -0.350 N 
ATOM     29  C   UNL     1       0.008  -0.784  -1.122  0.00  0.00    +0.086 A 
ATOM     30  C   UNL     1       0.028  -2.082  -0.779  0.00  0.00    +0.027 A 
ATOM     31  C   UNL     1       0.035  -2.139   0.684  0.00  0.00    -0.000 A 
ATOM     32  C   UNL     1       0.024  -0.802   1.125  0.00  0.00    +0.049 A 
ATOM     33  C   UNL     1       0.032  -0.531   2.487  0.00  0.00    +0.035 A 
ATOM     34  C   UNL     1       0.054  -1.581   3.397  0.00  0.00    -0.016 A 
ATOM     35  C   UNL     1       0.069  -2.906   2.948  0.00  0.00    +0.009 A 
ATOM     36  C   UNL     1       0.053  -3.183   1.613  0.00  0.00    +0.010 A 
ENDBRANCH  21  34
ENDBRANCH   1  25
TORSDOF 3
