REMARK  Name = CHEMBL590834
REMARK  2 active torsions:
REMARK  status: ('A' for Active; 'I' for Inactive)
REMARK    1  A    between atoms: C_6  and  C_11
REMARK    2  A    between atoms: C_14  and  N_21
REMARK                            x       y       z     vdW  Elec       q    Type
REMARK                         _______ _______ _______ _____ _____    ______ ____
ROOT
ATOM      1  C   UNL     1       4.283  -3.099  -0.436  0.00  0.00    +0.074 A 
ATOM      2  C   UNL     1       4.809  -4.068   0.421  0.00  0.00    +0.029 A 
ATOM      3  C   UNL     1       4.325  -4.765   1.543  0.00  0.00    +0.035 A 
ATOM      4  C   UNL     1       5.128  -5.675   2.167  0.00  0.00    +0.033 A 
ATOM      5  C   UNL     1       6.430  -5.933   1.717  0.00  0.00    +0.025 A 
ATOM      6  C   UNL     1       6.952  -5.293   0.642  0.00  0.00    +0.032 A 
ATOM      7  C   UNL     1       6.174  -4.340  -0.050  0.00  0.00    +0.093 A 
ATOM      8  N   UNL     1       6.381  -3.566  -1.102  0.00  0.00    -0.173 NA
ATOM      9  H   UNL     1       5.133  -2.166  -2.073  0.00  0.00    +0.189 HD
ATOM     10  N   UNL     1       5.232  -2.807  -1.352  0.00  0.00    -0.276 N 
ENDROOT
BRANCH   4  11
ATOM     11  N   UNL     1       4.641  -6.365   3.282  0.00  0.00    -0.299 N 
ATOM     12  C   UNL     1       3.760  -5.742   4.152  0.00  0.00    +0.128 A 
ATOM     13  C   UNL     1       3.172  -6.457   5.199  0.00  0.00    +0.063 A 
ATOM     14  C   UNL     1       2.300  -5.796   6.040  0.00  0.00    +0.118 A 
ATOM     15  N   UNL     1       2.048  -4.511   5.833  0.00  0.00    -0.223 NA
ATOM     16  C   UNL     1       2.619  -3.858   4.832  0.00  0.00    +0.214 A 
ATOM     17  N   UNL     1       3.465  -4.454   4.006  0.00  0.00    -0.200 NA
ATOM     18  N   UNL     1       2.329  -2.517   4.649  0.00  0.00    -0.327 N 
ATOM     19  H   UNL     1       4.920  -7.279   3.447  0.00  0.00    +0.154 HD
ATOM     20  H   UNL     1       1.714  -2.068   5.250  0.00  0.00    +0.145 HD
ATOM     21  H   UNL     1       2.740  -2.027   3.920  0.00  0.00    +0.145 HD
ENDBRANCH   4  11
BRANCH   1  27
ATOM     22  C   UNL     1      -1.070   0.477  -0.268  0.00  0.00    +0.001 A 
ATOM     23  C   UNL     1       0.027   1.312  -0.475  0.00  0.00    +0.001 A 
ATOM     24  C   UNL     1       1.287   0.804  -0.551  0.00  0.00    +0.008 A 
ATOM     25  C   UNL     1       1.489  -0.582  -0.420  0.00  0.00    -0.017 A 
ATOM     26  C   UNL     1       2.775  -1.137  -0.494  0.00  0.00    +0.018 A 
ATOM     27  C   UNL     1       2.934  -2.508  -0.359  0.00  0.00    +0.001 A 
ATOM     28  C   UNL     1       1.817  -3.339  -0.151  0.00  0.00    +0.010 A 
ATOM     29  C   UNL     1       0.567  -2.818  -0.077  0.00  0.00    +0.009 A 
ATOM     30  C   UNL     1       0.372  -1.430  -0.209  0.00  0.00    -0.018 A 
ATOM     31  C   UNL     1      -0.913  -0.869  -0.137  0.00  0.00    +0.008 A 
ENDBRANCH   1  27
TORSDOF 2
