REMARK  Name = CHEMBL467532
REMARK  6 active torsions:
REMARK  status: ('A' for Active; 'I' for Inactive)
REMARK    1  A    between atoms: C_1  and  C_2
REMARK    2  A    between atoms: C_2  and  C_3
REMARK    3  A    between atoms: C_2  and  N_10
REMARK    4  A    between atoms: C_7  and  O_9
REMARK    5  A    between atoms: C_12  and  N_17
REMARK    6  A    between atoms: N_17  and  C_18
REMARK                            x       y       z     vdW  Elec       q    Type
REMARK                         _______ _______ _______ _____ _____    ______ ____
ROOT
ATOM      1  N   UNL     1       0.688  -0.476  -1.203  0.00  0.00    -0.274 NA
ATOM      2  C   UNL     1       1.748  -1.205  -1.099  0.00  0.00    +0.114 C 
ATOM      3  C   UNL     1       2.574  -1.779   0.033  0.00  0.00    +0.198 C 
ATOM      4  C   UNL     1       2.984  -2.848  -0.956  0.00  0.00    +0.230 C 
ATOM      5  O   UNL     1       3.367  -3.992  -0.899  0.00  0.00    -0.286 OA
ATOM      6  C   UNL     1       2.699  -1.859  -2.037  0.00  0.00    +0.246 C 
ATOM      7  O   UNL     1       3.075  -1.673  -3.174  0.00  0.00    -0.282 OA
ENDROOT
BRANCH   1   9
ATOM      8  C   UNL     1      -0.019   1.526   0.010  0.00  0.00    +0.038 C 
ATOM      9  C   UNL     1       0.002  -0.004   0.002  0.00  0.00    +0.133 C 
BRANCH   9  10
ATOM     10  C   UNL     1      -1.412  -0.526   0.013  0.00  0.00    -0.020 A 
ATOM     11  C   UNL     1      -2.141  -0.569  -1.161  0.00  0.00    +0.006 A 
ATOM     12  C   UNL     1      -3.438  -1.046  -1.155  0.00  0.00    +0.004 A 
ATOM     13  C   UNL     1      -4.009  -1.482   0.025  0.00  0.00    +0.045 A 
ATOM     14  C   UNL     1      -3.280  -1.440   1.204  0.00  0.00    +0.117 A 
ATOM     15  C   UNL     1      -1.976  -0.966   1.194  0.00  0.00    +0.051 A 
BRANCH  14  16
ATOM     16  O   UNL     1      -3.839  -1.868   2.367  0.00  0.00    -0.507 OA
ATOM     17  H   UNL     1      -3.701  -2.808   2.547  0.00  0.00    +0.292 HD
ENDBRANCH  14  16
ENDBRANCH   9  10
ENDBRANCH   1   9
BRANCH   3  18
ATOM     18  N   UNL     1       3.676  -0.913   0.459  0.00  0.00    -0.329 N 
ATOM     19  H   UNL     1       4.054  -0.269  -0.160  0.00  0.00    +0.147 HD
BRANCH  18  20
ATOM     20  C   UNL     1       4.181  -1.014   1.752  0.00  0.00    +0.031 A 
ATOM     21  C   UNL     1       3.654  -1.938   2.655  0.00  0.00    +0.042 A 
ATOM     22  C   UNL     1       4.183  -2.007   3.926  0.00  0.00    +0.112 A 
ATOM     23  N   UNL     1       5.173  -1.214   4.292  0.00  0.00    -0.263 NA
ATOM     24  C   UNL     1       5.698  -0.328   3.467  0.00  0.00    +0.112 A 
ATOM     25  C   UNL     1       5.230  -0.199   2.176  0.00  0.00    +0.042 A 
ENDBRANCH  18  20
ENDBRANCH   3  18
TORSDOF 5
