REMARK  Name = CHEMBL390601
REMARK  2 active torsions:
REMARK  status: ('A' for Active; 'I' for Inactive)
REMARK    1  A    between atoms: C_4  and  C_18
REMARK    2  A    between atoms: C_6  and  C_7
REMARK                            x       y       z     vdW  Elec       q    Type
REMARK                         _______ _______ _______ _____ _____    ______ ____
ROOT
ATOM      1  C   UNL     1      -0.017   1.397   0.010  0.00  0.00    +0.029 A 
ATOM      2  C   UNL     1       1.178   2.086   0.002  0.00  0.00    +0.112 A 
ATOM      3  N   UNL     1       2.331   1.447  -0.013  0.00  0.00    -0.255 NA
ATOM      4  C   UNL     1       2.400   0.121  -0.021  0.00  0.00    +0.074 A 
ATOM      5  C   UNL     1       1.243  -0.649  -0.013  0.00  0.00    +0.038 A 
ATOM      6  C   UNL     1       0.002  -0.004   0.002  0.00  0.00    +0.002 A 
ENDROOT
BRANCH   6   7
ATOM      7  C   UNL     1      -1.256  -0.780   0.010  0.00  0.00    +0.048 A 
ATOM      8  C   UNL     1      -1.353  -2.140   0.010  0.00  0.00    +0.041 A 
ATOM      9  C   UNL     1      -2.719  -2.448   0.020  0.00  0.00    +0.058 A 
ATOM     10  C   UNL     1      -3.417  -1.245   0.025  0.00  0.00    +0.030 A 
ATOM     11  N   UNL     1      -2.529  -0.250   0.026  0.00  0.00    -0.357 N 
ATOM     12  H   UNL     1      -2.743   0.696   0.034  0.00  0.00    +0.166 HD
ATOM     13  C   UNL     1      -4.925  -1.221   0.030  0.00  0.00    +0.072 C 
ATOM     14  C   UNL     1      -5.440  -2.478  -0.671  0.00  0.00    +0.110 C 
ATOM     15  N   UNL     1      -4.765  -3.691  -0.231  0.00  0.00    -0.311 N 
ATOM     16  C   UNL     1      -3.437  -3.735   0.028  0.00  0.00    +0.246 C 
ATOM     17  O   UNL     1      -2.865  -4.784   0.255  0.00  0.00    -0.270 OA
ATOM     18  H   UNL     1      -5.288  -4.500  -0.118  0.00  0.00    +0.149 HD
ENDBRANCH   6   7
BRANCH   4  19
ATOM     19  C   UNL     1       3.725  -0.545  -0.038  0.00  0.00    +0.037 A 
ATOM     20  C   UNL     1       3.828  -1.939  -0.052  0.00  0.00    +0.124 A 
ATOM     21  N   UNL     1       5.029  -2.492  -0.067  0.00  0.00    -0.243 NA
ATOM     22  C   UNL     1       6.117  -1.748  -0.069  0.00  0.00    +0.221 A 
ATOM     23  N   UNL     1       6.065  -0.431  -0.055  0.00  0.00    -0.243 NA
ATOM     24  C   UNL     1       4.905   0.203  -0.046  0.00  0.00    +0.124 A 
ENDBRANCH   4  19
TORSDOF 2
