REMARK  Name = CHEMBL361425
REMARK  3 active torsions:
REMARK  status: ('A' for Active; 'I' for Inactive)
REMARK    1  A    between atoms: C_6  and  O_7
REMARK    2  A    between atoms: C_12  and  C_17
REMARK    3  A    between atoms: C_13  and  N_16
REMARK                            x       y       z     vdW  Elec       q    Type
REMARK                         _______ _______ _______ _____ _____    ______ ____
ROOT
ATOM      1  C   UNL     1      -0.017   1.383   0.010  0.00  0.00    +0.046 A 
ATOM      2  C   UNL     1       1.170   2.088   0.002  0.00  0.00    +0.011 A 
ATOM      3  C   UNL     1       2.382   1.418  -0.013  0.00  0.00    -0.005 A 
ATOM      4  C   UNL     1       2.407   0.034  -0.019  0.00  0.00    +0.128 A 
ATOM      5  C   UNL     1       1.212  -0.677  -0.012  0.00  0.00    +0.091 A 
ATOM      6  C   UNL     1       0.002  -0.004   0.002  0.00  0.00    +0.120 A 
ATOM      7  O   UNL     1       3.574  -0.664  -0.027  0.00  0.00    -0.487 OA
ATOM      8  C   UNL     1       4.759   0.040  -0.406  0.00  0.00    +0.188 C 
ATOM      9  C   UNL     1       5.991  -0.816  -0.092  0.00  0.00    +0.101 C 
ATOM     10  C   UNL     1       7.212  -0.042  -0.547  0.00  0.00    +0.055 C 
ATOM     11  C   UNL     1       7.254   1.402  -0.257  0.00  0.00    +0.089 C 
ATOM     12  C   UNL     1       6.126   2.047   0.184  0.00  0.00    +0.028 C 
ATOM     13  C   UNL     1       4.825   1.337   0.405  0.00  0.00    +0.079 C 
ATOM     14  C   UNL     1       3.656   2.228  -0.023  0.00  0.00    +0.052 C 
ATOM     15  N   UNL     1       8.186  -0.631  -1.169  0.00  0.00    -0.303 NA
ATOM     16  H   UNL     1       8.960  -0.119  -1.453  0.00  0.00    +0.186 HD
ENDROOT
BRANCH  12  17
ATOM     17  N   UNL     1       6.191   3.383   0.430  0.00  0.00    -0.360 N 
ATOM     18  H   UNL     1       7.024   3.861   0.293  0.00  0.00    +0.142 HD
ATOM     19  H   UNL     1       5.405   3.857   0.742  0.00  0.00    +0.142 HD
ENDBRANCH  12  17
BRANCH   6  20
ATOM     20  O   UNL     1      -1.165  -0.701   0.009  0.00  0.00    -0.507 OA
ATOM     21  H   UNL     1      -1.510  -0.898  -0.873  0.00  0.00    +0.292 HD
ENDBRANCH   6  20
BRANCH  11  22
ATOM     22  C   UNL     1       8.473   2.132  -0.436  0.00  0.00    +0.102 C 
ATOM     23  N   UNL     1       9.440   2.711  -0.578  0.00  0.00    -0.191 NA
ENDBRANCH  11  22
TORSDOF 3
