REMARK  Name = CHEMBL256194
REMARK  9 active torsions:
REMARK  status: ('A' for Active; 'I' for Inactive)
REMARK    1  A    between atoms: C_1  and  C_2
REMARK    2  A    between atoms: C_11  and  C_16
REMARK    3  A    between atoms: C_21  and  C_24
REMARK    4  A    between atoms: N_26  and  C_27
REMARK    5  A    between atoms: N_30  and  C_33
REMARK    6  A    between atoms: C_33  and  C_34
REMARK    7  A    between atoms: C_34  and  C_35
REMARK    8  A    between atoms: C_34  and  C_36
REMARK    9  A    between atoms: C_34  and  C_37
REMARK                            x       y       z     vdW  Elec       q    Type
REMARK                         _______ _______ _______ _____ _____    ______ ____
ROOT
ATOM      1  C   UNL     1      -5.072  -6.207   5.404  0.00  0.00    +0.250 C 
ATOM      2  O   UNL     1      -6.188  -6.398   4.960  0.00  0.00    -0.270 OA
ATOM      3  N   UNL     1      -4.900  -5.985   6.722  0.00  0.00    -0.261 N 
ATOM      4  C   UNL     1      -5.996  -5.975   7.573  0.00  0.00    +0.165 A 
ATOM      5  N   UNL     1      -6.035  -5.773   8.875  0.00  0.00    -0.220 NA
ATOM      6  C   UNL     1      -7.222  -5.811   9.487  0.00  0.00    +0.135 A 
ATOM      7  C   UNL     1      -8.342  -6.056   8.743  0.00  0.00    +0.081 A 
ATOM      8  S   UNL     1      -7.720  -6.223   7.189  0.00  0.00    -0.060 S 
ATOM      9  H   UNL     1      -4.010  -5.832   7.076  0.00  0.00    +0.157 HD
ENDROOT
BRANCH   1  20
ATOM     10  C   UNL     1      -4.311  -5.593  -0.647  0.00  0.00    +0.032 C 
ATOM     11  C   UNL     1      -3.810  -6.913  -0.057  0.00  0.00    +0.102 C 
ATOM     12  C   UNL     1      -3.161  -7.751  -1.158  0.00  0.00    +0.129 C 
ATOM     13  N   UNL     1      -1.873  -7.218  -1.584  0.00  0.00    -0.308 N 
ATOM     14  C   UNL     1      -0.990  -6.688  -0.705  0.00  0.00    +0.261 C 
ATOM     15  O   UNL     1       0.132  -6.361  -1.042  0.00  0.00    -0.269 OA
ATOM     16  C   UNL     1      -1.462  -6.530   0.685  0.00  0.00    +0.106 A 
ATOM     17  N   UNL     1      -2.819  -6.638   0.988  0.00  0.00    -0.332 N 
ATOM     18  C   UNL     1      -2.978  -6.450   2.321  0.00  0.00    +0.051 A 
ATOM     19  C   UNL     1      -4.107  -6.449   3.136  0.00  0.00    +0.039 A 
ATOM     20  C   UNL     1      -3.905  -6.217   4.498  0.00  0.00    +0.039 A 
ATOM     21  C   UNL     1      -2.630  -5.995   5.031  0.00  0.00    +0.014 A 
ATOM     22  C   UNL     1      -1.509  -5.990   4.247  0.00  0.00    +0.011 A 
ATOM     23  C   UNL     1      -1.686  -6.221   2.873  0.00  0.00    +0.001 A 
ATOM     24  C   UNL     1      -0.764  -6.279   1.813  0.00  0.00    +0.041 A 
ATOM     25  H   UNL     1      -1.642  -7.243  -2.526  0.00  0.00    +0.149 HD
ENDBRANCH   1  20
BRANCH   6  26
ATOM     26  C   UNL     1      -7.322  -5.593  10.939  0.00  0.00    +0.263 C 
ATOM     27  O   UNL     1      -8.407  -5.630  11.487  0.00  0.00    -0.269 OA
ATOM     28  N   UNL     1      -6.210  -5.353  11.662  0.00  0.00    -0.307 N 
ATOM     29  H   UNL     1      -5.345  -5.323  11.226  0.00  0.00    +0.149 HD
BRANCH  28  30
ATOM     30  C   UNL     1      -6.309  -5.136  13.108  0.00  0.00    +0.070 C 
ATOM     31  C   UNL     1      -6.619  -3.662  13.385  0.00  0.00    +0.003 C 
ATOM     32  C   UNL     1      -6.643  -3.426  14.896  0.00  0.00    -0.077 C 
ATOM     33  N   UNL     1      -5.335  -3.769  15.469  0.00  0.00    +0.380 N 
ATOM     34  C   UNL     1      -5.063  -5.197  15.270  0.00  0.00    -0.077 C 
ATOM     35  C   UNL     1      -4.979  -5.501  13.773  0.00  0.00    +0.003 C 
ATOM     36  H   UNL     1      -4.617  -3.224  15.015  0.00  0.00    -0.082 HD
BRANCH  33  37
ATOM     37  C   UNL     1      -5.338  -3.468  16.907  0.00  0.00    -0.073 C 
BRANCH  37  38
ATOM     38  C   UNL     1      -4.971  -1.998  17.121  0.00  0.00    -0.052 C 
ATOM     39  C   UNL     1      -6.059  -1.108  16.515  0.00  0.00    +0.009 C 
ATOM     40  C   UNL     1      -4.856  -1.714  18.620  0.00  0.00    +0.009 C 
ATOM     41  C   UNL     1      -3.633  -1.702  16.441  0.00  0.00    +0.009 C 
ENDBRANCH  37  38
ENDBRANCH  33  37
ENDBRANCH  28  30
ENDBRANCH   6  26
TORSDOF 5
