REMARK  Name = CHEMBL181069
REMARK  2 active torsions:
REMARK  status: ('A' for Active; 'I' for Inactive)
REMARK    1  A    between atoms: C_15  and  C_20
REMARK    2  A    between atoms: C_16  and  N_19
REMARK                            x       y       z     vdW  Elec       q    Type
REMARK                         _______ _______ _______ _____ _____    ______ ____
ROOT
ATOM      1  C   UNL     1       0.070   1.217   0.145  0.00  0.00    +0.056 A 
ATOM      2  C   UNL     1       1.231   1.972   0.102  0.00  0.00    -0.001 A 
ATOM      3  C   UNL     1       2.463   1.344   0.119  0.00  0.00    +0.128 A 
ATOM      4  C   UNL     1       2.529  -0.044   0.164  0.00  0.00    +0.095 A 
ATOM      5  C   UNL     1       1.369  -0.799   0.202  0.00  0.00    +0.166 A 
ATOM      6  C   UNL     1       0.133  -0.165   0.199  0.00  0.00    +0.163 A 
ATOM      7  O   UNL     1      -1.021  -0.887   0.252  0.00  0.00    -0.485 OA
ATOM      8  C   UNL     1      -0.925  -2.276  -0.080  0.00  0.00    +0.270 C 
ATOM      9  C   UNL     1       0.283  -2.865   0.659  0.00  0.00    +0.270 C 
ATOM     10  O   UNL     1       1.455  -2.157   0.240  0.00  0.00    -0.485 OA
ATOM     11  O   UNL     1       3.623   2.047   0.107  0.00  0.00    -0.487 OA
ATOM     12  C   UNL     1       3.599   3.416  -0.308  0.00  0.00    +0.192 C 
ATOM     13  C   UNL     1       4.891   4.062   0.174  0.00  0.00    +0.090 C 
ATOM     14  C   UNL     1       5.097   4.027   1.637  0.00  0.00    +0.036 C 
ATOM     15  C   UNL     1       3.876   4.155   2.474  0.00  0.00    +0.088 C 
ATOM     16  C   UNL     1       2.640   4.182   1.878  0.00  0.00    +0.028 C 
ATOM     17  C   UNL     1       2.443   4.126   0.400  0.00  0.00    +0.080 C 
ATOM     18  C   UNL     1       1.119   3.473   0.029  0.00  0.00    +0.052 C 
ATOM     19  N   UNL     1       6.288   3.892   2.166  0.00  0.00    -0.400 N 
ATOM     20  H   UNL     1       7.067   3.812   1.593  0.00  0.00    +0.156 HD
ATOM     21  H   UNL     1       6.391   3.873   3.130  0.00  0.00    +0.156 HD
ENDROOT
BRANCH  16  22
ATOM     22  N   UNL     1       1.540   4.264   2.675  0.00  0.00    -0.360 N 
ATOM     23  H   UNL     1       1.631   4.183   3.637  0.00  0.00    +0.142 HD
ATOM     24  H   UNL     1       0.665   4.404   2.280  0.00  0.00    +0.142 HD
ENDBRANCH  16  22
BRANCH  15  25
ATOM     25  C   UNL     1       3.989   4.249   3.898  0.00  0.00    +0.102 C 
ATOM     26  N   UNL     1       4.078   4.324   5.029  0.00  0.00    -0.191 NA
ENDBRANCH  15  25
TORSDOF 2
