REMARK  Name = CHEMBL272309
REMARK  4 active torsions:
REMARK  status: ('A' for Active; 'I' for Inactive)
REMARK    1  A    between atoms: C_3  and  N_7
REMARK    2  A    between atoms: C_8  and  C_10
REMARK    3  A    between atoms: C_20  and  C_25
REMARK    4  A    between atoms: C_25  and  N_26
REMARK                            x       y       z     vdW  Elec       q    Type
REMARK                         _______ _______ _______ _____ _____    ______ ____
ROOT
ATOM      1  C   UNL     1       6.045   1.977   0.167  0.00  0.00    +0.039 A 
ATOM      2  C   UNL     1       6.088   3.379   0.179  0.00  0.00    +0.014 A 
ATOM      3  C   UNL     1       7.278   4.032   0.272  0.00  0.00    +0.011 A 
ATOM      4  C   UNL     1       8.474   3.304   0.355  0.00  0.00    +0.001 A 
ATOM      5  C   UNL     1       9.835   3.688   0.455  0.00  0.00    +0.041 A 
ATOM      6  C   UNL     1      10.570   2.558   0.499  0.00  0.00    +0.105 A 
ATOM      7  N   UNL     1       9.739   1.454   0.436  0.00  0.00    -0.336 N 
ATOM      8  C   UNL     1       8.442   1.893   0.345  0.00  0.00    +0.050 A 
ATOM      9  C   UNL     1       7.220   1.238   0.257  0.00  0.00    +0.039 A 
ATOM     10  C   UNL     1      10.221   0.073   0.461  0.00  0.00    +0.125 C 
ATOM     11  C   UNL     1      10.917  -0.259  -0.865  0.00  0.00    +0.008 C 
ATOM     12  C   UNL     1      11.799   0.913  -1.294  0.00  0.00    +0.108 C 
ATOM     13  N   UNL     1      12.590   1.469  -0.207  0.00  0.00    -0.310 N 
ATOM     14  C   UNL     1      12.042   2.410   0.601  0.00  0.00    +0.261 C 
ATOM     15  O   UNL     1      12.712   3.086   1.357  0.00  0.00    -0.269 OA
ATOM     16  H   UNL     1      13.501   1.169  -0.061  0.00  0.00    +0.149 HD
ENDROOT
BRANCH   1  18
ATOM     17  N   UNL     1       3.605   1.995  -0.022  0.00  0.00    -0.280 N 
ATOM     18  C   UNL     1       4.745   1.282   0.065  0.00  0.00    +0.248 C 
ATOM     19  O   UNL     1       4.704   0.067   0.059  0.00  0.00    -0.270 OA
ATOM     20  H   UNL     1       3.642   2.962  -0.095  0.00  0.00    +0.155 HD
BRANCH  17  23
ATOM     21  C   UNL     1       0.953  -0.440   0.711  0.00  0.00    +0.021 A 
ATOM     22  C   UNL     1       2.197   0.171   0.727  0.00  0.00    +0.026 A 
ATOM     23  C   UNL     1       2.368   1.341  -0.007  0.00  0.00    +0.052 A 
ATOM     24  C   UNL     1       1.294   1.850  -0.725  0.00  0.00    +0.134 A 
ATOM     25  N   UNL     1       0.127   1.237  -0.714  0.00  0.00    -0.261 NA
ATOM     26  C   UNL     1      -0.068   0.128  -0.028  0.00  0.00    +0.111 A 
ENDBRANCH  17  23
ENDBRANCH   1  18
BRANCH  11  27
ATOM     27  C   UNL     1       9.862  -0.521  -1.942  0.00  0.00    -0.080 C 
BRANCH  27  28
ATOM     28  N   UNL     1      10.523  -0.955  -3.180  0.00  0.00    +0.378 N 
ATOM     29  H   UNL     1      11.153  -0.233  -3.495  0.00  0.00    -0.090 HD
ATOM     30  H   UNL     1      11.043  -1.802  -3.004  0.00  0.00    -0.090 HD
ATOM     31  H   UNL     1       9.827  -1.129  -3.889  0.00  0.00    -0.090 HD
ENDBRANCH  27  28
ENDBRANCH  11  27
TORSDOF 4
