REMARK  Name = CHEMBL178413
REMARK  4 active torsions:
REMARK  status: ('A' for Active; 'I' for Inactive)
REMARK    1  A    between atoms: C_5  and  C_8
REMARK    2  A    between atoms: C_6  and  O_7
REMARK    3  A    between atoms: C_18  and  C_23
REMARK    4  A    between atoms: C_19  and  N_22
REMARK                            x       y       z     vdW  Elec       q    Type
REMARK                         _______ _______ _______ _____ _____    ______ ____
ROOT
ATOM      1  C   UNL     1      -0.017   1.381   0.010  0.00  0.00    +0.053 A 
ATOM      2  C   UNL     1       1.170   2.096   0.002  0.00  0.00    -0.002 A 
ATOM      3  C   UNL     1       2.378   1.423  -0.007  0.00  0.00    +0.125 A 
ATOM      4  C   UNL     1       2.396   0.032  -0.022  0.00  0.00    +0.055 A 
ATOM      5  C   UNL     1       1.214  -0.679  -0.016  0.00  0.00    +0.028 A 
ATOM      6  C   UNL     1       0.002  -0.004   0.002  0.00  0.00    +0.123 A 
ATOM      7  O   UNL     1       3.560   2.089   0.013  0.00  0.00    -0.487 OA
ATOM      8  C   UNL     1       3.583   3.477  -0.259  0.00  0.00    +0.192 C 
ATOM      9  C   UNL     1       3.470   3.760  -1.741  0.00  0.00    +0.090 C 
ATOM     10  C   UNL     1       3.510   5.196  -2.098  0.00  0.00    +0.036 C 
ATOM     11  C   UNL     1       2.921   6.127  -1.101  0.00  0.00    +0.088 C 
ATOM     12  C   UNL     1       2.446   5.659   0.094  0.00  0.00    +0.028 C 
ATOM     13  C   UNL     1       2.443   4.198   0.462  0.00  0.00    +0.080 C 
ATOM     14  C   UNL     1       1.109   3.599  -0.002  0.00  0.00    +0.052 C 
ATOM     15  N   UNL     1       4.032   5.619  -3.222  0.00  0.00    -0.400 N 
ATOM     16  H   UNL     1       4.409   4.984  -3.852  0.00  0.00    +0.156 HD
ATOM     17  H   UNL     1       4.043   6.567  -3.426  0.00  0.00    +0.156 HD
ENDROOT
BRANCH   5  18
ATOM     18  C   UNL     1       1.239  -2.186  -0.029  0.00  0.00    +0.177 C 
ATOM     19  C   UNL     1       1.115  -2.687  -1.471  0.00  0.00    +0.196 C 
ATOM     20  O   UNL     1       1.251  -4.111  -1.486  0.00  0.00    -0.375 OA
ATOM     21  C   UNL     1       2.487  -4.574  -0.933  0.00  0.00    +0.188 C 
ATOM     22  C   UNL     1       2.611  -4.073   0.509  0.00  0.00    +0.188 C 
ATOM     23  O   UNL     1       2.475  -2.648   0.524  0.00  0.00    -0.367 OA
ENDBRANCH   5  18
BRANCH  12  24
ATOM     24  N   UNL     1       1.955   6.555   0.993  0.00  0.00    -0.360 N 
ATOM     25  H   UNL     1       1.947   7.501   0.779  0.00  0.00    +0.142 HD
ATOM     26  H   UNL     1       1.613   6.248   1.847  0.00  0.00    +0.142 HD
ENDBRANCH  12  24
BRANCH   6  27
ATOM     27  O   UNL     1      -1.165  -0.701   0.013  0.00  0.00    -0.506 OA
ATOM     28  H   UNL     1      -1.514  -0.898  -0.868  0.00  0.00    +0.292 HD
ENDBRANCH   6  27
BRANCH  11  29
ATOM     29  C   UNL     1       2.849   7.527  -1.394  0.00  0.00    +0.102 C 
ATOM     30  N   UNL     1       2.792   8.637  -1.627  0.00  0.00    -0.191 NA
ENDBRANCH  11  29
TORSDOF 4
