REMARK  Name = CHEMBL1089865
REMARK  6 active torsions:
REMARK  status: ('A' for Active; 'I' for Inactive)
REMARK    1  A    between atoms: C_1  and  C_2
REMARK    2  A    between atoms: C_5  and  C_27
REMARK    3  A    between atoms: C_7  and  C_8
REMARK    4  A    between atoms: N_13  and  C_19
REMARK    5  A    between atoms: N_15  and  C_18
REMARK    6  A    between atoms: N_29  and  C_30
REMARK                            x       y       z     vdW  Elec       q    Type
REMARK                         _______ _______ _______ _____ _____    ______ ____
ROOT
ATOM      1  C   UNL     1       0.986  -1.169   3.670  0.00  0.00    +0.048 A 
ATOM      2  C   UNL     1       1.615   0.046   3.486  0.00  0.00    +0.027 A 
ATOM      3  C   UNL     1       1.183   1.159   4.237  0.00  0.00    +0.038 A 
ATOM      4  C   UNL     1       1.598   2.511   4.293  0.00  0.00    +0.145 A 
ATOM      5  N   UNL     1       0.857   3.131   5.168  0.00  0.00    -0.172 NA
ATOM      6  N   UNL     1      -0.064   2.231   5.719  0.00  0.00    -0.210 N 
ATOM      7  C   UNL     1       0.133   1.014   5.148  0.00  0.00    +0.147 A 
ATOM      8  N   UNL     1      -0.474  -0.202   5.312  0.00  0.00    -0.295 N 
ATOM      9  C   UNL     1      -0.078  -1.273   4.599  0.00  0.00    +0.260 A 
ATOM     10  O   UNL     1      -0.638  -2.345   4.759  0.00  0.00    -0.267 OA
ATOM     11  C   UNL     1      -1.574  -0.338   6.271  0.00  0.00    +0.154 C 
ENDROOT
BRANCH   6  12
ATOM     12  C   UNL     1      -1.026   2.535   6.694  0.00  0.00    +0.138 A 
ATOM     13  C   UNL     1      -0.679   2.530   8.040  0.00  0.00    +0.152 A 
ATOM     14  C   UNL     1      -1.631   2.830   8.998  0.00  0.00    +0.041 A 
ATOM     15  C   UNL     1      -2.925   3.135   8.618  0.00  0.00    +0.006 A 
ATOM     16  C   UNL     1      -3.273   3.142   7.280  0.00  0.00    +0.041 A 
ATOM     17  C   UNL     1      -2.326   2.849   6.316  0.00  0.00    +0.152 A 
ATOM     18  F   UNL     1      -2.666   2.861   5.008  0.00  0.00    -0.203 F 
ATOM     19  F   UNL     1       0.585   2.231   8.412  0.00  0.00    -0.203 F 
ENDBRANCH   6  12
BRANCH   1  26
ATOM     20  C   UNL     1       0.273  -1.388   0.878  0.00  0.00    +0.044 C 
ATOM     21  C   UNL     1       1.078  -2.472   1.546  0.00  0.00    -0.043 A 
ATOM     22  C   UNL     1       1.484  -3.575   0.820  0.00  0.00    +0.005 A 
ATOM     23  C   UNL     1       2.222  -4.573   1.425  0.00  0.00    +0.013 A 
ATOM     24  C   UNL     1       2.563  -4.472   2.775  0.00  0.00    +0.037 A 
ATOM     25  C   UNL     1       2.157  -3.362   3.512  0.00  0.00    +0.022 A 
ATOM     26  C   UNL     1       1.417  -2.357   2.894  0.00  0.00    -0.009 A 
BRANCH  24  27
ATOM     27  C   UNL     1       3.354  -5.542   3.421  0.00  0.00    +0.244 C 
ATOM     28  O   UNL     1       3.650  -5.453   4.597  0.00  0.00    -0.270 OA
ATOM     29  N   UNL     1       3.745  -6.616   2.707  0.00  0.00    -0.308 N 
ATOM     30  H   UNL     1       3.509  -6.687   1.769  0.00  0.00    +0.149 HD
BRANCH  29  31
ATOM     31  C   UNL     1       4.528  -7.676   3.348  0.00  0.00    +0.073 C 
ATOM     32  C   UNL     1       5.723  -8.237   2.575  0.00  0.00    +0.024 C 
ATOM     33  C   UNL     1       4.454  -9.076   2.737  0.00  0.00    +0.024 C 
ENDBRANCH  29  31
ENDBRANCH  24  27
ENDBRANCH   1  26
TORSDOF 4
