REMARK  Name = CHEMBL610780
REMARK  4 active torsions:
REMARK  status: ('A' for Active; 'I' for Inactive)
REMARK    1  A    between atoms: C_1  and  O_2
REMARK    2  A    between atoms: O_2  and  C_3
REMARK    3  A    between atoms: C_6  and  N_9
REMARK    4  A    between atoms: C_11  and  C_15
REMARK                            x       y       z     vdW  Elec       q    Type
REMARK                         _______ _______ _______ _____ _____    ______ ____
ROOT
ATOM      1  N   UNL     1      -4.891  -2.581   0.034  0.00  0.00    -0.237 N 
ATOM      2  C   UNL     1      -5.080  -3.919   0.039  0.00  0.00    +0.125 A 
ATOM      3  C   UNL     1      -6.425  -4.147   0.046  0.00  0.00    +0.041 A 
ATOM      4  C   UNL     1      -7.070  -2.889   0.046  0.00  0.00    +0.146 A 
ATOM      5  N   UNL     1      -6.145  -1.959   0.045  0.00  0.00    -0.151 NA
ATOM      6  N   UNL     1      -8.451  -2.673   0.052  0.00  0.00    -0.341 N 
ATOM      7  H   UNL     1      -9.059  -3.428   0.057  0.00  0.00    +0.144 HD
ATOM      8  H   UNL     1      -8.800  -1.768   0.051  0.00  0.00    +0.144 HD
ENDROOT
BRANCH   3   9
ATOM      9  C   UNL     1      -7.090  -5.474   0.053  0.00  0.00    -0.012 A 
ATOM     10  C   UNL     1      -6.709  -6.450  -0.868  0.00  0.00    +0.009 A 
ATOM     11  C   UNL     1      -7.325  -7.687  -0.867  0.00  0.00    +0.005 A 
ATOM     12  C   UNL     1      -8.320  -7.964   0.046  0.00  0.00    -0.034 A 
ATOM     13  C   UNL     1      -8.708  -6.993   0.975  0.00  0.00    +0.040 A 
ATOM     14  C   UNL     1      -8.089  -5.748   0.982  0.00  0.00    +0.022 A 
ATOM     15  C   UNL     1      -9.777  -7.321   1.943  0.00  0.00    +0.244 C 
ATOM     16  O   UNL     1     -10.360  -6.437   2.539  0.00  0.00    -0.270 OA
ATOM     17  N   UNL     1     -10.094  -8.614   2.157  0.00  0.00    -0.311 N 
ATOM     18  C   UNL     1      -9.364  -9.691   1.493  0.00  0.00    +0.109 C 
ATOM     19  C   UNL     1      -9.002  -9.307   0.061  0.00  0.00    +0.054 C 
ATOM     20  H   UNL     1     -10.820  -8.833   2.761  0.00  0.00    +0.149 HD
ENDBRANCH   3   9
BRANCH   1  24
ATOM     21  C   UNL     1      -1.201  -0.638   0.010  0.00  0.00    +0.120 A 
ATOM     22  C   UNL     1      -2.374   0.102   0.019  0.00  0.00    +0.048 A 
ATOM     23  C   UNL     1      -3.596  -0.540   0.027  0.00  0.00    +0.031 A 
ATOM     24  C   UNL     1      -3.650  -1.928   0.026  0.00  0.00    +0.066 A 
ATOM     25  C   UNL     1      -2.475  -2.668   0.016  0.00  0.00    +0.031 A 
ATOM     26  C   UNL     1      -1.254  -2.024   0.003  0.00  0.00    +0.048 A 
BRANCH  21  28
ATOM     27  C   UNL     1      -0.017   1.425   0.010  0.00  0.00    +0.277 C 
ATOM     28  O   UNL     1       0.002  -0.004   0.002  0.00  0.00    -0.495 OA
ENDBRANCH  21  28
ENDBRANCH   1  24
TORSDOF 3
