REMARK  Name = CHEMBL258045
REMARK  4 active torsions:
REMARK  status: ('A' for Active; 'I' for Inactive)
REMARK    1  A    between atoms: C_1  and  N_2
REMARK    2  A    between atoms: C_5  and  N_8
REMARK    3  A    between atoms: C_9  and  C_11
REMARK    4  A    between atoms: C_17  and  C_19
REMARK                            x       y       z     vdW  Elec       q    Type
REMARK                         _______ _______ _______ _____ _____    ______ ____
ROOT
ATOM      1  C   UNL     1      -0.292  -6.290   1.982  0.00  0.00    +0.135 A 
ATOM      2  C   UNL     1      -0.149  -7.070   3.094  0.00  0.00    +0.081 A 
ATOM      3  S   UNL     1      -0.105  -8.624   2.448  0.00  0.00    -0.060 S 
ATOM      4  C   UNL     1      -0.277  -8.191   0.726  0.00  0.00    +0.165 A 
ATOM      5  N   UNL     1      -0.361  -6.878   0.784  0.00  0.00    -0.220 NA
ATOM      6  N   UNL     1      -0.317  -9.023  -0.385  0.00  0.00    -0.261 N 
ATOM      7  C   UNL     1      -0.219 -10.358  -0.231  0.00  0.00    +0.250 C 
ATOM      8  O   UNL     1      -0.096 -10.835   0.881  0.00  0.00    -0.270 OA
ATOM      9  H   UNL     1      -0.415  -8.643  -1.272  0.00  0.00    +0.157 HD
ENDROOT
BRANCH   7  10
ATOM     10  C   UNL     1      -0.262 -11.243  -1.413  0.00  0.00    +0.039 A 
ATOM     11  C   UNL     1      -0.399 -10.672  -2.683  0.00  0.00    +0.014 A 
ATOM     12  C   UNL     1      -0.445 -11.435  -3.818  0.00  0.00    +0.011 A 
ATOM     13  C   UNL     1      -0.348 -12.827  -3.659  0.00  0.00    +0.001 A 
ATOM     14  C   UNL     1      -0.359 -13.873  -4.599  0.00  0.00    +0.041 A 
ATOM     15  C   UNL     1      -0.244 -15.031  -3.917  0.00  0.00    +0.106 A 
ATOM     16  N   UNL     1      -0.141 -14.759  -2.550  0.00  0.00    -0.329 N 
ATOM     17  C   UNL     1      -0.209 -13.419  -2.373  0.00  0.00    +0.051 A 
ATOM     18  C   UNL     1      -0.159 -12.624  -1.230  0.00  0.00    +0.039 A 
ATOM     19  C   UNL     1       0.019 -15.849  -1.586  0.00  0.00    +0.062 C 
ATOM     20  C   UNL     1      -0.409 -15.477  -0.161  0.00  0.00    +0.030 C 
ATOM     21  C   UNL     1       1.040 -15.011   0.065  0.00  0.00    +0.005 C 
ATOM     22  C   UNL     1       1.448 -15.991  -1.049  0.00  0.00    +0.030 C 
ATOM     23  C   UNL     1      -0.584 -17.157  -2.087  0.00  0.00    +0.133 C 
ATOM     24  N   UNL     1      -0.261 -17.410  -3.488  0.00  0.00    -0.308 N 
ATOM     25  C   UNL     1      -0.202 -16.422  -4.407  0.00  0.00    +0.261 C 
ATOM     26  O   UNL     1      -0.117 -16.670  -5.595  0.00  0.00    -0.269 OA
ATOM     27  H   UNL     1      -0.082 -18.321  -3.769  0.00  0.00    +0.149 HD
ENDBRANCH   7  10
BRANCH   1  29
ATOM     28  N   UNL     1      -0.522  -4.066   0.997  0.00  0.00    -0.307 N 
ATOM     29  C   UNL     1      -0.376  -4.825   2.101  0.00  0.00    +0.263 C 
ATOM     30  O   UNL     1      -0.313  -4.300   3.197  0.00  0.00    -0.269 OA
ATOM     31  H   UNL     1      -0.572  -4.485   0.124  0.00  0.00    +0.149 HD
BRANCH  28  36
ATOM     32  C   UNL     1      -0.018   1.465   0.010  0.00  0.00    -0.096 C 
ATOM     33  N   UNL     1       0.002  -0.004   0.002  0.00  0.00    +0.378 N 
ATOM     34  C   UNL     1      -1.376  -0.511   0.004  0.00  0.00    -0.077 C 
ATOM     35  C   UNL     1      -1.361  -2.038  -0.087  0.00  0.00    +0.003 C 
ATOM     36  C   UNL     1      -0.605  -2.608   1.117  0.00  0.00    +0.070 C 
ATOM     37  C   UNL     1       0.807  -2.015   1.147  0.00  0.00    +0.003 C 
ATOM     38  C   UNL     1       0.712  -0.489   1.192  0.00  0.00    -0.077 C 
ATOM     39  H   UNL     1       0.477  -0.328  -0.827  0.00  0.00    -0.082 HD
ENDBRANCH  28  36
ENDBRANCH   1  29
TORSDOF 3
