REMARK  Name = CHEMBL181212
REMARK  4 active torsions:
REMARK  status: ('A' for Active; 'I' for Inactive)
REMARK    1  A    between atoms: C_5  and  O_8
REMARK    2  A    between atoms: C_6  and  O_7
REMARK    3  A    between atoms: C_13  and  C_18
REMARK    4  A    between atoms: C_14  and  N_17
REMARK                            x       y       z     vdW  Elec       q    Type
REMARK                         _______ _______ _______ _____ _____    ______ ____
ROOT
ATOM      1  C   UNL     1       0.069   1.218   0.143  0.00  0.00    +0.056 A 
ATOM      2  C   UNL     1       1.232   1.970   0.100  0.00  0.00    -0.001 A 
ATOM      3  C   UNL     1       2.464   1.341   0.114  0.00  0.00    +0.128 A 
ATOM      4  C   UNL     1       2.529  -0.048   0.161  0.00  0.00    +0.095 A 
ATOM      5  C   UNL     1       1.369  -0.800   0.202  0.00  0.00    +0.162 A 
ATOM      6  C   UNL     1       0.131  -0.163   0.195  0.00  0.00    +0.159 A 
ATOM      7  O   UNL     1       3.625   2.043   0.100  0.00  0.00    -0.487 OA
ATOM      8  C   UNL     1       3.600   3.412  -0.312  0.00  0.00    +0.192 C 
ATOM      9  C   UNL     1       4.895   4.056   0.169  0.00  0.00    +0.090 C 
ATOM     10  C   UNL     1       5.105   4.016   1.631  0.00  0.00    +0.036 C 
ATOM     11  C   UNL     1       3.886   4.139   2.472  0.00  0.00    +0.088 C 
ATOM     12  C   UNL     1       2.649   4.170   1.880  0.00  0.00    +0.028 C 
ATOM     13  C   UNL     1       2.448   4.121   0.402  0.00  0.00    +0.080 C 
ATOM     14  C   UNL     1       1.123   3.471   0.030  0.00  0.00    +0.052 C 
ATOM     15  N   UNL     1       6.298   3.879   2.155  0.00  0.00    -0.400 N 
ATOM     16  H   UNL     1       7.075   3.800   1.580  0.00  0.00    +0.156 HD
ATOM     17  H   UNL     1       6.404   3.856   3.119  0.00  0.00    +0.156 HD
ENDROOT
BRANCH  12  18
ATOM     18  N   UNL     1       1.551   4.248   2.680  0.00  0.00    -0.360 N 
ATOM     19  H   UNL     1       1.645   4.163   3.642  0.00  0.00    +0.142 HD
ATOM     20  H   UNL     1       0.675   4.389   2.288  0.00  0.00    +0.142 HD
ENDBRANCH  12  18
BRANCH   6  21
ATOM     21  O   UNL     1      -1.014  -0.897   0.239  0.00  0.00    -0.503 OA
ATOM     22  H   UNL     1      -1.357  -1.143  -0.630  0.00  0.00    +0.292 HD
ENDBRANCH   6  21
BRANCH   5  23
ATOM     23  O   UNL     1       1.438  -2.157   0.248  0.00  0.00    -0.503 OA
ATOM     24  H   UNL     1       1.469  -2.519   1.144  0.00  0.00    +0.292 HD
ENDBRANCH   5  23
BRANCH  11  25
ATOM     25  C   UNL     1       4.003   4.226   3.896  0.00  0.00    +0.102 C 
ATOM     26  N   UNL     1       4.096   4.295   5.027  0.00  0.00    -0.191 NA
ENDBRANCH  11  25
TORSDOF 4
