REMARK  Name = CHEMBL403154
REMARK  10 active torsions:
REMARK  status: ('A' for Active; 'I' for Inactive)
REMARK    1  A    between atoms: C_1  and  C_2
REMARK    2  A    between atoms: C_2  and  C_38
REMARK    3  A    between atoms: C_11  and  C_16
REMARK    4  A    between atoms: C_21  and  C_24
REMARK    5  A    between atoms: N_26  and  C_27
REMARK    6  A    between atoms: N_30  and  C_33
REMARK    7  A    between atoms: C_33  and  C_34
REMARK    8  A    between atoms: C_34  and  C_35
REMARK    9  A    between atoms: C_34  and  C_36
REMARK   10  A    between atoms: C_34  and  C_37
REMARK                            x       y       z     vdW  Elec       q    Type
REMARK                         _______ _______ _______ _____ _____    ______ ____
ROOT
ATOM      1  C   UNL     1      -3.542   1.966   8.674  0.00  0.00    +0.250 C 
ATOM      2  O   UNL     1      -4.471   2.691   8.373  0.00  0.00    -0.270 OA
ATOM      3  N   UNL     1      -2.637   2.372   9.586  0.00  0.00    -0.261 N 
ATOM      4  C   UNL     1      -2.766   3.619  10.183  0.00  0.00    +0.165 A 
ATOM      5  N   UNL     1      -1.992   4.192  11.082  0.00  0.00    -0.220 NA
ATOM      6  C   UNL     1      -2.320   5.413  11.515  0.00  0.00    +0.135 A 
ATOM      7  C   UNL     1      -3.439   6.015  11.011  0.00  0.00    +0.081 A 
ATOM      8  S   UNL     1      -4.017   4.864   9.928  0.00  0.00    -0.060 S 
ATOM      9  H   UNL     1      -1.897   1.794   9.826  0.00  0.00    +0.157 HD
ENDROOT
BRANCH   1  20
ATOM     10  C   UNL     1      -6.209   0.184   4.742  0.00  0.00    +0.036 C 
ATOM     11  C   UNL     1      -6.143  -1.336   4.902  0.00  0.00    +0.056 C 
ATOM     12  C   UNL     1      -6.159  -1.996   3.524  0.00  0.00    +0.132 C 
ATOM     13  N   UNL     1      -5.816  -3.412   3.579  0.00  0.00    -0.308 N 
ATOM     14  C   UNL     1      -4.828  -3.876   4.380  0.00  0.00    +0.261 C 
ATOM     15  O   UNL     1      -4.420  -5.019   4.297  0.00  0.00    -0.269 OA
ATOM     16  C   UNL     1      -4.271  -2.922   5.360  0.00  0.00    +0.106 A 
ATOM     17  N   UNL     1      -4.904  -1.702   5.598  0.00  0.00    -0.329 N 
ATOM     18  C   UNL     1      -4.185  -1.019   6.522  0.00  0.00    +0.051 A 
ATOM     19  C   UNL     1      -4.355   0.239   7.095  0.00  0.00    +0.039 A 
ATOM     20  C   UNL     1      -3.406   0.639   8.038  0.00  0.00    +0.039 A 
ATOM     21  C   UNL     1      -2.329  -0.179   8.399  0.00  0.00    +0.014 A 
ATOM     22  C   UNL     1      -2.144  -1.417   7.848  0.00  0.00    +0.011 A 
ATOM     23  C   UNL     1      -3.084  -1.841   6.895  0.00  0.00    +0.001 A 
ATOM     24  C   UNL     1      -3.182  -3.029   6.149  0.00  0.00    +0.041 A 
ATOM     25  C   UNL     1      -7.347  -1.817   5.715  0.00  0.00    +0.036 C 
ATOM     26  H   UNL     1      -6.309  -4.039   3.027  0.00  0.00    +0.149 HD
ENDBRANCH   1  20
BRANCH   6  27
ATOM     27  C   UNL     1      -1.490   6.098  12.519  0.00  0.00    +0.263 C 
ATOM     28  O   UNL     1      -1.799   7.210  12.907  0.00  0.00    -0.269 OA
ATOM     29  N   UNL     1      -0.389   5.495  13.009  0.00  0.00    -0.307 N 
ATOM     30  H   UNL     1      -0.144   4.609  12.700  0.00  0.00    +0.149 HD
BRANCH  29  31
ATOM     31  C   UNL     1       0.437   6.178  14.008  0.00  0.00    +0.070 C 
ATOM     32  C   UNL     1       1.442   7.093  13.303  0.00  0.00    +0.003 C 
ATOM     33  C   UNL     1       2.353   7.741  14.348  0.00  0.00    -0.077 C 
ATOM     34  N   UNL     1       3.074   6.698  15.089  0.00  0.00    +0.380 N 
ATOM     35  C   UNL     1       2.119   5.861  15.825  0.00  0.00    -0.077 C 
ATOM     36  C   UNL     1       1.199   5.140  14.837  0.00  0.00    +0.003 C 
ATOM     37  H   UNL     1       3.593   6.125  14.441  0.00  0.00    -0.082 HD
BRANCH  34  38
ATOM     38  C   UNL     1       4.004   7.327  16.036  0.00  0.00    -0.073 C 
BRANCH  38  39
ATOM     39  C   UNL     1       5.211   7.879  15.275  0.00  0.00    -0.052 C 
ATOM     40  C   UNL     1       4.808   9.159  14.539  0.00  0.00    +0.009 C 
ATOM     41  C   UNL     1       6.337   8.192  16.263  0.00  0.00    +0.009 C 
ATOM     42  C   UNL     1       5.695   6.839  14.262  0.00  0.00    +0.009 C 
ENDBRANCH  38  39
ENDBRANCH  34  38
ENDBRANCH  29  31
ENDBRANCH   6  27
TORSDOF 5
