REMARK  Name = CHEMBL603694
REMARK  4 active torsions:
REMARK  status: ('A' for Active; 'I' for Inactive)
REMARK    1  A    between atoms: C_3  and  C_24
REMARK    2  A    between atoms: C_5  and  N_7
REMARK    3  A    between atoms: C_9  and  C_13
REMARK    4  A    between atoms: C_28  and  O_30
REMARK                            x       y       z     vdW  Elec       q    Type
REMARK                         _______ _______ _______ _____ _____    ______ ____
ROOT
ATOM      1  N   UNL     1       1.228  -2.087  -0.021  0.00  0.00    -0.237 N 
ATOM      2  C   UNL     1       0.142  -2.888  -0.020  0.00  0.00    +0.125 A 
ATOM      3  C   UNL     1       0.581  -4.181  -0.029  0.00  0.00    +0.041 A 
ATOM      4  C   UNL     1       1.996  -4.150  -0.036  0.00  0.00    +0.146 A 
ATOM      5  N   UNL     1       2.372  -2.894  -0.037  0.00  0.00    -0.151 NA
ATOM      6  N   UNL     1       2.843  -5.260  -0.045  0.00  0.00    -0.341 N 
ATOM      7  H   UNL     1       2.469  -6.155  -0.048  0.00  0.00    +0.144 HD
ATOM      8  H   UNL     1       3.805  -5.137  -0.050  0.00  0.00    +0.144 HD
ENDROOT
BRANCH   3   9
ATOM      9  C   UNL     1      -0.269  -5.395  -0.031  0.00  0.00    -0.013 A 
ATOM     10  C   UNL     1      -1.304  -5.522   0.897  0.00  0.00    +0.009 A 
ATOM     11  C   UNL     1      -2.091  -6.640   0.901  0.00  0.00    +0.014 A 
ATOM     12  C   UNL     1      -1.859  -7.655  -0.026  0.00  0.00    +0.040 A 
ATOM     13  C   UNL     1      -0.823  -7.533  -0.960  0.00  0.00    -0.033 A 
ATOM     14  C   UNL     1      -0.036  -6.407  -0.965  0.00  0.00    +0.013 A 
ATOM     15  C   UNL     1      -0.594  -8.642  -1.952  0.00  0.00    +0.054 C 
ATOM     16  C   UNL     1      -0.918  -9.989  -1.310  0.00  0.00    +0.109 C 
ATOM     17  N   UNL     1      -2.238  -9.970  -0.687  0.00  0.00    -0.311 N 
ATOM     18  C   UNL     1      -2.692  -8.875  -0.045  0.00  0.00    +0.244 C 
ATOM     19  O   UNL     1      -3.772  -8.891   0.512  0.00  0.00    -0.270 OA
ATOM     20  H   UNL     1      -2.800 -10.759  -0.736  0.00  0.00    +0.149 HD
ENDBRANCH   3   9
BRANCH   1  25
ATOM     21  C   UNL     1      -0.017   1.377   0.010  0.00  0.00    +0.003 A 
ATOM     22  C   UNL     1       1.167   2.088   0.002  0.00  0.00    +0.008 A 
ATOM     23  C   UNL     1       2.386   1.412  -0.014  0.00  0.00    -0.016 A 
ATOM     24  C   UNL     1       2.406   0.020  -0.021  0.00  0.00    +0.036 A 
ATOM     25  C   UNL     1       1.213  -0.686  -0.013  0.00  0.00    +0.066 A 
ATOM     26  C   UNL     1       0.002  -0.004   0.002  0.00  0.00    +0.028 A 
BRANCH  23  27
ATOM     27  C   UNL     1       3.659   2.175  -0.023  0.00  0.00    -0.014 A 
ATOM     28  C   UNL     1       4.878   1.499  -0.044  0.00  0.00    +0.009 A 
ATOM     29  C   UNL     1       6.061   2.210  -0.052  0.00  0.00    +0.004 A 
ATOM     30  C   UNL     1       6.041   3.592  -0.039  0.00  0.00    +0.045 A 
ATOM     31  C   UNL     1       4.832   4.273  -0.017  0.00  0.00    +0.117 A 
ATOM     32  C   UNL     1       3.639   3.567  -0.015  0.00  0.00    +0.054 A 
BRANCH  31  33
ATOM     33  O   UNL     1       4.817   5.632  -0.003  0.00  0.00    -0.507 OA
ATOM     34  H   UNL     1       4.801   6.034  -0.882  0.00  0.00    +0.292 HD
ENDBRANCH  31  33
ENDBRANCH  23  27
ENDBRANCH   1  25
TORSDOF 4
