REMARK  Name = CHEMBL226403
REMARK  2 active torsions:
REMARK  status: ('A' for Active; 'I' for Inactive)
REMARK    1  A    between atoms: C_8  and  C_11
REMARK    2  A    between atoms: C_13  and  C_17
REMARK                            x       y       z     vdW  Elec       q    Type
REMARK                         _______ _______ _______ _____ _____    ______ ____
ROOT
ATOM      1  C   UNL     1       2.664  -4.163  -0.046  0.00  0.00    +0.073 A 
ATOM      2  C   UNL     1       3.924  -4.751  -0.056  0.00  0.00    +0.038 A 
ATOM      3  C   UNL     1       4.019  -6.146  -0.064  0.00  0.00    +0.002 A 
ATOM      4  C   UNL     1       2.832  -6.891  -0.061  0.00  0.00    +0.029 A 
ATOM      5  C   UNL     1       1.622  -6.230  -0.051  0.00  0.00    +0.112 A 
ATOM      6  N   UNL     1       1.567  -4.912  -0.038  0.00  0.00    -0.255 NA
ENDROOT
BRANCH   3   7
ATOM      7  C   UNL     1       5.336  -6.817  -0.075  0.00  0.00    +0.048 A 
ATOM      8  C   UNL     1       6.548  -6.191  -0.072  0.00  0.00    +0.041 A 
ATOM      9  C   UNL     1       7.522  -7.198  -0.085  0.00  0.00    +0.058 A 
ATOM     10  C   UNL     1       6.857  -8.421  -0.097  0.00  0.00    +0.030 A 
ATOM     11  N   UNL     1       5.545  -8.179  -0.083  0.00  0.00    -0.357 N 
ATOM     12  H   UNL     1       4.849  -8.855  -0.082  0.00  0.00    +0.166 HD
ATOM     13  C   UNL     1       7.621  -9.720  -0.117  0.00  0.00    +0.072 C 
ATOM     14  C   UNL     1       8.958  -9.495  -0.824  0.00  0.00    +0.110 C 
ATOM     15  N   UNL     1       9.646  -8.294  -0.368  0.00  0.00    -0.311 N 
ATOM     16  C   UNL     1       8.994  -7.141  -0.086  0.00  0.00    +0.246 C 
ATOM     17  O   UNL     1       9.594  -6.111   0.155  0.00  0.00    -0.270 OA
ATOM     18  H   UNL     1      10.609  -8.322  -0.262  0.00  0.00    +0.149 HD
ENDBRANCH   3   7
BRANCH   1  26
ATOM     19  C   UNL     1      -0.016   1.357   0.009  0.00  0.00    +0.001 A 
ATOM     20  C   UNL     1       1.170   2.088   0.002  0.00  0.00    +0.002 A 
ATOM     21  C   UNL     1       2.380   1.464  -0.013  0.00  0.00    +0.028 A 
ATOM     22  C   UNL     1       2.441   0.059  -0.021  0.00  0.00    +0.071 A 
ATOM     23  C   UNL     1       1.233  -0.682  -0.013  0.00  0.00    +0.001 A 
ATOM     24  C   UNL     1       0.002  -0.004   0.002  0.00  0.00    +0.010 A 
ATOM     25  C   UNL     1       1.292  -2.086  -0.021  0.00  0.00    +0.021 A 
ATOM     26  C   UNL     1       2.543  -2.685  -0.037  0.00  0.00    +0.019 A 
ATOM     27  C   UNL     1       3.694  -1.882  -0.044  0.00  0.00    +0.121 A 
ATOM     28  N   UNL     1       3.618  -0.575  -0.036  0.00  0.00    -0.254 NA
ENDBRANCH   1  26
TORSDOF 2
