REMARK  Name = CHEMBL392876
REMARK  3 active torsions:
REMARK  status: ('A' for Active; 'I' for Inactive)
REMARK    1  A    between atoms: C_1  and  O_2
REMARK    2  A    between atoms: O_2  and  C_3
REMARK    3  A    between atoms: C_13  and  C_19
REMARK                            x       y       z     vdW  Elec       q    Type
REMARK                         _______ _______ _______ _____ _____    ______ ____
ROOT
ATOM      1  C   UNL     1       0.606  -0.608  -1.056  0.00  0.00    +0.121 A 
ATOM      2  C   UNL     1       1.168   0.181  -2.053  0.00  0.00    +0.047 A 
ATOM      3  C   UNL     1       1.798  -0.365  -3.157  0.00  0.00    +0.030 A 
ATOM      4  C   UNL     1       1.852  -1.755  -3.236  0.00  0.00    +0.047 A 
ATOM      5  C   UNL     1       1.279  -2.565  -2.219  0.00  0.00    +0.007 A 
ATOM      6  C   UNL     1       0.650  -1.992  -1.108  0.00  0.00    +0.056 A 
ATOM      7  C   UNL     1       1.518  -3.924  -2.624  0.00  0.00    -0.019 A 
ATOM      8  C   UNL     1       2.190  -3.895  -3.800  0.00  0.00    +0.017 A 
ATOM      9  N   UNL     1       2.391  -2.595  -4.173  0.00  0.00    -0.359 N 
ATOM     10  H   UNL     1       2.847  -2.311  -4.981  0.00  0.00    +0.166 HD
ATOM     11  C   UNL     1       2.624  -5.145  -4.526  0.00  0.00    +0.095 C 
ATOM     12  N   UNL     1       2.063  -6.330  -3.861  0.00  0.00    +0.393 N 
ATOM     13  C   UNL     1       0.602  -6.397  -4.051  0.00  0.00    -0.077 C 
ATOM     14  C   UNL     1      -0.053  -5.774  -2.804  0.00  0.00    -0.012 C 
ATOM     15  C   UNL     1       1.145  -5.240  -1.965  0.00  0.00    +0.003 C 
ATOM     16  C   UNL     1       2.280  -6.219  -2.397  0.00  0.00    -0.069 C 
ATOM     17  H   UNL     1       2.506  -7.166  -4.213  0.00  0.00    -0.080 HD
ENDROOT
BRANCH  11  18
ATOM     18  C   UNL     1       4.128  -5.232  -4.518  0.00  0.00    +0.349 C 
ATOM     19  O   UNL     1       4.701  -5.807  -3.607  0.00  0.00    -0.248 OA
ATOM     20  O   UNL     1       4.773  -4.729  -5.422  0.00  0.00    -0.248 OA
ENDBRANCH  11  18
BRANCH   1  22
ATOM     21  C   UNL     1      -0.017   1.425   0.010  0.00  0.00    +0.277 C 
ATOM     22  O   UNL     1       0.002  -0.004   0.002  0.00  0.00    -0.495 OA
ENDBRANCH   1  22
TORSDOF 2
