REMARK  Name = CHEMBL247509
REMARK  3 active torsions:
REMARK  status: ('A' for Active; 'I' for Inactive)
REMARK    1  A    between atoms: C_1  and  C_2
REMARK    2  A    between atoms: C_11  and  C_17
REMARK    3  A    between atoms: N_19  and  C_20
REMARK                            x       y       z     vdW  Elec       q    Type
REMARK                         _______ _______ _______ _____ _____    ______ ____
ROOT
ATOM      1  C   UNL     1      -0.016   1.510   0.004  0.00  0.00    +0.014 C 
ATOM      2  C   UNL     1      -0.002  -0.020  -0.003  0.00  0.00    +0.036 C 
ATOM      3  C   UNL     1       0.722  -0.520  -1.254  0.00  0.00    +0.112 C 
ATOM      4  N   UNL     1       2.165  -0.332  -1.176  0.00  0.00    -0.310 N 
ATOM      5  C   UNL     1       2.861  -0.516  -0.031  0.00  0.00    +0.261 C 
ATOM      6  O   UNL     1       4.077  -0.483  -0.014  0.00  0.00    -0.269 OA
ATOM      7  C   UNL     1       2.080  -0.758   1.195  0.00  0.00    +0.106 A 
ATOM      8  C   UNL     1       0.727  -0.524   1.216  0.00  0.00    -0.006 A 
ATOM      9  C   UNL     1       0.266  -0.836   2.494  0.00  0.00    +0.005 A 
ATOM     10  C   UNL     1      -1.006  -0.786   3.077  0.00  0.00    +0.023 A 
ATOM     11  C   UNL     1      -1.103  -1.182   4.412  0.00  0.00    +0.038 A 
ATOM     12  C   UNL     1       0.018  -1.608   5.136  0.00  0.00    +0.015 A 
ATOM     13  C   UNL     1       1.268  -1.661   4.580  0.00  0.00    +0.027 A 
ATOM     14  C   UNL     1       1.396  -1.271   3.245  0.00  0.00    +0.047 A 
ATOM     15  N   UNL     1       2.484  -1.213   2.426  0.00  0.00    -0.350 N 
ATOM     16  H   UNL     1       3.391  -1.453   2.671  0.00  0.00    +0.166 HD
ATOM     17  H   UNL     1       2.645  -0.064  -1.976  0.00  0.00    +0.149 HD
ENDROOT
BRANCH  11  18
ATOM     18  C   UNL     1      -2.419  -1.150   5.079  0.00  0.00    +0.248 C 
ATOM     19  O   UNL     1      -3.402  -0.783   4.465  0.00  0.00    -0.270 OA
ATOM     20  N   UNL     1      -2.532  -1.529   6.367  0.00  0.00    -0.281 N 
ATOM     21  H   UNL     1      -1.762  -1.886   6.837  0.00  0.00    +0.155 HD
BRANCH  20  22
ATOM     22  C   UNL     1      -3.755  -1.406   7.026  0.00  0.00    +0.037 A 
ATOM     23  C   UNL     1      -4.956  -1.614   6.348  0.00  0.00    +0.043 A 
ATOM     24  C   UNL     1      -6.144  -1.483   7.036  0.00  0.00    +0.112 A 
ATOM     25  N   UNL     1      -6.153  -1.166   8.317  0.00  0.00    -0.263 NA
ATOM     26  C   UNL     1      -5.038  -0.962   8.993  0.00  0.00    +0.112 A 
ATOM     27  C   UNL     1      -3.808  -1.079   8.380  0.00  0.00    +0.043 A 
ENDBRANCH  20  22
ENDBRANCH  11  18
TORSDOF 2
