REMARK  Name = CHEMBL461139
REMARK  5 active torsions:
REMARK  status: ('A' for Active; 'I' for Inactive)
REMARK    1  A    between atoms: C_3  and  C_14
REMARK    2  A    between atoms: C_6  and  C_7
REMARK    3  A    between atoms: C_7  and  N_8
REMARK    4  A    between atoms: C_15  and  C_16
REMARK    5  A    between atoms: C_18  and  C_22
REMARK                            x       y       z     vdW  Elec       q    Type
REMARK                         _______ _______ _______ _____ _____    ______ ____
ROOT
ATOM      1  C   UNL     1       6.092   2.248  -0.045  0.00  0.00    +0.028 C 
ATOM      2  C   UNL     1       7.304   1.557  -0.066  0.00  0.00    +0.015 C 
ATOM      3  C   UNL     1       8.498   2.289  -0.074  0.00  0.00    +0.070 C 
ATOM      4  C   UNL     1       8.417   3.692  -0.060  0.00  0.00    +0.007 C 
ATOM      5  C   UNL     1       7.176   4.295  -0.040  0.00  0.00    +0.069 C 
ATOM      6  N   UNL     1       6.070   3.578  -0.038  0.00  0.00    -0.321 N 
ATOM      7  H   UNL     1       5.214   4.034  -0.028  0.00  0.00    +0.152 HD
ENDROOT
BRANCH   3   8
ATOM      8  C   UNL     1       9.806   1.605  -0.096  0.00  0.00    +0.060 C 
ATOM      9  C   UNL     1      11.132   2.280  -0.100  0.00  0.00    +0.041 C 
ATOM     10  C   UNL     1      12.061   1.293  -0.121  0.00  0.00    +0.085 C 
ATOM     11  C   UNL     1      11.314   0.011  -0.130  0.00  0.00    +0.167 C 
ATOM     12  N   UNL     1       9.985   0.307  -0.109  0.00  0.00    -0.231 NA
ATOM     13  N   UNL     1      12.014  -1.102  -0.151  0.00  0.00    -0.218 NA
ATOM     14  C   UNL     1      13.349  -1.091  -0.163  0.00  0.00    +0.213 C 
ATOM     15  N   UNL     1      14.085  -0.017  -0.156  0.00  0.00    -0.165 NA
ATOM     16  C   UNL     1      13.533   1.219  -0.136  0.00  0.00    +0.272 C 
ATOM     17  O   UNL     1      14.220   2.223  -0.130  0.00  0.00    -0.268 OA
ENDBRANCH   3   8
BRANCH   1  19
ATOM     18  C   UNL     1       3.654   2.157  -0.022  0.00  0.00    +0.010 C 
ATOM     19  C   UNL     1       4.824   1.498  -0.036  0.00  0.00    +0.023 C 
BRANCH  18  22
ATOM     20  C   UNL     1      -0.017   1.380   0.010  0.00  0.00    +0.005 A 
ATOM     21  C   UNL     1       1.166   2.089   0.002  0.00  0.00    +0.008 A 
ATOM     22  C   UNL     1       2.386   1.407  -0.013  0.00  0.00    -0.025 A 
ATOM     23  C   UNL     1       2.397   0.009  -0.021  0.00  0.00    +0.008 A 
ATOM     24  C   UNL     1       1.206  -0.686  -0.013  0.00  0.00    +0.005 A 
ATOM     25  C   UNL     1       0.002  -0.004   0.002  0.00  0.00    -0.033 A 
BRANCH  25  26
ATOM     26  C   UNL     1      -1.295  -0.772   0.011  0.00  0.00    +0.119 C 
BRANCH  26  27
ATOM     27  N   UNL     1      -1.730  -1.014  -1.371  0.00  0.00    -0.294 NA
ATOM     28  C   UNL     1      -2.082   0.247  -2.041  0.00  0.00    +0.113 C 
ATOM     29  C   UNL     1      -2.471  -0.044  -3.493  0.00  0.00    +0.175 C 
ATOM     30  O   UNL     1      -3.547  -0.987  -3.513  0.00  0.00    -0.377 OA
ATOM     31  C   UNL     1      -3.239  -2.226  -2.869  0.00  0.00    +0.175 C 
ATOM     32  C   UNL     1      -2.857  -1.957  -1.411  0.00  0.00    +0.113 C 
ENDBRANCH  26  27
ENDBRANCH  25  26
ENDBRANCH  18  22
ENDBRANCH   1  19
TORSDOF 5
