REMARK  Name = CHEMBL460091
REMARK  5 active torsions:
REMARK  status: ('A' for Active; 'I' for Inactive)
REMARK    1  A    between atoms: C_4  and  C_7
REMARK    2  A    between atoms: C_7  and  C_8
REMARK    3  A    between atoms: C_15  and  C_20
REMARK    4  A    between atoms: C_24  and  C_26
REMARK    5  A    between atoms: C_27  and  C_28
REMARK                            x       y       z     vdW  Elec       q    Type
REMARK                         _______ _______ _______ _____ _____    ______ ____
ROOT
ATOM      1  C   UNL     1       4.164  -0.959   1.377  0.00  0.00    +0.116 A 
ATOM      2  N   UNL     1       5.339  -1.610   1.574  0.00  0.00    -0.310 N 
ATOM      3  H   UNL     1       5.864  -1.900   0.812  0.00  0.00    +0.170 HD
ATOM      4  C   UNL     1       5.779  -1.854   2.830  0.00  0.00    +0.261 A 
ATOM      5  O   UNL     1       6.832  -2.437   3.028  0.00  0.00    -0.267 OA
ATOM      6  C   UNL     1       4.947  -1.394   3.939  0.00  0.00    +0.083 A 
ATOM      7  C   UNL     1       5.052  -1.453   5.345  0.00  0.00    +0.043 A 
ATOM      8  C   UNL     1       3.952  -0.844   5.860  0.00  0.00    +0.049 A 
ATOM      9  N   UNL     1       3.156  -0.403   4.824  0.00  0.00    -0.339 N 
ATOM     10  H   UNL     1       2.312   0.064   4.922  0.00  0.00    +0.167 HD
ATOM     11  C   UNL     1       3.748  -0.730   3.639  0.00  0.00    +0.146 A 
ATOM     12  N   UNL     1       3.414  -0.539   2.353  0.00  0.00    -0.216 NA
ENDROOT
BRANCH   8  13
ATOM     13  C   UNL     1       3.656  -0.681   7.299  0.00  0.00    +0.002 A 
ATOM     14  C   UNL     1       4.540  -1.164   8.274  0.00  0.00    +0.029 A 
ATOM     15  C   UNL     1       4.231  -0.994   9.608  0.00  0.00    +0.112 A 
ATOM     16  N   UNL     1       3.122  -0.386   9.977  0.00  0.00    -0.256 NA
ATOM     17  C   UNL     1       2.251   0.090   9.090  0.00  0.00    +0.064 A 
ATOM     18  C   UNL     1       2.491  -0.036   7.723  0.00  0.00    +0.037 A 
BRANCH  17  19
ATOM     19  C   UNL     1       1.026   0.761   9.558  0.00  0.00    +0.028 C 
ATOM     20  C   UNL     1       0.791   0.890  10.873  0.00  0.00    +0.010 C 
BRANCH  20  21
ATOM     21  C   UNL     1      -0.434   1.562  11.341  0.00  0.00    -0.025 A 
ATOM     22  C   UNL     1      -1.358   2.060  10.418  0.00  0.00    +0.008 A 
ATOM     23  C   UNL     1      -2.503   2.687  10.863  0.00  0.00    +0.001 A 
ATOM     24  C   UNL     1      -2.738   2.824  12.220  0.00  0.00    +0.000 A 
ATOM     25  C   UNL     1      -1.828   2.333  13.140  0.00  0.00    +0.001 A 
ATOM     26  C   UNL     1      -0.682   1.698  12.710  0.00  0.00    +0.008 A 
ENDBRANCH  20  21
ENDBRANCH  17  19
ENDBRANCH   8  13
BRANCH   1  27
ATOM     27  C   UNL     1       3.711  -0.707  -0.038  0.00  0.00    +0.109 C 
BRANCH  27  31
ATOM     28  C   UNL     1      -0.017   1.378   0.010  0.00  0.00    +0.000 A 
ATOM     29  C   UNL     1       1.171   2.086   0.002  0.00  0.00    +0.000 A 
ATOM     30  C   UNL     1       2.377   1.411  -0.013  0.00  0.00    +0.004 A 
ATOM     31  C   UNL     1       2.396   0.029  -0.020  0.00  0.00    -0.040 A 
ATOM     32  C   UNL     1       1.208  -0.679  -0.012  0.00  0.00    +0.004 A 
ATOM     33  C   UNL     1       0.002  -0.004   0.002  0.00  0.00    +0.000 A 
ENDBRANCH  27  31
ENDBRANCH   1  27
TORSDOF 5
