REMARK  Name = CHEMBL469124
REMARK  5 active torsions:
REMARK  status: ('A' for Active; 'I' for Inactive)
REMARK    1  A    between atoms: C_1  and  C_2
REMARK    2  A    between atoms: C_2  and  C_4
REMARK    3  A    between atoms: C_2  and  N_10
REMARK    4  A    between atoms: C_12  and  N_17
REMARK    5  A    between atoms: C_22  and  N_24
REMARK                            x       y       z     vdW  Elec       q    Type
REMARK                         _______ _______ _______ _____ _____    ______ ____
ROOT
ATOM      1  N   UNL     1      -0.577  -3.175   2.142  0.00  0.00    -0.370 N 
ATOM      2  C   UNL     1       0.732  -3.321   2.277  0.00  0.00    +0.041 A 
ATOM      3  C   UNL     1       1.574  -2.203   2.721  0.00  0.00    +0.043 A 
ATOM      4  C   UNL     1       2.900  -2.397   2.845  0.00  0.00    +0.086 A 
ATOM      5  N   UNL     1       3.455  -3.610   2.564  0.00  0.00    -0.349 N 
ATOM      6  C   UNL     1       2.704  -4.671   2.150  0.00  0.00    +0.103 A 
ATOM      7  C   UNL     1       1.358  -4.564   2.004  0.00  0.00    +0.067 A 
ATOM      8  H   UNL     1       4.414  -3.722   2.662  0.00  0.00    +0.167 HD
ATOM      9  H   UNL     1      -1.131  -3.940   1.923  0.00  0.00    +0.161 HD
ENDROOT
BRANCH   6  10
ATOM     10  N   UNL     1       3.322  -5.877   1.880  0.00  0.00    -0.286 N 
ATOM     11  C   UNL     1       4.674  -6.040   2.149  0.00  0.00    +0.127 A 
ATOM     12  C   UNL     1       5.285  -7.285   1.988  0.00  0.00    +0.063 A 
ATOM     13  C   UNL     1       6.633  -7.395   2.268  0.00  0.00    +0.116 A 
ATOM     14  N   UNL     1       7.298  -6.324   2.678  0.00  0.00    -0.244 NA
ATOM     15  C   UNL     1       6.692  -5.162   2.821  0.00  0.00    +0.223 A 
ATOM     16  N   UNL     1       5.409  -5.011   2.560  0.00  0.00    -0.221 NA
ATOM     17  H   UNL     1       2.812  -6.610   1.502  0.00  0.00    +0.155 HD
ENDBRANCH   6  10
BRANCH   1  20
ATOM     18  N   UNL     1      -1.434  -0.542   0.088  0.00  0.00    -0.274 NA
ATOM     19  C   UNL     1      -1.816  -1.295   1.064  0.00  0.00    +0.117 C 
ATOM     20  C   UNL     1      -1.189  -1.856   2.322  0.00  0.00    +0.207 C 
ATOM     21  C   UNL     1      -2.599  -1.906   2.870  0.00  0.00    +0.232 C 
ATOM     22  O   UNL     1      -3.115  -1.883   3.961  0.00  0.00    -0.286 OA
ATOM     23  C   UNL     1      -3.069  -1.993   1.456  0.00  0.00    +0.247 C 
ATOM     24  O   UNL     1      -4.042  -2.434   0.882  0.00  0.00    -0.282 OA
BRANCH  18  26
ATOM     25  C   UNL     1      -0.092   1.502   0.058  0.00  0.00    +0.038 C 
ATOM     26  C   UNL     1      -0.063  -0.028   0.053  0.00  0.00    +0.133 C 
BRANCH  26  27
ATOM     27  C   UNL     1       0.624  -0.512  -1.198  0.00  0.00    -0.023 A 
ATOM     28  C   UNL     1      -0.066  -0.550  -2.395  0.00  0.00    +0.006 A 
ATOM     29  C   UNL     1       0.564  -0.995  -3.542  0.00  0.00    +0.000 A 
ATOM     30  C   UNL     1       1.884  -1.401  -3.493  0.00  0.00    +0.000 A 
ATOM     31  C   UNL     1       2.575  -1.363  -2.296  0.00  0.00    +0.000 A 
ATOM     32  C   UNL     1       1.946  -0.914  -1.149  0.00  0.00    +0.006 A 
ENDBRANCH  26  27
ENDBRANCH  18  26
ENDBRANCH   1  20
TORSDOF 4
