REMARK  Name = CHEMBL178413
REMARK  4 active torsions:
REMARK  status: ('A' for Active; 'I' for Inactive)
REMARK    1  A    between atoms: C_5  and  C_8
REMARK    2  A    between atoms: C_6  and  O_7
REMARK    3  A    between atoms: C_18  and  C_23
REMARK    4  A    between atoms: C_19  and  N_22
REMARK                            x       y       z     vdW  Elec       q    Type
REMARK                         _______ _______ _______ _____ _____    ______ ____
ROOT
ATOM      1  C   UNL     1      -0.017   1.381   0.010  0.00  0.00    +0.053 A 
ATOM      2  C   UNL     1       1.170   2.095   0.002  0.00  0.00    -0.002 A 
ATOM      3  C   UNL     1       2.379   1.423  -0.013  0.00  0.00    +0.125 A 
ATOM      4  C   UNL     1       2.397   0.032  -0.021  0.00  0.00    +0.055 A 
ATOM      5  C   UNL     1       1.214  -0.678  -0.015  0.00  0.00    +0.028 A 
ATOM      6  C   UNL     1       0.002  -0.004   0.002  0.00  0.00    +0.123 A 
ATOM      7  O   UNL     1       3.571   2.083  -0.020  0.00  0.00    -0.487 OA
ATOM      8  C   UNL     1       3.550   3.456   0.372  0.00  0.00    +0.192 C 
ATOM      9  C   UNL     1       4.875   4.117   0.058  0.00  0.00    +0.090 C 
ATOM     10  C   UNL     1       4.924   5.574   0.306  0.00  0.00    +0.036 C 
ATOM     11  C   UNL     1       3.665   6.321   0.056  0.00  0.00    +0.088 C 
ATOM     12  C   UNL     1       2.518   5.645  -0.271  0.00  0.00    +0.028 C 
ATOM     13  C   UNL     1       2.456   4.162  -0.436  0.00  0.00    +0.080 C 
ATOM     14  C   UNL     1       1.104   3.604   0.010  0.00  0.00    +0.052 C 
ATOM     15  N   UNL     1       6.014   6.170   0.722  0.00  0.00    -0.400 N 
ATOM     16  H   UNL     1       6.821   5.654   0.877  0.00  0.00    +0.156 HD
ATOM     17  H   UNL     1       6.014   7.128   0.876  0.00  0.00    +0.156 HD
ENDROOT
BRANCH   5  18
ATOM     18  C   UNL     1       1.240  -2.185  -0.024  0.00  0.00    +0.177 C 
ATOM     19  C   UNL     1       1.144  -2.707   1.413  0.00  0.00    +0.196 C 
ATOM     20  O   UNL     1       1.281  -4.132   1.404  0.00  0.00    -0.375 OA
ATOM     21  C   UNL     1       2.506  -4.586   0.820  0.00  0.00    +0.188 C 
ATOM     22  C   UNL     1       2.601  -4.063  -0.616  0.00  0.00    +0.188 C 
ATOM     23  O   UNL     1       2.464  -2.639  -0.608  0.00  0.00    -0.367 OA
ENDBRANCH   5  18
BRANCH  12  24
ATOM     24  N   UNL     1       1.376   6.362  -0.456  0.00  0.00    -0.360 N 
ATOM     25  H   UNL     1       1.388   7.327  -0.355  0.00  0.00    +0.142 HD
ATOM     26  H   UNL     1       0.551   5.909  -0.688  0.00  0.00    +0.142 HD
ENDBRANCH  12  24
BRANCH   6  27
ATOM     27  O   UNL     1      -1.165  -0.701   0.009  0.00  0.00    -0.506 OA
ATOM     28  H   UNL     1      -1.511  -0.898  -0.872  0.00  0.00    +0.292 HD
ENDBRANCH   6  27
BRANCH  11  29
ATOM     29  C   UNL     1       3.649   7.749   0.157  0.00  0.00    +0.102 C 
ATOM     30  N   UNL     1       3.636   8.883   0.237  0.00  0.00    -0.191 NA
ENDBRANCH  11  29
TORSDOF 4
