REMARK  Name = CHEMBL469124
REMARK  5 active torsions:
REMARK  status: ('A' for Active; 'I' for Inactive)
REMARK    1  A    between atoms: C_1  and  C_2
REMARK    2  A    between atoms: C_2  and  C_4
REMARK    3  A    between atoms: C_2  and  N_10
REMARK    4  A    between atoms: C_12  and  N_17
REMARK    5  A    between atoms: C_22  and  N_24
REMARK                            x       y       z     vdW  Elec       q    Type
REMARK                         _______ _______ _______ _____ _____    ______ ____
ROOT
ATOM      1  N   UNL     1      -3.979  -1.234   2.236  0.00  0.00    -0.370 N 
ATOM      2  C   UNL     1      -5.150  -0.829   1.768  0.00  0.00    +0.041 A 
ATOM      3  C   UNL     1      -5.628  -1.268   0.451  0.00  0.00    +0.043 A 
ATOM      4  C   UNL     1      -6.824  -0.831   0.017  0.00  0.00    +0.086 A 
ATOM      5  N   UNL     1      -7.582   0.004   0.782  0.00  0.00    -0.349 N 
ATOM      6  C   UNL     1      -7.170   0.432   2.011  0.00  0.00    +0.103 A 
ATOM      7  C   UNL     1      -5.978   0.035   2.529  0.00  0.00    +0.067 A 
ATOM      8  H   UNL     1      -8.440   0.304   0.444  0.00  0.00    +0.167 HD
ATOM      9  H   UNL     1      -3.709  -0.999   3.138  0.00  0.00    +0.161 HD
ENDROOT
BRANCH   6  10
ATOM     10  N   UNL     1      -7.980   1.278   2.743  0.00  0.00    -0.286 N 
ATOM     11  C   UNL     1      -9.254   1.587   2.286  0.00  0.00    +0.127 A 
ATOM     12  C   UNL     1     -10.124   2.348   3.069  0.00  0.00    +0.063 A 
ATOM     13  C   UNL     1     -11.380   2.629   2.569  0.00  0.00    +0.116 A 
ATOM     14  N   UNL     1     -11.718   2.170   1.372  0.00  0.00    -0.244 NA
ATOM     15  C   UNL     1     -10.874   1.454   0.657  0.00  0.00    +0.223 A 
ATOM     16  N   UNL     1      -9.664   1.167   1.093  0.00  0.00    -0.221 NA
ATOM     17  H   UNL     1      -7.659   1.657   3.576  0.00  0.00    +0.155 HD
ENDBRANCH   6  10
BRANCH   1  20
ATOM     18  N   UNL     1      -1.372  -0.593   0.074  0.00  0.00    -0.274 NA
ATOM     19  C   UNL     1      -1.794  -1.344   1.035  0.00  0.00    +0.117 C 
ATOM     20  C   UNL     1      -3.091  -2.037   1.392  0.00  0.00    +0.207 C 
ATOM     21  C   UNL     1      -2.229  -3.012   2.165  0.00  0.00    +0.232 C 
ATOM     22  O   UNL     1      -2.315  -4.162   2.525  0.00  0.00    -0.286 OA
ATOM     23  C   UNL     1      -1.221  -1.917   2.281  0.00  0.00    +0.247 C 
ATOM     24  O   UNL     1      -0.329  -1.627   3.050  0.00  0.00    -0.282 OA
BRANCH  18  26
ATOM     25  C   UNL     1       0.007   1.427   0.092  0.00  0.00    +0.038 C 
ATOM     26  C   UNL     1       0.008  -0.103   0.079  0.00  0.00    +0.133 C 
BRANCH  26  27
ATOM     27  C   UNL     1       0.720  -0.594  -1.155  0.00  0.00    -0.023 A 
ATOM     28  C   UNL     1       0.062  -0.613  -2.371  0.00  0.00    +0.006 A 
ATOM     29  C   UNL     1       0.714  -1.063  -3.503  0.00  0.00    +0.000 A 
ATOM     30  C   UNL     1       2.025  -1.494  -3.420  0.00  0.00    +0.000 A 
ATOM     31  C   UNL     1       2.684  -1.474  -2.205  0.00  0.00    +0.000 A 
ATOM     32  C   UNL     1       2.032  -1.020  -1.073  0.00  0.00    +0.006 A 
ENDBRANCH  26  27
ENDBRANCH  18  26
ENDBRANCH   1  20
TORSDOF 4
