REMARK  Name = CHEMBL226206
REMARK  4 active torsions:
REMARK  status: ('A' for Active; 'I' for Inactive)
REMARK    1  A    between atoms: C_3  and  C_24
REMARK    2  A    between atoms: C_6  and  C_7
REMARK    3  A    between atoms: C_9  and  C_13
REMARK    4  A    between atoms: N_26  and  C_27
REMARK                            x       y       z     vdW  Elec       q    Type
REMARK                         _______ _______ _______ _____ _____    ______ ____
ROOT
ATOM      1  C   UNL     1      -1.272  -0.762   0.010  0.00  0.00    +0.072 A 
ATOM      2  C   UNL     1      -1.246  -2.153   0.008  0.00  0.00    +0.038 A 
ATOM      3  C   UNL     1      -2.457  -2.852   0.016  0.00  0.00    +0.002 A 
ATOM      4  C   UNL     1      -3.648  -2.114   0.025  0.00  0.00    +0.029 A 
ATOM      5  C   UNL     1      -3.586  -0.736   0.026  0.00  0.00    +0.112 A 
ATOM      6  N   UNL     1      -2.427  -0.107   0.025  0.00  0.00    -0.255 NA
ENDROOT
BRANCH   3   7
ATOM      7  C   UNL     1      -2.480  -4.330   0.013  0.00  0.00    +0.048 A 
ATOM      8  C   UNL     1      -1.385  -5.143   0.010  0.00  0.00    +0.041 A 
ATOM      9  C   UNL     1      -1.861  -6.460   0.009  0.00  0.00    +0.058 A 
ATOM     10  C   UNL     1      -3.251  -6.402   0.010  0.00  0.00    +0.030 A 
ATOM     11  N   UNL     1      -3.611  -5.117   0.020  0.00  0.00    -0.357 N 
ATOM     12  H   UNL     1      -4.524  -4.789   0.029  0.00  0.00    +0.166 HD
ATOM     13  C   UNL     1      -4.082  -7.659   0.004  0.00  0.00    +0.072 C 
ATOM     14  C   UNL     1      -3.299  -8.764  -0.704  0.00  0.00    +0.110 C 
ATOM     15  N   UNL     1      -1.914  -8.852  -0.260  0.00  0.00    -0.311 N 
ATOM     16  C   UNL     1      -1.163  -7.758   0.009  0.00  0.00    +0.246 C 
ATOM     17  O   UNL     1       0.029  -7.842   0.238  0.00  0.00    -0.270 OA
ATOM     18  H   UNL     1      -1.514  -9.729  -0.152  0.00  0.00    +0.149 HD
ENDBRANCH   3   7
BRANCH   1  24
ATOM     19  C   UNL     1      -0.017   1.391   0.010  0.00  0.00    +0.011 A 
ATOM     20  C   UNL     1       1.166   2.096   0.002  0.00  0.00    +0.014 A 
ATOM     21  C   UNL     1       2.385   1.414  -0.013  0.00  0.00    +0.037 A 
ATOM     22  C   UNL     1       2.403   0.017  -0.021  0.00  0.00    +0.014 A 
ATOM     23  C   UNL     1       1.219  -0.686  -0.013  0.00  0.00    +0.011 A 
ATOM     24  C   UNL     1       0.002  -0.004   0.002  0.00  0.00    +0.000 A 
BRANCH  21  25
ATOM     25  C   UNL     1       3.655   2.170  -0.022  0.00  0.00    +0.244 C 
ATOM     26  O   UNL     1       3.639   3.385  -0.015  0.00  0.00    -0.270 OA
ATOM     27  N   UNL     1       4.831   1.511  -0.036  0.00  0.00    -0.308 N 
ATOM     28  H   UNL     1       4.843   0.541  -0.041  0.00  0.00    +0.149 HD
BRANCH  27  29
ATOM     29  C   UNL     1       6.090   2.260  -0.045  0.00  0.00    +0.073 C 
ATOM     30  C   UNL     1       7.190   1.782  -0.994  0.00  0.00    +0.024 C 
ATOM     31  C   UNL     1       7.331   1.562   0.513  0.00  0.00    +0.024 C 
ENDBRANCH  27  29
ENDBRANCH  21  25
ENDBRANCH   1  24
TORSDOF 4
