REMARK  Name = CHEMBL452078
REMARK  7 active torsions:
REMARK  status: ('A' for Active; 'I' for Inactive)
REMARK    1  A    between atoms: C_1  and  N_2
REMARK    2  A    between atoms: N_5  and  C_8
REMARK    3  A    between atoms: C_8  and  C_9
REMARK    4  A    between atoms: C_9  and  C_10
REMARK    5  A    between atoms: C_10  and  N_11
REMARK    6  A    between atoms: C_15  and  O_37
REMARK    7  A    between atoms: C_21  and  C_29
REMARK                            x       y       z     vdW  Elec       q    Type
REMARK                         _______ _______ _______ _____ _____    ______ ____
ROOT
ATOM      1  N   UNL     1       0.430  -6.471   3.876  0.00  0.00    -0.340 N 
ATOM      2  C   UNL     1       1.765  -6.728   4.142  0.00  0.00    +0.050 A 
ATOM      3  C   UNL     1       2.908  -6.645   3.354  0.00  0.00    +0.030 A 
ATOM      4  C   UNL     1       4.139  -6.968   3.884  0.00  0.00    +0.047 A 
ATOM      5  C   UNL     1       4.253  -7.380   5.208  0.00  0.00    +0.118 A 
ATOM      6  C   UNL     1       3.127  -7.469   6.006  0.00  0.00    +0.056 A 
ATOM      7  C   UNL     1       1.878  -7.143   5.478  0.00  0.00    +0.012 A 
ATOM      8  C   UNL     1       0.517  -7.130   6.038  0.00  0.00    +0.021 A 
ATOM      9  C   UNL     1      -0.337  -6.699   5.001  0.00  0.00    +0.051 A 
ATOM     10  C   UNL     1      -1.701  -6.581   5.235  0.00  0.00    +0.035 A 
ATOM     11  C   UNL     1      -2.232  -6.880   6.488  0.00  0.00    -0.000 A 
ATOM     12  C   UNL     1      -1.391  -7.304   7.524  0.00  0.00    +0.058 A 
ATOM     13  C   UNL     1      -0.008  -7.436   7.294  0.00  0.00    +0.059 A 
ATOM     14  C   UNL     1       0.573  -7.895   8.571  0.00  0.00    +0.252 C 
ATOM     15  O   UNL     1       1.750  -8.113   8.777  0.00  0.00    -0.270 OA
ATOM     16  N   UNL     1      -0.421  -8.031   9.468  0.00  0.00    -0.248 N 
ATOM     17  C   UNL     1      -1.606  -7.692   8.929  0.00  0.00    +0.252 C 
ATOM     18  O   UNL     1      -2.678  -7.714   9.502  0.00  0.00    -0.270 OA
ATOM     19  H   UNL     1      -0.297  -8.322  10.385  0.00  0.00    +0.158 HD
ENDROOT
BRANCH  11  20
ATOM     20  C   UNL     1      -3.688  -6.749   6.725  0.00  0.00    +0.020 A 
ATOM     21  C   UNL     1      -4.219  -5.538   7.172  0.00  0.00    +0.050 A 
ATOM     22  C   UNL     1      -5.578  -5.423   7.391  0.00  0.00    +0.021 A 
ATOM     23  C   UNL     1      -6.412  -6.504   7.168  0.00  0.00    +0.003 A 
ATOM     24  C   UNL     1      -5.892  -7.707   6.725  0.00  0.00    +0.021 A 
ATOM     25  C   UNL     1      -4.536  -7.834   6.496  0.00  0.00    +0.050 A 
ATOM     26 CL   UNL     1      -3.886  -9.342   5.932  0.00  0.00    -0.083 Cl
ATOM     27 CL   UNL     1      -3.175  -4.181   7.454  0.00  0.00    -0.083 Cl
ENDBRANCH  11  20
BRANCH   5  28
ATOM     28  O   UNL     1       5.473  -7.697   5.717  0.00  0.00    -0.507 OA
ATOM     29  H   UNL     1       5.939  -6.950   6.116  0.00  0.00    +0.292 HD
ENDBRANCH   5  28
BRANCH   1  30
ATOM     30  C   UNL     1      -0.093  -6.015   2.586  0.00  0.00    +0.123 C 
BRANCH  30  31
ATOM     31  C   UNL     1      -0.086  -4.485   2.544  0.00  0.00    +0.037 C 
BRANCH  31  32
ATOM     32  C   UNL     1      -0.632  -4.009   1.196  0.00  0.00    +0.086 C 
BRANCH  32  37
ATOM     33  C   UNL     1      -0.018   1.465   0.010  0.00  0.00    -0.096 C 
ATOM     34  N   UNL     1       0.002  -0.004   0.002  0.00  0.00    +0.379 N 
ATOM     35  C   UNL     1      -1.376  -0.512   0.011  0.00  0.00    -0.064 C 
ATOM     36  C   UNL     1      -1.356  -2.042  -0.017  0.00  0.00    +0.066 C 
ATOM     37  N   UNL     1      -0.624  -2.541   1.156  0.00  0.00    -0.306 NA
ATOM     38  C   UNL     1       0.750  -2.020   1.175  0.00  0.00    +0.066 C 
ATOM     39  C   UNL     1       0.713  -0.490   1.192  0.00  0.00    -0.064 C 
ATOM     40  H   UNL     1       0.475  -0.329  -0.828  0.00  0.00    -0.082 HD
ENDBRANCH  32  37
ENDBRANCH  31  32
ENDBRANCH  30  31
ENDBRANCH   1  30
TORSDOF 6
