REMARK  Name = CHEMBL404335
REMARK  8 active torsions:
REMARK  status: ('A' for Active; 'I' for Inactive)
REMARK    1  A    between atoms: C_1  and  N_2
REMARK    2  A    between atoms: C_5  and  C_30
REMARK    3  A    between atoms: C_12  and  S_16
REMARK    4  A    between atoms: C_13  and  O_15
REMARK    5  A    between atoms: S_16  and  C_17
REMARK    6  A    between atoms: C_17  and  C_18
REMARK    7  A    between atoms: C_18  and  C_19
REMARK    8  A    between atoms: C_19  and  N_20
REMARK                            x       y       z     vdW  Elec       q    Type
REMARK                         _______ _______ _______ _____ _____    ______ ____
ROOT
ATOM      1  C   UNL     1      -0.018   1.461   0.010  0.00  0.00    +0.149 C 
ATOM      2  N   UNL     1       0.002  -0.004   0.002  0.00  0.00    -0.343 N 
ATOM      3  C   UNL     1       0.007  -0.787  -1.136  0.00  0.00    +0.051 A 
ATOM      4  C   UNL     1      -0.003  -0.463  -2.486  0.00  0.00    +0.035 A 
ATOM      5  C   UNL     1       0.005  -1.465  -3.454  0.00  0.00    -0.002 A 
ATOM      6  C   UNL     1       0.025  -2.811  -3.071  0.00  0.00    +0.058 A 
ATOM      7  C   UNL     1       0.037  -3.151  -1.705  0.00  0.00    +0.059 A 
ATOM      8  C   UNL     1       0.028  -2.142  -0.740  0.00  0.00    +0.021 A 
ATOM      9  C   UNL     1       0.035  -2.146   0.731  0.00  0.00    +0.012 A 
ATOM     10  C   UNL     1       0.024  -0.802   1.135  0.00  0.00    +0.051 A 
ATOM     11  C   UNL     1       0.033  -0.496   2.490  0.00  0.00    +0.044 A 
ATOM     12  C   UNL     1       0.056  -1.514   3.431  0.00  0.00    +0.051 A 
ATOM     13  C   UNL     1       0.070  -2.851   3.026  0.00  0.00    +0.131 A 
ATOM     14  C   UNL     1       0.052  -3.167   1.684  0.00  0.00    +0.057 A 
ATOM     15  C   UNL     1       0.057  -4.625  -1.655  0.00  0.00    +0.252 C 
ATOM     16  O   UNL     1       0.071  -5.300  -0.645  0.00  0.00    -0.270 OA
ATOM     17  N   UNL     1       0.057  -5.096  -2.915  0.00  0.00    -0.248 N 
ATOM     18  C   UNL     1       0.039  -4.088  -3.806  0.00  0.00    +0.252 C 
ATOM     19  O   UNL     1       0.035  -4.210  -5.015  0.00  0.00    -0.270 OA
ATOM     20  H   UNL     1       0.068  -6.037  -3.150  0.00  0.00    +0.158 HD
ENDROOT
BRANCH   5  21
ATOM     21  C   UNL     1      -0.007  -1.105  -4.891  0.00  0.00    +0.001 A 
ATOM     22  C   UNL     1       1.076  -0.430  -5.453  0.00  0.00    +0.010 A 
ATOM     23  C   UNL     1       1.059  -0.097  -6.792  0.00  0.00    +0.001 A 
ATOM     24  C   UNL     1      -0.030  -0.432  -7.578  0.00  0.00    +0.001 A 
ATOM     25  C   UNL     1      -1.108  -1.101  -7.027  0.00  0.00    +0.020 A 
ATOM     26  C   UNL     1      -1.101  -1.444  -5.689  0.00  0.00    +0.049 A 
ATOM     27 CL   UNL     1      -2.451  -2.290  -5.001  0.00  0.00    -0.083 Cl
ENDBRANCH   5  21
BRANCH  13  28
ATOM     28  O   UNL     1       0.092  -3.843   3.957  0.00  0.00    -0.506 OA
ATOM     29  H   UNL     1      -0.784  -4.142   4.235  0.00  0.00    +0.292 HD
ENDBRANCH  13  28
BRANCH  12  30
ATOM     30  S   UNL     1       0.068  -1.118   5.148  0.00  0.00    -0.122 S 
BRANCH  30  31
ATOM     31  C   UNL     1       0.044   0.695   5.181  0.00  0.00    +0.073 C 
BRANCH  31  32
ATOM     32  C   UNL     1       0.052   1.179   6.633  0.00  0.00    -0.008 C 
BRANCH  32  33
ATOM     33  C   UNL     1       0.032   2.708   6.661  0.00  0.00    -0.078 C 
BRANCH  33  34
ATOM     34  N   UNL     1       0.040   3.173   8.054  0.00  0.00    +0.380 N 
ATOM     35  C   UNL     1       1.348   2.870   8.688  0.00  0.00    -0.079 C 
ATOM     36  C   UNL     1       1.410   3.870   9.869  0.00  0.00    -0.020 C 
ATOM     37  C   UNL     1       0.757   5.142   9.280  0.00  0.00    -0.020 C 
ATOM     38  C   UNL     1      -0.101   4.644   8.102  0.00  0.00    -0.079 C 
ATOM     39  H   UNL     1      -0.708   2.735   8.572  0.00  0.00    -0.082 HD
ENDBRANCH  33  34
ENDBRANCH  32  33
ENDBRANCH  31  32
ENDBRANCH  30  31
ENDBRANCH  12  30
TORSDOF 7
