REMARK  Name = CHEMBL483801
REMARK  9 active torsions:
REMARK  status: ('A' for Active; 'I' for Inactive)
REMARK    1  A    between atoms: C_1  and  N_2
REMARK    2  A    between atoms: N_2  and  C_3
REMARK    3  A    between atoms: N_2  and  C_4
REMARK    4  A    between atoms: C_4  and  C_5
REMARK    5  A    between atoms: C_5  and  N_6
REMARK    6  A    between atoms: C_7  and  C_9
REMARK    7  A    between atoms: C_9  and  C_10
REMARK    8  A    between atoms: C_10  and  N_11
REMARK    9  A    between atoms: C_15  and  O_29
REMARK                            x       y       z     vdW  Elec       q    Type
REMARK                         _______ _______ _______ _____ _____    ______ ____
ROOT
ATOM      1  N   UNL     1       0.783  -0.959   8.526  0.00  0.00    -0.339 N 
ATOM      2  C   UNL     1       0.595  -2.203   9.106  0.00  0.00    +0.050 A 
ATOM      3  C   UNL     1      -0.236  -3.270   8.782  0.00  0.00    +0.030 A 
ATOM      4  C   UNL     1      -0.222  -4.416   9.547  0.00  0.00    +0.047 A 
ATOM      5  C   UNL     1       0.621  -4.520  10.649  0.00  0.00    +0.118 A 
ATOM      6  C   UNL     1       1.454  -3.470  10.986  0.00  0.00    +0.056 A 
ATOM      7  C   UNL     1       1.445  -2.307  10.217  0.00  0.00    +0.012 A 
ATOM      8  C   UNL     1       2.186  -1.037  10.297  0.00  0.00    +0.021 A 
ATOM      9  C   UNL     1       1.738  -0.244   9.221  0.00  0.00    +0.051 A 
ATOM     10  C   UNL     1       2.270   1.027   9.034  0.00  0.00    +0.027 A 
ATOM     11  C   UNL     1       3.236   1.518   9.891  0.00  0.00    +0.016 A 
ATOM     12  C   UNL     1       3.689   0.747  10.954  0.00  0.00    +0.050 A 
ATOM     13  C   UNL     1       3.158  -0.541  11.166  0.00  0.00    +0.059 A 
ATOM     14  C   UNL     1       3.847  -1.072  12.357  0.00  0.00    +0.252 C 
ATOM     15  O   UNL     1       3.667  -2.168  12.851  0.00  0.00    -0.270 OA
ATOM     16  N   UNL     1       4.708  -0.141  12.806  0.00  0.00    -0.248 N 
ATOM     17  C   UNL     1       4.680   0.956  12.028  0.00  0.00    +0.251 C 
ATOM     18  O   UNL     1       5.351   1.956  12.189  0.00  0.00    -0.270 OA
ATOM     19  H   UNL     1       5.281  -0.251  13.581  0.00  0.00    +0.158 HD
ENDROOT
BRANCH   5  20
ATOM     20  O   UNL     1       0.624  -5.656  11.396  0.00  0.00    -0.507 OA
ATOM     21  H   UNL     1       1.258  -6.322  11.096  0.00  0.00    +0.292 HD
ENDBRANCH   5  20
BRANCH   1  22
ATOM     22  C   UNL     1       0.075  -0.474   7.339  0.00  0.00    +0.131 C 
BRANCH  22  23
ATOM     23  C   UNL     1       0.859  -0.861   6.083  0.00  0.00    +0.117 C 
BRANCH  23  25
ATOM     24  N   UNL     1       0.637  -0.589   3.635  0.00  0.00    -0.317 N 
ATOM     25  C   UNL     1       0.130  -0.362   4.862  0.00  0.00    +0.215 C 
ATOM     26  O   UNL     1      -0.914   0.244   4.985  0.00  0.00    -0.276 OA
ATOM     27  H   UNL     1       1.472  -1.073   3.537  0.00  0.00    +0.149 HD
BRANCH  24  28
ATOM     28  C   UNL     1      -0.071  -0.103   2.448  0.00  0.00    +0.085 C 
BRANCH  28  29
ATOM     29  C   UNL     1       0.713  -0.491   1.192  0.00  0.00    -0.061 C 
BRANCH  29  31
ATOM     30  C   UNL     1      -0.018   1.465   0.010  0.00  0.00    -0.097 C 
ATOM     31  N   UNL     1       0.002  -0.004   0.002  0.00  0.00    +0.377 N 
ATOM     32  C   UNL     1       0.690  -0.478  -1.207  0.00  0.00    -0.097 C 
ATOM     33  H   UNL     1      -0.945  -0.353   0.009  0.00  0.00    -0.083 HD
ENDBRANCH  29  31
ENDBRANCH  28  29
ENDBRANCH  24  28
ENDBRANCH  23  25
ENDBRANCH  22  23
ENDBRANCH   1  22
TORSDOF 7
