REMARK  Name = CHEMBL378347
REMARK  2 active torsions:
REMARK  status: ('A' for Active; 'I' for Inactive)
REMARK    1  A    between atoms: C_6  and  O_7
REMARK    2  A    between atoms: C_13  and  C_21
REMARK                            x       y       z     vdW  Elec       q    Type
REMARK                         _______ _______ _______ _____ _____    ______ ____
ROOT
ATOM      1  C   UNL     1      -0.017   1.386   0.010  0.00  0.00    +0.047 A 
ATOM      2  C   UNL     1       1.161   2.103   0.002  0.00  0.00    +0.030 A 
ATOM      3  C   UNL     1       2.382   1.438  -0.013  0.00  0.00    +0.048 A 
ATOM      4  C   UNL     1       2.403   0.034  -0.021  0.00  0.00    +0.012 A 
ATOM      5  C   UNL     1       1.207  -0.682  -0.013  0.00  0.00    +0.056 A 
ATOM      6  C   UNL     1       0.002  -0.004   0.002  0.00  0.00    +0.118 A 
ATOM      7  C   UNL     1       3.820  -0.364  -0.037  0.00  0.00    +0.020 A 
ATOM      8  C   UNL     1       4.570   0.831  -0.038  0.00  0.00    +0.049 A 
ATOM      9  N   UNL     1       3.690   1.895  -0.023  0.00  0.00    -0.354 N 
ATOM     10  H   UNL     1       3.950   2.829  -0.021  0.00  0.00    +0.166 HD
ATOM     11  C   UNL     1       5.958   0.776  -0.052  0.00  0.00    +0.035 A 
ATOM     12  C   UNL     1       6.616  -0.452  -0.066  0.00  0.00    -0.003 A 
ATOM     13  C   UNL     1       5.880  -1.643  -0.065  0.00  0.00    +0.058 A 
ATOM     14  C   UNL     1       4.473  -1.597  -0.050  0.00  0.00    +0.059 A 
ATOM     15  C   UNL     1       4.024  -3.003  -0.053  0.00  0.00    +0.252 C 
ATOM     16  O   UNL     1       2.868  -3.378  -0.044  0.00  0.00    -0.270 OA
ATOM     17  N   UNL     1       5.108  -3.799  -0.068  0.00  0.00    -0.248 N 
ATOM     18  C   UNL     1       6.239  -3.072  -0.078  0.00  0.00    +0.252 C 
ATOM     19  O   UNL     1       7.369  -3.519  -0.093  0.00  0.00    -0.270 OA
ATOM     20  H   UNL     1       5.077  -4.769  -0.074  0.00  0.00    +0.158 HD
ENDROOT
BRANCH  12  21
ATOM     21  C   UNL     1       8.097  -0.498  -0.083  0.00  0.00    -0.014 A 
ATOM     22  C   UNL     1       8.801  -1.300   0.821  0.00  0.00    +0.028 A 
ATOM     23  C   UNL     1      10.180  -1.313   0.770  0.00  0.00    +0.111 A 
ATOM     24  N   UNL     1      10.832  -0.583  -0.113  0.00  0.00    -0.263 NA
ATOM     25  C   UNL     1      10.207   0.187  -0.983  0.00  0.00    +0.111 A 
ATOM     26  C   UNL     1       8.829   0.256  -1.006  0.00  0.00    +0.028 A 
ENDBRANCH  12  21
BRANCH   6  27
ATOM     27  O   UNL     1      -1.167  -0.699   0.010  0.00  0.00    -0.507 OA
ATOM     28  H   UNL     1      -1.514  -0.895  -0.871  0.00  0.00    +0.292 HD
ENDBRANCH   6  27
TORSDOF 2
