REMARK  Name = CHEMBL508412
REMARK  7 active torsions:
REMARK  status: ('A' for Active; 'I' for Inactive)
REMARK    1  A    between atoms: C_1  and  N_2
REMARK    2  A    between atoms: N_5  and  C_8
REMARK    3  A    between atoms: C_8  and  C_9
REMARK    4  A    between atoms: C_9  and  C_10
REMARK    5  A    between atoms: C_10  and  N_11
REMARK    6  A    between atoms: C_15  and  O_36
REMARK    7  A    between atoms: C_21  and  C_29
REMARK                            x       y       z     vdW  Elec       q    Type
REMARK                         _______ _______ _______ _____ _____    ______ ____
ROOT
ATOM      1  N   UNL     1       0.659  -6.640   3.486  0.00  0.00    -0.340 N 
ATOM      2  C   UNL     1       2.009  -6.862   3.704  0.00  0.00    +0.050 A 
ATOM      3  C   UNL     1       3.128  -6.684   2.897  0.00  0.00    +0.030 A 
ATOM      4  C   UNL     1       4.383  -6.992   3.376  0.00  0.00    +0.047 A 
ATOM      5  C   UNL     1       4.547  -7.483   4.667  0.00  0.00    +0.118 A 
ATOM      6  C   UNL     1       3.447  -7.666   5.483  0.00  0.00    +0.056 A 
ATOM      7  C   UNL     1       2.173  -7.357   5.007  0.00  0.00    +0.012 A 
ATOM      8  C   UNL     1       0.827  -7.433   5.599  0.00  0.00    +0.021 A 
ATOM      9  C   UNL     1      -0.069  -6.970   4.612  0.00  0.00    +0.051 A 
ATOM     10  C   UNL     1      -1.429  -6.920   4.885  0.00  0.00    +0.035 A 
ATOM     11  C   UNL     1      -1.917  -7.319   6.128  0.00  0.00    -0.002 A 
ATOM     12  C   UNL     1      -1.034  -7.776   7.114  0.00  0.00    +0.058 A 
ATOM     13  C   UNL     1       0.347  -7.839   6.844  0.00  0.00    +0.059 A 
ATOM     14  C   UNL     1       0.977  -8.355   8.075  0.00  0.00    +0.252 C 
ATOM     15  O   UNL     1       2.166  -8.540   8.239  0.00  0.00    -0.270 OA
ATOM     16  N   UNL     1       0.012  -8.586   8.984  0.00  0.00    -0.248 N 
ATOM     17  C   UNL     1      -1.198  -8.261   8.496  0.00  0.00    +0.252 C 
ATOM     18  O   UNL     1      -2.253  -8.361   9.091  0.00  0.00    -0.270 OA
ATOM     19  H   UNL     1       0.170  -8.930   9.877  0.00  0.00    +0.158 HD
ENDROOT
BRANCH  11  20
ATOM     20  C   UNL     1      -3.370  -7.261   6.407  0.00  0.00    +0.001 A 
ATOM     21  C   UNL     1      -4.252  -8.079   5.700  0.00  0.00    +0.010 A 
ATOM     22  C   UNL     1      -5.605  -8.020   5.965  0.00  0.00    +0.001 A 
ATOM     23  C   UNL     1      -6.088  -7.152   6.928  0.00  0.00    +0.001 A 
ATOM     24  C   UNL     1      -5.220  -6.338   7.632  0.00  0.00    +0.020 A 
ATOM     25  C   UNL     1      -3.863  -6.391   7.381  0.00  0.00    +0.049 A 
ATOM     26 CL   UNL     1      -2.773  -5.374   8.270  0.00  0.00    -0.083 Cl
ENDBRANCH  11  20
BRANCH   5  27
ATOM     27  O   UNL     1       5.791  -7.783   5.126  0.00  0.00    -0.507 OA
ATOM     28  H   UNL     1       6.238  -7.045   5.562  0.00  0.00    +0.292 HD
ENDBRANCH   5  27
BRANCH   1  29
ATOM     29  C   UNL     1       0.087  -6.124   2.241  0.00  0.00    +0.120 C 
BRANCH  29  30
ATOM     30  C   UNL     1       0.036  -4.596   2.298  0.00  0.00    +0.003 C 
BRANCH  30  31
ATOM     31  C   UNL     1      -0.562  -4.056   0.998  0.00  0.00    -0.077 C 
BRANCH  31  36
ATOM     32  C   UNL     1      -0.018   1.465   0.010  0.00  0.00    +0.104 C 
ATOM     33  N   UNL     1       0.002  -0.004   0.002  0.00  0.00    -0.309 NA
ATOM     34  C   UNL     1      -1.361  -0.549  -0.076  0.00  0.00    +0.065 C 
ATOM     35  C   UNL     1      -1.293  -2.076  -0.143  0.00  0.00    -0.063 C 
ATOM     36  N   UNL     1      -0.611  -2.589   1.053  0.00  0.00    +0.381 N 
ATOM     37  C   UNL     1       0.757  -2.055   1.104  0.00  0.00    -0.063 C 
ATOM     38  C   UNL     1       0.707  -0.528   1.181  0.00  0.00    +0.065 C 
ATOM     39  H   UNL     1      -1.115  -2.300   1.878  0.00  0.00    -0.082 HD
ENDBRANCH  31  36
ENDBRANCH  30  31
ENDBRANCH  29  30
ENDBRANCH   1  29
TORSDOF 6
