REMARK  Name = CHEMBL271084
REMARK  8 active torsions:
REMARK  status: ('A' for Active; 'I' for Inactive)
REMARK    1  A    between atoms: C_1  and  N_2
REMARK    2  A    between atoms: C_5  and  C_28
REMARK    3  A    between atoms: C_6  and  O_27
REMARK    4  A    between atoms: C_12  and  C_20
REMARK    5  A    between atoms: C_28  and  C_29
REMARK    6  A    between atoms: C_29  and  C_30
REMARK    7  A    between atoms: C_30  and  C_31
REMARK    8  A    between atoms: C_31  and  N_32
REMARK                            x       y       z     vdW  Elec       q    Type
REMARK                         _______ _______ _______ _____ _____    ______ ____
ROOT
ATOM      1  C   UNL     1      -0.018   1.461   0.010  0.00  0.00    +0.149 C 
ATOM      2  N   UNL     1       0.002  -0.004   0.002  0.00  0.00    -0.343 N 
ATOM      3  C   UNL     1       0.008  -0.789  -1.140  0.00  0.00    +0.050 A 
ATOM      4  C   UNL     1      -0.002  -0.470  -2.494  0.00  0.00    +0.033 A 
ATOM      5  C   UNL     1       0.007  -1.471  -3.441  0.00  0.00    -0.004 A 
ATOM      6  C   UNL     1       0.027  -2.808  -3.056  0.00  0.00    +0.121 A 
ATOM      7  C   UNL     1       0.037  -3.144  -1.716  0.00  0.00    +0.056 A 
ATOM      8  C   UNL     1       0.028  -2.137  -0.751  0.00  0.00    +0.012 A 
ATOM      9  C   UNL     1       0.034  -2.149   0.721  0.00  0.00    +0.021 A 
ATOM     10  C   UNL     1       0.024  -0.799   1.131  0.00  0.00    +0.051 A 
ATOM     11  C   UNL     1       0.032  -0.488   2.485  0.00  0.00    +0.035 A 
ATOM     12  C   UNL     1       0.054  -1.501   3.442  0.00  0.00    -0.002 A 
ATOM     13  C   UNL     1       0.069  -2.843   3.044  0.00  0.00    +0.058 A 
ATOM     14  C   UNL     1       0.052  -3.168   1.674  0.00  0.00    +0.059 A 
ATOM     15  C   UNL     1       0.073  -4.642   1.608  0.00  0.00    +0.252 C 
ATOM     16  O   UNL     1       0.078  -5.306   0.591  0.00  0.00    -0.270 OA
ATOM     17  N   UNL     1       0.085  -5.126   2.863  0.00  0.00    -0.248 N 
ATOM     18  C   UNL     1       0.093  -4.128   3.764  0.00  0.00    +0.252 C 
ATOM     19  O   UNL     1       0.106  -4.263   4.972  0.00  0.00    -0.270 OA
ATOM     20  H   UNL     1       0.099  -6.070   3.087  0.00  0.00    +0.158 HD
ENDROOT
BRANCH  12  21
ATOM     21  C   UNL     1       0.063  -1.156   4.883  0.00  0.00    +0.001 A 
ATOM     22  C   UNL     1      -1.036  -0.518   5.457  0.00  0.00    +0.010 A 
ATOM     23  C   UNL     1      -1.023  -0.200   6.799  0.00  0.00    +0.001 A 
ATOM     24  C   UNL     1       0.078  -0.513   7.577  0.00  0.00    +0.001 A 
ATOM     25  C   UNL     1       1.172  -1.146   7.014  0.00  0.00    +0.020 A 
ATOM     26  C   UNL     1       1.168  -1.475   5.673  0.00  0.00    +0.049 A 
ATOM     27 CL   UNL     1       2.539  -2.276   4.970  0.00  0.00    -0.083 Cl
ENDBRANCH  12  21
BRANCH   6  28
ATOM     28  O   UNL     1       0.035  -3.786  -4.001  0.00  0.00    -0.506 OA
ATOM     29  H   UNL     1       0.921  -4.057  -4.279  0.00  0.00    +0.292 HD
ENDBRANCH   6  28
BRANCH   5  30
ATOM     30  C   UNL     1      -0.004  -1.115  -4.905  0.00  0.00    +0.039 C 
BRANCH  30  31
ATOM     31  C   UNL     1       1.416  -1.218  -5.466  0.00  0.00    +0.003 C 
BRANCH  31  32
ATOM     32  C   UNL     1       1.405  -0.857  -6.952  0.00  0.00    -0.018 C 
BRANCH  32  33
ATOM     33  C   UNL     1       2.825  -0.960  -7.513  0.00  0.00    -0.079 C 
BRANCH  33  34
ATOM     34  N   UNL     1       2.814  -0.613  -8.940  0.00  0.00    +0.380 N 
ATOM     35  C   UNL     1       2.519   0.833  -9.114  0.00  0.00    -0.079 C 
ATOM     36  C   UNL     1       3.086   1.144 -10.521  0.00  0.00    -0.020 C 
ATOM     37  C   UNL     1       4.369   0.284 -10.575  0.00  0.00    -0.020 C 
ATOM     38  C   UNL     1       4.156  -0.823  -9.526  0.00  0.00    -0.079 C 
ATOM     39  H   UNL     1       2.130  -1.170  -9.429  0.00  0.00    -0.082 HD
ENDBRANCH  33  34
ENDBRANCH  32  33
ENDBRANCH  31  32
ENDBRANCH  30  31
ENDBRANCH   5  30
TORSDOF 7
