REMARK  Name = CHEMBL483800
REMARK  6 active torsions:
REMARK  status: ('A' for Active; 'I' for Inactive)
REMARK    1  A    between atoms: C_4  and  N_7
REMARK    2  A    between atoms: N_7  and  C_8
REMARK    3  A    between atoms: C_8  and  C_9
REMARK    4  A    between atoms: C_9  and  C_10
REMARK    5  A    between atoms: C_10  and  N_11
REMARK    6  A    between atoms: C_15  and  O_29
REMARK                            x       y       z     vdW  Elec       q    Type
REMARK                         _______ _______ _______ _____ _____    ______ ____
ROOT
ATOM      1  N   UNL     1       6.502  -4.600  -0.086  0.00  0.00    -0.340 N 
ATOM      2  C   UNL     1       7.242  -4.841  -1.232  0.00  0.00    +0.050 A 
ATOM      3  C   UNL     1       6.936  -4.727  -2.584  0.00  0.00    +0.030 A 
ATOM      4  C   UNL     1       7.882  -5.039  -3.537  0.00  0.00    +0.047 A 
ATOM      5  C   UNL     1       9.150  -5.468  -3.159  0.00  0.00    +0.118 A 
ATOM      6  C   UNL     1       9.473  -5.587  -1.821  0.00  0.00    +0.056 A 
ATOM      7  C   UNL     1       8.521  -5.274  -0.850  0.00  0.00    +0.012 A 
ATOM      8  C   UNL     1       8.536  -5.290   0.622  0.00  0.00    +0.021 A 
ATOM      9  C   UNL     1       7.260  -4.857   1.038  0.00  0.00    +0.051 A 
ATOM     10  C   UNL     1       6.975  -4.765   2.397  0.00  0.00    +0.027 A 
ATOM     11  C   UNL     1       7.931  -5.089   3.340  0.00  0.00    +0.016 A 
ATOM     12  C   UNL     1       9.193  -5.513   2.943  0.00  0.00    +0.050 A 
ATOM     13  C   UNL     1       9.501  -5.621   1.573  0.00  0.00    +0.059 A 
ATOM     14  C   UNL     1      10.898  -6.090   1.507  0.00  0.00    +0.252 C 
ATOM     15  O   UNL     1      11.530  -6.295   0.490  0.00  0.00    -0.270 OA
ATOM     16  N   UNL     1      11.355  -6.253   2.761  0.00  0.00    -0.248 N 
ATOM     17  C   UNL     1      10.413  -5.926   3.664  0.00  0.00    +0.251 C 
ATOM     18  O   UNL     1      10.542  -5.972   4.872  0.00  0.00    -0.270 OA
ATOM     19  H   UNL     1      12.249  -6.556   2.985  0.00  0.00    +0.158 HD
ENDROOT
BRANCH   5  20
ATOM     20  O   UNL     1      10.074  -5.773  -4.110  0.00  0.00    -0.507 OA
ATOM     21  H   UNL     1      10.623  -5.024  -4.379  0.00  0.00    +0.292 HD
ENDBRANCH   5  20
BRANCH   1  22
ATOM     22  C   UNL     1       5.114  -4.132  -0.070  0.00  0.00    +0.124 C 
BRANCH  22  23
ATOM     23  C   UNL     1       5.091  -2.602  -0.061  0.00  0.00    +0.040 C 
BRANCH  23  24
ATOM     24  C   UNL     1       3.641  -2.114  -0.044  0.00  0.00    +0.103 C 
BRANCH  24  25
ATOM     25  N   UNL     1       3.620  -0.649  -0.036  0.00  0.00    -0.344 N 
ATOM     26  H   UNL     1       4.452  -0.152  -0.042  0.00  0.00    +0.146 HD
BRANCH  25  30
ATOM     27  C   UNL     1      -0.017   1.379   0.010  0.00  0.00    +0.000 A 
ATOM     28  C   UNL     1       1.169   2.089   0.002  0.00  0.00    +0.002 A 
ATOM     29  C   UNL     1       2.377   1.420  -0.013  0.00  0.00    +0.023 A 
ATOM     30  C   UNL     1       2.400   0.031  -0.021  0.00  0.00    +0.027 A 
ATOM     31  C   UNL     1       1.206  -0.680  -0.013  0.00  0.00    +0.023 A 
ATOM     32  C   UNL     1       0.002  -0.004   0.002  0.00  0.00    +0.002 A 
ENDBRANCH  25  30
ENDBRANCH  24  25
ENDBRANCH  23  24
ENDBRANCH  22  23
ENDBRANCH   1  22
TORSDOF 6
