REMARK  Name = CHEMBL181233
REMARK  4 active torsions:
REMARK  status: ('A' for Active; 'I' for Inactive)
REMARK    1  A    between atoms: C_1  and  N_2
REMARK    2  A    between atoms: C_6  and  C_9
REMARK    3  A    between atoms: C_13  and  O_16
REMARK    4  A    between atoms: N_22  and  C_23
REMARK                            x       y       z     vdW  Elec       q    Type
REMARK                         _______ _______ _______ _____ _____    ______ ____
ROOT
ATOM      1  C   UNL     1      -0.052   1.410   0.707  0.00  0.00    +0.154 C 
ATOM      2  N   UNL     1      -0.022  -0.041   0.501  0.00  0.00    -0.295 N 
ATOM      3  C   UNL     1      -1.194  -0.720   0.283  0.00  0.00    +0.148 A 
ATOM      4  C   UNL     1      -1.183  -2.117   0.083  0.00  0.00    +0.037 A 
ATOM      5  C   UNL     1       0.038  -2.829   0.104  0.00  0.00    +0.027 A 
ATOM      6  C   UNL     1       1.202  -2.143   0.323  0.00  0.00    +0.050 A 
ATOM      7  C   UNL     1       1.156  -0.693   0.522  0.00  0.00    +0.260 A 
ATOM      8  O   UNL     1       2.188  -0.074   0.712  0.00  0.00    -0.267 OA
ATOM      9  C   UNL     1      -2.404  -2.773  -0.138  0.00  0.00    +0.126 A 
ATOM     10  N   UNL     1      -3.513  -2.058  -0.148  0.00  0.00    -0.222 NA
ATOM     11  C   UNL     1      -3.485  -0.743   0.045  0.00  0.00    +0.221 A 
ATOM     12  N   UNL     1      -2.358  -0.080   0.256  0.00  0.00    -0.196 NA
ATOM     13  N   UNL     1      -4.676  -0.042   0.023  0.00  0.00    -0.284 N 
ATOM     14  H   UNL     1      -4.670   0.926   0.081  0.00  0.00    +0.155 HD
ENDROOT
BRANCH   6  15
ATOM     15  C   UNL     1       2.498  -2.860   0.352  0.00  0.00    +0.027 A 
ATOM     16  C   UNL     1       2.987  -3.376   1.553  0.00  0.00    +0.050 A 
ATOM     17  C   UNL     1       4.195  -4.044   1.576  0.00  0.00    +0.024 A 
ATOM     18  C   UNL     1       4.924  -4.204   0.412  0.00  0.00    +0.048 A 
ATOM     19  C   UNL     1       4.446  -3.695  -0.787  0.00  0.00    +0.136 A 
ATOM     20  C   UNL     1       3.232  -3.028  -0.822  0.00  0.00    +0.092 A 
ATOM     21 CL   UNL     1       2.629  -2.396  -2.323  0.00  0.00    -0.079 Cl
ATOM     22 CL   UNL     1       2.076  -3.178   3.018  0.00  0.00    -0.083 Cl
BRANCH  19  23
ATOM     23  O   UNL     1       5.167  -3.855  -1.928  0.00  0.00    -0.505 OA
ATOM     24  H   UNL     1       4.957  -4.663  -2.416  0.00  0.00    +0.292 HD
ENDBRANCH  19  23
ENDBRANCH   6  15
BRANCH  13  25
ATOM     25  C   UNL     1      -5.889  -0.729  -0.081  0.00  0.00    +0.034 A 
ATOM     26  C   UNL     1      -6.035  -1.978   0.508  0.00  0.00    +0.023 A 
ATOM     27  C   UNL     1      -7.235  -2.653   0.403  0.00  0.00    +0.002 A 
ATOM     28  C   UNL     1      -8.291  -2.088  -0.288  0.00  0.00    +0.000 A 
ATOM     29  C   UNL     1      -8.148  -0.844  -0.877  0.00  0.00    +0.002 A 
ATOM     30  C   UNL     1      -6.953  -0.161  -0.770  0.00  0.00    +0.023 A 
ENDBRANCH  13  25
TORSDOF 3
