REMARK  Name = CHEMBL519238
REMARK  6 active torsions:
REMARK  status: ('A' for Active; 'I' for Inactive)
REMARK    1  A    between atoms: C_4  and  C_7
REMARK    2  A    between atoms: C_13  and  O_26
REMARK    3  A    between atoms: N_17  and  C_18
REMARK    4  A    between atoms: C_18  and  C_19
REMARK    5  A    between atoms: C_19  and  C_20
REMARK    6  A    between atoms: C_20  and  N_21
REMARK                            x       y       z     vdW  Elec       q    Type
REMARK                         _______ _______ _______ _____ _____    ______ ____
ROOT
ATOM      1  C   UNL     1       3.697  -0.687  -0.038  0.00  0.00    -0.003 A 
ATOM      2  C   UNL     1       4.675  -0.338  -0.968  0.00  0.00    +0.035 A 
ATOM      3  C   UNL     1       5.892  -1.006  -0.994  0.00  0.00    +0.051 A 
ATOM      4  C   UNL     1       6.142  -2.046  -0.073  0.00  0.00    +0.021 A 
ATOM      5  C   UNL     1       7.499  -2.539  -0.361  0.00  0.00    +0.012 A 
ATOM      6  C   UNL     1       8.293  -3.539   0.200  0.00  0.00    +0.056 A 
ATOM      7  C   UNL     1       9.559  -3.772  -0.304  0.00  0.00    +0.118 A 
ATOM      8  C   UNL     1      10.039  -3.011  -1.365  0.00  0.00    +0.047 A 
ATOM      9  C   UNL     1       9.261  -2.021  -1.925  0.00  0.00    +0.030 A 
ATOM     10  C   UNL     1       7.984  -1.773  -1.431  0.00  0.00    +0.050 A 
ATOM     11  N   UNL     1       7.007  -0.861  -1.796  0.00  0.00    -0.340 N 
ATOM     12  C   UNL     1       5.168  -2.400   0.861  0.00  0.00    +0.059 A 
ATOM     13  C   UNL     1       3.939  -1.713   0.883  0.00  0.00    +0.058 A 
ATOM     14  C   UNL     1       3.155  -2.319   1.974  0.00  0.00    +0.252 C 
ATOM     15  O   UNL     1       2.031  -1.997   2.302  0.00  0.00    -0.270 OA
ATOM     16  N   UNL     1       3.893  -3.289   2.545  0.00  0.00    -0.248 N 
ATOM     17  C   UNL     1       5.088  -3.405   1.939  0.00  0.00    +0.252 C 
ATOM     18  O   UNL     1       5.962  -4.194   2.239  0.00  0.00    -0.270 OA
ATOM     19  H   UNL     1       3.598  -3.837   3.288  0.00  0.00    +0.158 HD
ENDROOT
BRANCH   1  23
ATOM     20  C   UNL     1      -0.017   1.379   0.010  0.00  0.00    +0.000 A 
ATOM     21  C   UNL     1       1.169   2.093   0.002  0.00  0.00    +0.001 A 
ATOM     22  C   UNL     1       2.377   1.428  -0.013  0.00  0.00    +0.008 A 
ATOM     23  C   UNL     1       2.403   0.033  -0.021  0.00  0.00    -0.017 A 
ATOM     24  C   UNL     1       1.205  -0.680  -0.013  0.00  0.00    +0.008 A 
ATOM     25  C   UNL     1       0.002  -0.004   0.002  0.00  0.00    +0.001 A 
ENDBRANCH   1  23
BRANCH   7  26
ATOM     26  O   UNL     1      10.338  -4.746   0.240  0.00  0.00    -0.507 OA
ATOM     27  H   UNL     1      10.228  -5.613  -0.174  0.00  0.00    +0.292 HD
ENDBRANCH   7  26
BRANCH  11  28
ATOM     28  C   UNL     1       7.138   0.118  -2.877  0.00  0.00    +0.124 C 
BRANCH  28  29
ATOM     29  C   UNL     1       7.729   1.416  -2.322  0.00  0.00    +0.043 C 
BRANCH  29  30
ATOM     30  C   UNL     1       7.865   2.438  -3.451  0.00  0.00    +0.124 C 
BRANCH  30  31
ATOM     31  N   UNL     1       8.431   3.681  -2.920  0.00  0.00    -0.338 N 
ATOM     32  C   UNL     1       7.730   4.738  -2.406  0.00  0.00    +0.104 A 
ATOM     33  C   UNL     1       8.636   5.663  -2.034  0.00  0.00    +0.101 A 
ATOM     34  N   UNL     1       9.857   5.183  -2.313  0.00  0.00    -0.352 N 
ATOM     35  C   UNL     1       9.742   3.994  -2.839  0.00  0.00    +0.173 A 
ATOM     36  H   UNL     1      10.693   5.645  -2.147  0.00  0.00    +0.166 HD
ENDBRANCH  30  31
ENDBRANCH  29  30
ENDBRANCH  28  29
ENDBRANCH  11  28
TORSDOF 6
