REMARK  Name = CHEMBL362862
REMARK  11 active torsions:
REMARK  status: ('A' for Active; 'I' for Inactive)
REMARK    1  A    between atoms: C_1  and  N_2
REMARK    2  A    between atoms: C_6  and  C_9
REMARK    3  A    between atoms: N_21  and  C_22
REMARK    4  A    between atoms: C_25  and  C_28
REMARK    5  A    between atoms: C_28  and  C_29
REMARK    6  A    between atoms: C_29  and  C_30
REMARK    7  A    between atoms: C_30  and  C_31
REMARK    8  A    between atoms: C_31  and  O_33
REMARK    9  A    between atoms: O_33  and  C_34
REMARK   10  A    between atoms: C_34  and  C_35
REMARK   11  A    between atoms: C_35  and  N_36
REMARK                            x       y       z     vdW  Elec       q    Type
REMARK                         _______ _______ _______ _____ _____    ______ ____
ROOT
ATOM      1  C   UNL     1      -0.445   1.298  -1.490  0.00  0.00    +0.154 C 
ATOM      2  N   UNL     1      -0.572   0.042  -2.234  0.00  0.00    -0.295 N 
ATOM      3  C   UNL     1      -1.787  -0.592  -2.293  0.00  0.00    +0.148 A 
ATOM      4  C   UNL     1      -1.927  -1.803  -3.006  0.00  0.00    +0.037 A 
ATOM      5  C   UNL     1      -0.814  -2.373  -3.665  0.00  0.00    +0.027 A 
ATOM      6  C   UNL     1       0.395  -1.734  -3.600  0.00  0.00    +0.050 A 
ATOM      7  C   UNL     1       0.504  -0.477  -2.856  0.00  0.00    +0.260 A 
ATOM      8  O   UNL     1       1.575   0.101  -2.797  0.00  0.00    -0.267 OA
ATOM      9  C   UNL     1      -3.188  -2.418  -3.043  0.00  0.00    +0.126 A 
ATOM     10  N   UNL     1      -4.191  -1.840  -2.410  0.00  0.00    -0.222 NA
ATOM     11  C   UNL     1      -4.023  -0.700  -1.749  0.00  0.00    +0.221 A 
ATOM     12  N   UNL     1      -2.853  -0.082  -1.686  0.00  0.00    -0.196 NA
ATOM     13  N   UNL     1      -5.108  -0.138  -1.104  0.00  0.00    -0.284 N 
ATOM     14  H   UNL     1      -5.026   0.734  -0.686  0.00  0.00    +0.155 HD
ENDROOT
BRANCH   6  15
ATOM     15  C   UNL     1       1.581  -2.306  -4.279  0.00  0.00    +0.024 A 
ATOM     16  C   UNL     1       2.412  -3.200  -3.603  0.00  0.00    +0.050 A 
ATOM     17  C   UNL     1       3.515  -3.731  -4.242  0.00  0.00    +0.021 A 
ATOM     18  C   UNL     1       3.797  -3.377  -5.550  0.00  0.00    +0.003 A 
ATOM     19  C   UNL     1       2.978  -2.491  -6.225  0.00  0.00    +0.021 A 
ATOM     20  C   UNL     1       1.868  -1.958  -5.599  0.00  0.00    +0.050 A 
ATOM     21 CL   UNL     1       0.836  -0.851  -6.451  0.00  0.00    -0.083 Cl
ATOM     22 CL   UNL     1       2.060  -3.645  -1.962  0.00  0.00    -0.083 Cl
ENDBRANCH   6  15
BRANCH  13  23
ATOM     23  C   UNL     1      -6.324  -0.826  -1.052  0.00  0.00    +0.034 A 
ATOM     24  C   UNL     1      -6.337  -2.206  -0.897  0.00  0.00    +0.023 A 
ATOM     25  C   UNL     1      -7.540  -2.882  -0.847  0.00  0.00    +0.005 A 
ATOM     26  C   UNL     1      -8.730  -2.187  -0.952  0.00  0.00    -0.047 A 
ATOM     27  C   UNL     1      -8.721  -0.813  -1.107  0.00  0.00    +0.005 A 
ATOM     28  C   UNL     1      -7.522  -0.130  -1.151  0.00  0.00    +0.023 A 
BRANCH  26  29
ATOM     29  C   UNL     1     -10.041  -2.929  -0.897  0.00  0.00    +0.035 C 
BRANCH  29  30
ATOM     30  C   UNL     1     -10.517  -3.018   0.555  0.00  0.00    +0.016 C 
BRANCH  30  31
ATOM     31  C   UNL     1     -11.847  -3.771   0.610  0.00  0.00    +0.121 C 
BRANCH  31  32
ATOM     32  C   UNL     1     -12.315  -3.859   2.040  0.00  0.00    +0.307 C 
ATOM     33  O   UNL     1     -11.652  -3.370   2.924  0.00  0.00    -0.251 OA
BRANCH  32  34
ATOM     34  O   UNL     1     -13.469  -4.481   2.331  0.00  0.00    -0.467 OA
BRANCH  34  35
ATOM     35  C   UNL     1     -13.851  -4.527   3.708  0.00  0.00    +0.213 C 
BRANCH  35  36
ATOM     36  C   UNL     1     -15.182  -5.270   3.842  0.00  0.00    -0.037 C 
BRANCH  36  37
ATOM     37  N   UNL     1     -15.009  -6.665   3.416  0.00  0.00    +0.385 N 
ATOM     38  C   UNL     1     -16.316  -7.337   3.400  0.00  0.00    -0.050 C 
ATOM     39  C   UNL     1     -16.133  -8.791   2.955  0.00  0.00    +0.141 C 
ATOM     40  O   UNL     1     -15.217  -9.443   3.839  0.00  0.00    -0.383 OA
ATOM     41  C   UNL     1     -13.936  -8.810   3.906  0.00  0.00    +0.141 C 
ATOM     42  C   UNL     1     -14.114  -7.357   4.353  0.00  0.00    -0.050 C 
ATOM     43  H   UNL     1     -14.609  -6.686   2.490  0.00  0.00    -0.081 HD
ENDBRANCH  36  37
ENDBRANCH  35  36
ENDBRANCH  34  35
ENDBRANCH  32  34
ENDBRANCH  31  32
ENDBRANCH  30  31
ENDBRANCH  29  30
ENDBRANCH  26  29
ENDBRANCH  13  23
TORSDOF 10
