REMARK  Name = CHEMBL515352
REMARK  7 active torsions:
REMARK  status: ('A' for Active; 'I' for Inactive)
REMARK    1  A    between atoms: C_4  and  S_7
REMARK    2  A    between atoms: S_7  and  N_10
REMARK    3  A    between atoms: C_11  and  C_13
REMARK    4  A    between atoms: C_13  and  C_14
REMARK    5  A    between atoms: C_14  and  N_15
REMARK    6  A    between atoms: C_19  and  O_40
REMARK    7  A    between atoms: C_25  and  C_33
REMARK                            x       y       z     vdW  Elec       q    Type
REMARK                         _______ _______ _______ _____ _____    ______ ____
ROOT
ATOM      1  N   UNL     1       5.214  -1.543   5.564  0.00  0.00    -0.339 N 
ATOM      2  C   UNL     1       4.876  -2.656   6.316  0.00  0.00    +0.050 A 
ATOM      3  C   UNL     1       4.136  -3.796   6.018  0.00  0.00    +0.030 A 
ATOM      4  C   UNL     1       3.950  -4.770   6.975  0.00  0.00    +0.047 A 
ATOM      5  C   UNL     1       4.497  -4.626   8.246  0.00  0.00    +0.118 A 
ATOM      6  C   UNL     1       5.235  -3.500   8.560  0.00  0.00    +0.056 A 
ATOM      7  C   UNL     1       5.428  -2.510   7.597  0.00  0.00    +0.012 A 
ATOM      8  C   UNL     1       6.141  -1.222   7.602  0.00  0.00    +0.021 A 
ATOM      9  C   UNL     1       5.979  -0.671   6.313  0.00  0.00    +0.051 A 
ATOM     10  C   UNL     1       6.553   0.556   6.010  0.00  0.00    +0.035 A 
ATOM     11  C   UNL     1       7.293   1.247   6.968  0.00  0.00    -0.002 A 
ATOM     12  C   UNL     1       7.463   0.705   8.248  0.00  0.00    +0.058 A 
ATOM     13  C   UNL     1       6.877  -0.535   8.568  0.00  0.00    +0.059 A 
ATOM     14  C   UNL     1       7.245  -0.806   9.971  0.00  0.00    +0.252 C 
ATOM     15  O   UNL     1       6.934  -1.793  10.608  0.00  0.00    -0.270 OA
ATOM     16  N   UNL     1       7.981   0.223  10.427  0.00  0.00    -0.248 N 
ATOM     17  C   UNL     1       8.161   1.149   9.467  0.00  0.00    +0.252 C 
ATOM     18  O   UNL     1       8.785   2.184   9.589  0.00  0.00    -0.270 OA
ATOM     19  H   UNL     1       8.345   0.284  11.324  0.00  0.00    +0.158 HD
ENDROOT
BRANCH  11  20
ATOM     20  C   UNL     1       7.901   2.555   6.632  0.00  0.00    +0.001 A 
ATOM     21  C   UNL     1       7.088   3.651   6.343  0.00  0.00    +0.010 A 
ATOM     22  C   UNL     1       7.659   4.867   6.031  0.00  0.00    +0.001 A 
ATOM     23  C   UNL     1       9.036   5.002   6.005  0.00  0.00    +0.001 A 
ATOM     24  C   UNL     1       9.849   3.920   6.290  0.00  0.00    +0.020 A 
ATOM     25  C   UNL     1       9.289   2.698   6.609  0.00  0.00    +0.049 A 
ATOM     26 CL   UNL     1      10.309   1.342   6.974  0.00  0.00    -0.083 Cl
ENDBRANCH  11  20
BRANCH   5  27
ATOM     27  O   UNL     1       4.306  -5.595   9.181  0.00  0.00    -0.507 OA
ATOM     28  H   UNL     1       4.986  -6.282   9.181  0.00  0.00    +0.292 HD
ENDBRANCH   5  27
BRANCH   1  29
ATOM     29  C   UNL     1       4.821  -1.324   4.169  0.00  0.00    +0.132 C 
BRANCH  29  30
ATOM     30  C   UNL     1       5.883  -1.919   3.241  0.00  0.00    +0.123 C 
BRANCH  30  32
ATOM     31  N   UNL     1       4.378  -1.079   1.536  0.00  0.00    -0.091 NA
ATOM     32  C   UNL     1       5.479  -1.694   1.807  0.00  0.00    +0.266 C 
ATOM     33  O   UNL     1       6.268  -2.137   0.806  0.00  0.00    -0.269 OA
BRANCH  31  34
ATOM     34  S   UNL     1       3.934  -0.832  -0.041  0.00  0.00    +0.102 S 
ATOM     35  O   UNL     1       3.674  -2.114  -0.595  0.00  0.00    -0.146 OA
ATOM     36  O   UNL     1       4.890   0.060  -0.597  0.00  0.00    -0.146 OA
BRANCH  34  40
ATOM     37  C   UNL     1      -0.017   1.378   0.010  0.00  0.00    +0.000 A 
ATOM     38  C   UNL     1       1.171   2.086   0.002  0.00  0.00    +0.002 A 
ATOM     39  C   UNL     1       2.377   1.411  -0.013  0.00  0.00    +0.029 A 
ATOM     40  C   UNL     1       2.396   0.029  -0.020  0.00  0.00    +0.113 A 
ATOM     41  C   UNL     1       1.208  -0.679  -0.012  0.00  0.00    +0.029 A 
ATOM     42  C   UNL     1       0.002  -0.004   0.002  0.00  0.00    +0.002 A 
ENDBRANCH  34  40
ENDBRANCH  31  34
ENDBRANCH  30  32
ENDBRANCH  29  30
ENDBRANCH   1  29
TORSDOF 7
