REMARK  Name = CHEMBL378756
REMARK  2 active torsions:
REMARK  status: ('A' for Active; 'I' for Inactive)
REMARK    1  A    between atoms: C_4  and  C_7
REMARK    2  A    between atoms: C_13  and  O_18
REMARK                            x       y       z     vdW  Elec       q    Type
REMARK                         _______ _______ _______ _____ _____    ______ ____
ROOT
ATOM      1  C   UNL     1       3.697  -0.687  -0.038  0.00  0.00    -0.004 A 
ATOM      2  C   UNL     1       4.684  -0.346  -0.965  0.00  0.00    +0.025 A 
ATOM      3  C   UNL     1       5.886  -1.020  -0.975  0.00  0.00    +0.022 A 
ATOM      4  C   UNL     1       6.178  -2.065  -0.073  0.00  0.00    +0.010 A 
ATOM      5  C   UNL     1       7.513  -2.683  -0.219  0.00  0.00    +0.001 A 
ATOM      6  C   UNL     1       8.051  -3.739   0.550  0.00  0.00    +0.055 A 
ATOM      7  C   UNL     1       9.317  -4.215   0.297  0.00  0.00    +0.118 A 
ATOM      8  C   UNL     1      10.099  -3.671  -0.717  0.00  0.00    +0.046 A 
ATOM      9  C   UNL     1       9.595  -2.638  -1.482  0.00  0.00    +0.019 A 
ATOM     10  C   UNL     1       8.326  -2.157  -1.234  0.00  0.00    +0.021 A 
ATOM     11  S   UNL     1       7.346  -0.877  -1.975  0.00  0.00    -0.088 S 
ATOM     12  C   UNL     1       5.173  -2.402   0.861  0.00  0.00    +0.059 A 
ATOM     13  C   UNL     1       3.950  -1.716   0.879  0.00  0.00    +0.058 A 
ATOM     14  C   UNL     1       3.164  -2.321   1.971  0.00  0.00    +0.252 C 
ATOM     15  O   UNL     1       2.039  -1.998   2.298  0.00  0.00    -0.270 OA
ATOM     16  N   UNL     1       3.900  -3.291   2.542  0.00  0.00    -0.248 N 
ATOM     17  C   UNL     1       5.097  -3.408   1.938  0.00  0.00    +0.252 C 
ATOM     18  O   UNL     1       5.970  -4.197   2.236  0.00  0.00    -0.270 OA
ATOM     19  H   UNL     1       3.604  -3.840   3.286  0.00  0.00    +0.158 HD
ENDROOT
BRANCH   1  23
ATOM     20  C   UNL     1      -0.017   1.379   0.010  0.00  0.00    +0.000 A 
ATOM     21  C   UNL     1       1.169   2.093   0.002  0.00  0.00    +0.001 A 
ATOM     22  C   UNL     1       2.377   1.428  -0.013  0.00  0.00    +0.008 A 
ATOM     23  C   UNL     1       2.403   0.033  -0.021  0.00  0.00    -0.017 A 
ATOM     24  C   UNL     1       1.205  -0.680  -0.013  0.00  0.00    +0.008 A 
ATOM     25  C   UNL     1       0.002  -0.004   0.002  0.00  0.00    +0.001 A 
ENDBRANCH   1  23
BRANCH   7  26
ATOM     26  O   UNL     1       9.813  -5.232   1.051  0.00  0.00    -0.507 OA
ATOM     27  H   UNL     1       9.622  -6.112   0.699  0.00  0.00    +0.292 HD
ENDBRANCH   7  26
TORSDOF 2
