REMARK  Name = CHEMBL272946
REMARK  7 active torsions:
REMARK  status: ('A' for Active; 'I' for Inactive)
REMARK    1  A    between atoms: C_5  and  C_7
REMARK    2  A    between atoms: C_13  and  O_28
REMARK    3  A    between atoms: C_14  and  C_19
REMARK    4  A    between atoms: C_19  and  C_20
REMARK    5  A    between atoms: C_20  and  C_21
REMARK    6  A    between atoms: C_21  and  C_22
REMARK    7  A    between atoms: C_22  and  N_23
REMARK                            x       y       z     vdW  Elec       q    Type
REMARK                         _______ _______ _______ _____ _____    ______ ____
ROOT
ATOM      1  C   UNL     1       1.248  -2.163  -0.022  0.00  0.00    -0.002 A 
ATOM      2  C   UNL     1       0.744  -2.862  -1.118  0.00  0.00    +0.035 A 
ATOM      3  C   UNL     1       0.764  -4.250  -1.137  0.00  0.00    +0.049 A 
ATOM      4  C   UNL     1       1.298  -4.960  -0.041  0.00  0.00    +0.020 A 
ATOM      5  C   UNL     1       1.171  -6.390  -0.369  0.00  0.00    +0.012 A 
ATOM      6  C   UNL     1       1.514  -7.561   0.305  0.00  0.00    +0.056 A 
ATOM      7  C   UNL     1       1.262  -8.788  -0.280  0.00  0.00    +0.121 A 
ATOM      8  C   UNL     1       0.668  -8.853  -1.536  0.00  0.00    -0.004 A 
ATOM      9  C   UNL     1       0.327  -7.701  -2.210  0.00  0.00    +0.033 A 
ATOM     10  C   UNL     1       0.572  -6.457  -1.636  0.00  0.00    +0.048 A 
ATOM     11  N   UNL     1       0.337  -5.166  -2.079  0.00  0.00    -0.354 N 
ATOM     12  H   UNL     1      -0.071  -4.937  -2.929  0.00  0.00    +0.166 HD
ATOM     13  C   UNL     1       1.804  -4.267   1.060  0.00  0.00    +0.059 A 
ATOM     14  C   UNL     1       1.784  -2.860   1.068  0.00  0.00    +0.058 A 
ATOM     15  C   UNL     1       2.388  -2.453   2.349  0.00  0.00    +0.252 C 
ATOM     16  O   UNL     1       2.545  -1.309   2.727  0.00  0.00    -0.270 OA
ATOM     17  N   UNL     1       2.738  -3.560   3.029  0.00  0.00    -0.248 N 
ATOM     18  C   UNL     1       2.418  -4.670   2.339  0.00  0.00    +0.252 C 
ATOM     19  O   UNL     1       2.614  -5.812   2.704  0.00  0.00    -0.270 OA
ATOM     20  H   UNL     1       3.157  -3.558   3.904  0.00  0.00    +0.158 HD
ENDROOT
BRANCH   1  25
ATOM     21  C   UNL     1      -0.017   1.375   0.010  0.00  0.00    +0.001 A 
ATOM     22  C   UNL     1       1.170   2.087   0.002  0.00  0.00    +0.001 A 
ATOM     23  C   UNL     1       2.382   1.421  -0.013  0.00  0.00    +0.020 A 
ATOM     24  C   UNL     1       2.415   0.040  -0.021  0.00  0.00    +0.049 A 
ATOM     25  C   UNL     1       1.221  -0.682  -0.013  0.00  0.00    +0.001 A 
ATOM     26  C   UNL     1       0.002  -0.004   0.002  0.00  0.00    +0.010 A 
ATOM     27 CL   UNL     1       3.937  -0.794  -0.042  0.00  0.00    -0.083 Cl
ENDBRANCH   1  25
BRANCH   7  28
ATOM     28  O   UNL     1       1.594  -9.933   0.374  0.00  0.00    -0.506 OA
ATOM     29  H   UNL     1       0.892 -10.280   0.941  0.00  0.00    +0.292 HD
ENDBRANCH   7  28
BRANCH   8  30
ATOM     30  C   UNL     1       0.398 -10.195  -2.166  0.00  0.00    +0.039 C 
BRANCH  30  31
ATOM     31  C   UNL     1       1.687 -10.737  -2.786  0.00  0.00    +0.003 C 
BRANCH  31  32
ATOM     32  C   UNL     1       1.412 -12.100  -3.425  0.00  0.00    -0.018 C 
BRANCH  32  33
ATOM     33  C   UNL     1       2.702 -12.642  -4.045  0.00  0.00    -0.079 C 
BRANCH  33  34
ATOM     34  N   UNL     1       2.438 -13.950  -4.659  0.00  0.00    +0.380 N 
ATOM     35  C   UNL     1       1.566 -13.790  -5.851  0.00  0.00    -0.079 C 
ATOM     36  C   UNL     1       1.843 -15.076  -6.669  0.00  0.00    -0.020 C 
ATOM     37  C   UNL     1       3.357 -15.303  -6.453  0.00  0.00    -0.020 C 
ATOM     38  C   UNL     1       3.698 -14.543  -5.158  0.00  0.00    -0.079 C 
ATOM     39  H   UNL     1       2.003 -14.568  -3.990  0.00  0.00    -0.082 HD
ENDBRANCH  33  34
ENDBRANCH  32  33
ENDBRANCH  31  32
ENDBRANCH  30  31
ENDBRANCH   8  30
TORSDOF 7
