REMARK  Name = CHEMBL441695
REMARK  2 active torsions:
REMARK  status: ('A' for Active; 'I' for Inactive)
REMARK    1  A    between atoms: C_4  and  C_7
REMARK    2  A    between atoms: C_13  and  O_18
REMARK                            x       y       z     vdW  Elec       q    Type
REMARK                         _______ _______ _______ _____ _____    ______ ____
ROOT
ATOM      1  C   UNL     1       3.697  -0.687  -0.037  0.00  0.00    -0.002 A 
ATOM      2  C   UNL     1       4.676  -0.338  -0.967  0.00  0.00    +0.056 A 
ATOM      3  C   UNL     1       5.892  -1.004  -0.993  0.00  0.00    +0.138 A 
ATOM      4  C   UNL     1       6.140  -2.042  -0.072  0.00  0.00    +0.041 A 
ATOM      5  C   UNL     1       7.500  -2.522  -0.372  0.00  0.00    +0.032 A 
ATOM      6  C   UNL     1       8.315  -3.513   0.169  0.00  0.00    +0.057 A 
ATOM      7  C   UNL     1       9.578  -3.722  -0.354  0.00  0.00    +0.118 A 
ATOM      8  C   UNL     1      10.029  -2.945  -1.415  0.00  0.00    +0.049 A 
ATOM      9  C   UNL     1       9.227  -1.962  -1.955  0.00  0.00    +0.050 A 
ATOM     10  C   UNL     1       7.955  -1.738  -1.442  0.00  0.00    +0.136 A 
ATOM     11  O   UNL     1       6.983  -0.860  -1.776  0.00  0.00    -0.455 OA
ATOM     12  C   UNL     1       5.168  -2.398   0.862  0.00  0.00    +0.061 A 
ATOM     13  C   UNL     1       3.938  -1.712   0.883  0.00  0.00    +0.058 A 
ATOM     14  C   UNL     1       3.155  -2.319   1.974  0.00  0.00    +0.252 C 
ATOM     15  O   UNL     1       2.030  -1.998   2.303  0.00  0.00    -0.270 OA
ATOM     16  N   UNL     1       3.893  -3.289   2.545  0.00  0.00    -0.248 N 
ATOM     17  C   UNL     1       5.088  -3.404   1.939  0.00  0.00    +0.252 C 
ATOM     18  O   UNL     1       5.963  -4.192   2.239  0.00  0.00    -0.270 OA
ATOM     19  H   UNL     1       3.599  -3.838   3.288  0.00  0.00    +0.158 HD
ENDROOT
BRANCH   1  23
ATOM     20  C   UNL     1      -0.017   1.379   0.010  0.00  0.00    +0.000 A 
ATOM     21  C   UNL     1       1.169   2.093   0.002  0.00  0.00    +0.001 A 
ATOM     22  C   UNL     1       2.377   1.428  -0.013  0.00  0.00    +0.008 A 
ATOM     23  C   UNL     1       2.403   0.033  -0.021  0.00  0.00    -0.017 A 
ATOM     24  C   UNL     1       1.205  -0.680  -0.013  0.00  0.00    +0.008 A 
ATOM     25  C   UNL     1       0.002  -0.004   0.002  0.00  0.00    +0.001 A 
ENDBRANCH   1  23
BRANCH   7  26
ATOM     26  O   UNL     1      10.380  -4.688   0.169  0.00  0.00    -0.507 OA
ATOM     27  H   UNL     1      10.278  -5.553  -0.251  0.00  0.00    +0.292 HD
ENDBRANCH   7  26
TORSDOF 2
