REMARK  Name = CHEMBL460079
REMARK  7 active torsions:
REMARK  status: ('A' for Active; 'I' for Inactive)
REMARK    1  A    between atoms: C_4  and  N_7
REMARK    2  A    between atoms: N_7  and  C_8
REMARK    3  A    between atoms: C_8  and  C_9
REMARK    4  A    between atoms: C_9  and  C_10
REMARK    5  A    between atoms: C_10  and  N_11
REMARK    6  A    between atoms: C_15  and  O_36
REMARK    7  A    between atoms: C_21  and  C_29
REMARK                            x       y       z     vdW  Elec       q    Type
REMARK                         _______ _______ _______ _____ _____    ______ ____
ROOT
ATOM      1  N   UNL     1       6.502  -4.600  -0.086  0.00  0.00    -0.340 N 
ATOM      2  C   UNL     1       7.243  -4.841  -1.232  0.00  0.00    +0.050 A 
ATOM      3  C   UNL     1       6.936  -4.727  -2.584  0.00  0.00    +0.030 A 
ATOM      4  C   UNL     1       7.882  -5.039  -3.537  0.00  0.00    +0.047 A 
ATOM      5  C   UNL     1       9.150  -5.469  -3.160  0.00  0.00    +0.118 A 
ATOM      6  C   UNL     1       9.473  -5.588  -1.821  0.00  0.00    +0.056 A 
ATOM      7  C   UNL     1       8.521  -5.274  -0.851  0.00  0.00    +0.012 A 
ATOM      8  C   UNL     1       8.537  -5.291   0.621  0.00  0.00    +0.021 A 
ATOM      9  C   UNL     1       7.261  -4.858   1.039  0.00  0.00    +0.051 A 
ATOM     10  C   UNL     1       6.973  -4.764   2.394  0.00  0.00    +0.035 A 
ATOM     11  C   UNL     1       7.937  -5.091   3.346  0.00  0.00    -0.002 A 
ATOM     12  C   UNL     1       9.207  -5.518   2.940  0.00  0.00    +0.058 A 
ATOM     13  C   UNL     1       9.506  -5.625   1.568  0.00  0.00    +0.059 A 
ATOM     14  C   UNL     1      10.903  -6.094   1.494  0.00  0.00    +0.252 C 
ATOM     15  O   UNL     1      11.530  -6.297   0.473  0.00  0.00    -0.270 OA
ATOM     16  N   UNL     1      11.366  -6.259   2.746  0.00  0.00    -0.248 N 
ATOM     17  C   UNL     1      10.429  -5.931   3.653  0.00  0.00    +0.252 C 
ATOM     18  O   UNL     1      10.563  -5.979   4.860  0.00  0.00    -0.270 OA
ATOM     19  H   UNL     1      12.261  -6.562   2.965  0.00  0.00    +0.158 HD
ENDROOT
BRANCH  11  20
ATOM     20  C   UNL     1       7.618  -4.987   4.788  0.00  0.00    +0.001 A 
ATOM     21  C   UNL     1       6.651  -5.818   5.353  0.00  0.00    +0.010 A 
ATOM     22  C   UNL     1       6.358  -5.717   6.698  0.00  0.00    +0.001 A 
ATOM     23  C   UNL     1       7.020  -4.792   7.486  0.00  0.00    +0.001 A 
ATOM     24  C   UNL     1       7.979  -3.964   6.933  0.00  0.00    +0.020 A 
ATOM     25  C   UNL     1       8.286  -4.059   5.589  0.00  0.00    +0.049 A 
ATOM     26 CL   UNL     1       9.496  -3.024   4.897  0.00  0.00    -0.083 Cl
ENDBRANCH  11  20
BRANCH   5  27
ATOM     27  O   UNL     1      10.073  -5.774  -4.110  0.00  0.00    -0.507 OA
ATOM     28  H   UNL     1      10.623  -5.025  -4.379  0.00  0.00    +0.292 HD
ENDBRANCH   5  27
BRANCH   1  29
ATOM     29  C   UNL     1       5.114  -4.132  -0.070  0.00  0.00    +0.124 C 
BRANCH  29  30
ATOM     30  C   UNL     1       5.091  -2.602  -0.061  0.00  0.00    +0.040 C 
BRANCH  30  31
ATOM     31  C   UNL     1       3.641  -2.114  -0.044  0.00  0.00    +0.103 C 
BRANCH  31  32
ATOM     32  N   UNL     1       3.620  -0.649  -0.036  0.00  0.00    -0.344 N 
ATOM     33  H   UNL     1       4.452  -0.152  -0.042  0.00  0.00    +0.146 HD
BRANCH  32  37
ATOM     34  C   UNL     1      -0.017   1.379   0.010  0.00  0.00    +0.000 A 
ATOM     35  C   UNL     1       1.169   2.089   0.002  0.00  0.00    +0.002 A 
ATOM     36  C   UNL     1       2.377   1.420  -0.013  0.00  0.00    +0.023 A 
ATOM     37  C   UNL     1       2.400   0.031  -0.021  0.00  0.00    +0.027 A 
ATOM     38  C   UNL     1       1.206  -0.680  -0.013  0.00  0.00    +0.023 A 
ATOM     39  C   UNL     1       0.002  -0.004   0.002  0.00  0.00    +0.002 A 
ENDBRANCH  32  37
ENDBRANCH  31  32
ENDBRANCH  30  31
ENDBRANCH  29  30
ENDBRANCH   1  29
TORSDOF 7
