REMARK  Name = CHEMBL540206
REMARK  12 active torsions:
REMARK  status: ('A' for Active; 'I' for Inactive)
REMARK    1  A    between atoms: C_1  and  C_2
REMARK    2  A    between atoms: C_2  and  N_3
REMARK    3  A    between atoms: N_3  and  C_4
REMARK    4  A    between atoms: N_3  and  C_6
REMARK    5  A    between atoms: C_4  and  C_5
REMARK    6  A    between atoms: C_6  and  C_7
REMARK    7  A    between atoms: C_7  and  O_8
REMARK    8  A    between atoms: O_8  and  C_9
REMARK    9  A    between atoms: C_12  and  N_15
REMARK   10  A    between atoms: C_21  and  C_28
REMARK   11  A    between atoms: N_24  and  C_27
REMARK   12  A    between atoms: C_31  and  O_35
REMARK                            x       y       z     vdW  Elec       q    Type
REMARK                         _______ _______ _______ _____ _____    ______ ____
ROOT
ATOM      1  N   UNL     1      -7.061  -1.876  -2.641  0.00  0.00    -0.284 N 
ATOM      2  C   UNL     1      -7.820  -1.897  -1.487  0.00  0.00    +0.221 A 
ATOM      3  N   UNL     1      -7.216  -1.690  -0.321  0.00  0.00    -0.222 NA
ATOM      4  C   UNL     1      -7.895  -1.699   0.811  0.00  0.00    +0.126 A 
ATOM      5  C   UNL     1      -9.278  -1.934   0.763  0.00  0.00    +0.037 A 
ATOM      6  C   UNL     1     -10.058  -1.956   1.941  0.00  0.00    +0.027 A 
ATOM      7  C   UNL     1     -11.404  -2.189   1.842  0.00  0.00    +0.050 A 
ATOM      8  C   UNL     1     -12.000  -2.410   0.522  0.00  0.00    +0.260 A 
ATOM      9  O   UNL     1     -13.196  -2.618   0.425  0.00  0.00    -0.267 OA
ATOM     10  N   UNL     1     -11.232  -2.384  -0.584  0.00  0.00    -0.295 N 
ATOM     11  C   UNL     1      -9.883  -2.151  -0.494  0.00  0.00    +0.148 A 
ATOM     12  N   UNL     1      -9.122  -2.118  -1.583  0.00  0.00    -0.196 NA
ATOM     13  C   UNL     1     -11.844  -2.606  -1.896  0.00  0.00    +0.154 C 
ATOM     14  H   UNL     1      -7.494  -1.944  -3.507  0.00  0.00    +0.155 HD
ENDROOT
BRANCH   7  15
ATOM     15  C   UNL     1     -12.249  -2.219   3.058  0.00  0.00    +0.024 A 
ATOM     16  C   UNL     1     -12.446  -3.418   3.745  0.00  0.00    +0.054 A 
ATOM     17  C   UNL     1     -13.234  -3.441   4.878  0.00  0.00    +0.066 A 
ATOM     18  C   UNL     1     -13.831  -2.274   5.334  0.00  0.00    +0.120 A 
ATOM     19  C   UNL     1     -13.638  -1.079   4.654  0.00  0.00    +0.066 A 
ATOM     20  C   UNL     1     -12.846  -1.046   3.524  0.00  0.00    +0.054 A 
ATOM     21 CL   UNL     1     -12.599   0.450   2.679  0.00  0.00    -0.083 Cl
ATOM     22 CL   UNL     1     -11.701  -4.878   3.174  0.00  0.00    -0.083 Cl
BRANCH  18  23
ATOM     23  O   UNL     1     -14.607  -2.301   6.449  0.00  0.00    -0.507 OA
ATOM     24  H   UNL     1     -14.122  -2.141   7.270  0.00  0.00    +0.292 HD
ENDBRANCH  18  23
ENDBRANCH   7  15
BRANCH   1  28
ATOM     25  C   UNL     1      -2.914  -1.522  -2.406  0.00  0.00    +0.121 A 
ATOM     26  C   UNL     1      -3.608  -2.212  -1.423  0.00  0.00    +0.047 A 
ATOM     27  C   UNL     1      -4.981  -2.329  -1.500  0.00  0.00    +0.027 A 
ATOM     28  C   UNL     1      -5.669  -1.757  -2.562  0.00  0.00    +0.034 A 
ATOM     29  C   UNL     1      -4.974  -1.066  -3.546  0.00  0.00    +0.027 A 
ATOM     30  C   UNL     1      -3.600  -0.944  -3.465  0.00  0.00    +0.047 A 
BRANCH  25  31
ATOM     31  O   UNL     1      -1.562  -1.406  -2.330  0.00  0.00    -0.494 OA
BRANCH  31  32
ATOM     32  C   UNL     1      -0.920  -2.025  -1.213  0.00  0.00    +0.210 C 
BRANCH  32  33
ATOM     33  C   UNL     1       0.590  -1.790  -1.298  0.00  0.00    -0.037 C 
BRANCH  33  34
ATOM     34  N   UNL     1       0.870  -0.354  -1.161  0.00  0.00    +0.382 N 
ATOM     35  H   UNL     1       0.344   0.159  -1.852  0.00  0.00    -0.082 HD
BRANCH  34  37
ATOM     36  C   UNL     1       0.642   1.613   0.280  0.00  0.00    -0.017 C 
ATOM     37  C   UNL     1       0.482   0.094   0.183  0.00  0.00    -0.082 C 
ENDBRANCH  34  37
BRANCH  34  38
ATOM     38  C   UNL     1       2.306  -0.115  -1.361  0.00  0.00    -0.082 C 
ATOM     39  C   UNL     1       2.681  -0.447  -2.807  0.00  0.00    -0.017 C 
ENDBRANCH  34  38
ENDBRANCH  33  34
ENDBRANCH  32  33
ENDBRANCH  31  32
ENDBRANCH  25  31
ENDBRANCH   1  28
TORSDOF 9
