REMARK  Name = CHEMBL386398
REMARK  2 active torsions:
REMARK  status: ('A' for Active; 'I' for Inactive)
REMARK    1  A    between atoms: C_5  and  C_7
REMARK    2  A    between atoms: C_13  and  O_18
REMARK                            x       y       z     vdW  Elec       q    Type
REMARK                         _______ _______ _______ _____ _____    ______ ____
ROOT
ATOM      1  C   UNL     1       1.248  -2.163  -0.023  0.00  0.00    -0.000 A 
ATOM      2  C   UNL     1       0.744  -2.862  -1.120  0.00  0.00    +0.056 A 
ATOM      3  C   UNL     1       0.763  -4.248  -1.140  0.00  0.00    +0.138 A 
ATOM      4  C   UNL     1       1.296  -4.957  -0.044  0.00  0.00    +0.041 A 
ATOM      5  C   UNL     1       1.162  -6.382  -0.390  0.00  0.00    +0.032 A 
ATOM      6  C   UNL     1       1.494  -7.568   0.260  0.00  0.00    +0.057 A 
ATOM      7  C   UNL     1       1.229  -8.781  -0.351  0.00  0.00    +0.118 A 
ATOM      8  C   UNL     1       0.636  -8.812  -1.608  0.00  0.00    +0.049 A 
ATOM      9  C   UNL     1       0.305  -7.641  -2.257  0.00  0.00    +0.050 A 
ATOM     10  C   UNL     1       0.563  -6.413  -1.657  0.00  0.00    +0.136 A 
ATOM     11  O   UNL     1       0.345  -5.143  -2.062  0.00  0.00    -0.455 OA
ATOM     12  C   UNL     1       1.802  -4.268   1.057  0.00  0.00    +0.061 A 
ATOM     13  C   UNL     1       1.784  -2.859   1.066  0.00  0.00    +0.058 A 
ATOM     14  C   UNL     1       2.389  -2.454   2.347  0.00  0.00    +0.252 C 
ATOM     15  O   UNL     1       2.547  -1.311   2.727  0.00  0.00    -0.270 OA
ATOM     16  N   UNL     1       2.738  -3.562   3.026  0.00  0.00    -0.248 N 
ATOM     17  C   UNL     1       2.416  -4.671   2.336  0.00  0.00    +0.252 C 
ATOM     18  O   UNL     1       2.612  -5.814   2.699  0.00  0.00    -0.270 OA
ATOM     19  H   UNL     1       3.158  -3.561   3.900  0.00  0.00    +0.158 HD
ENDROOT
BRANCH   1  24
ATOM     20  C   UNL     1      -0.017   1.375   0.010  0.00  0.00    +0.001 A 
ATOM     21  C   UNL     1       1.170   2.087   0.002  0.00  0.00    +0.001 A 
ATOM     22  C   UNL     1       2.382   1.421  -0.013  0.00  0.00    +0.020 A 
ATOM     23  C   UNL     1       2.415   0.040  -0.022  0.00  0.00    +0.049 A 
ATOM     24  C   UNL     1       1.221  -0.682  -0.014  0.00  0.00    +0.001 A 
ATOM     25  C   UNL     1       0.002  -0.004   0.002  0.00  0.00    +0.010 A 
ATOM     26 CL   UNL     1       3.937  -0.794  -0.043  0.00  0.00    -0.083 Cl
ENDBRANCH   1  24
BRANCH   7  27
ATOM     27  O   UNL     1       1.551  -9.943   0.277  0.00  0.00    -0.507 OA
ATOM     28  H   UNL     1       0.845 -10.296   0.837  0.00  0.00    +0.292 HD
ENDBRANCH   7  27
TORSDOF 2
