REMARK  Name = CHEMBL474111
REMARK  10 active torsions:
REMARK  status: ('A' for Active; 'I' for Inactive)
REMARK    1  A    between atoms: C_5  and  C_7
REMARK    2  A    between atoms: C_13  and  O_30
REMARK    3  A    between atoms: C_14  and  O_21
REMARK    4  A    between atoms: N_17  and  C_18
REMARK    5  A    between atoms: C_18  and  C_19
REMARK    6  A    between atoms: C_19  and  O_20
REMARK    7  A    between atoms: O_21  and  C_22
REMARK    8  A    between atoms: C_22  and  C_23
REMARK    9  A    between atoms: C_23  and  C_24
REMARK   10  A    between atoms: C_24  and  N_25
REMARK                            x       y       z     vdW  Elec       q    Type
REMARK                         _______ _______ _______ _____ _____    ______ ____
ROOT
ATOM      1  C   UNL     1       1.248  -2.163  -0.022  0.00  0.00    -0.002 A 
ATOM      2  C   UNL     1       0.744  -2.862  -1.118  0.00  0.00    +0.035 A 
ATOM      3  C   UNL     1       0.764  -4.250  -1.138  0.00  0.00    +0.052 A 
ATOM      4  C   UNL     1       1.298  -4.960  -0.042  0.00  0.00    +0.021 A 
ATOM      5  C   UNL     1       1.173  -6.389  -0.370  0.00  0.00    +0.012 A 
ATOM      6  C   UNL     1       1.517  -7.561   0.306  0.00  0.00    +0.059 A 
ATOM      7  C   UNL     1       1.267  -8.787  -0.276  0.00  0.00    +0.159 A 
ATOM      8  C   UNL     1       0.672  -8.855  -1.536  0.00  0.00    +0.164 A 
ATOM      9  C   UNL     1       0.329  -7.699  -2.213  0.00  0.00    +0.075 A 
ATOM     10  C   UNL     1       0.574  -6.457  -1.638  0.00  0.00    +0.054 A 
ATOM     11  N   UNL     1       0.338  -5.165  -2.080  0.00  0.00    -0.337 N 
ATOM     12  C   UNL     1       1.804  -4.268   1.059  0.00  0.00    +0.059 A 
ATOM     13  C   UNL     1       1.784  -2.859   1.068  0.00  0.00    +0.058 A 
ATOM     14  C   UNL     1       2.388  -2.453   2.348  0.00  0.00    +0.252 C 
ATOM     15  O   UNL     1       2.545  -1.310   2.727  0.00  0.00    -0.270 OA
ATOM     16  N   UNL     1       2.738  -3.560   3.028  0.00  0.00    -0.248 N 
ATOM     17  C   UNL     1       2.417  -4.670   2.339  0.00  0.00    +0.252 C 
ATOM     18  O   UNL     1       2.614  -5.813   2.703  0.00  0.00    -0.270 OA
ATOM     19  H   UNL     1       3.157  -3.558   3.903  0.00  0.00    +0.158 HD
ENDROOT
BRANCH   1  24
ATOM     20  C   UNL     1      -0.017   1.375   0.010  0.00  0.00    +0.001 A 
ATOM     21  C   UNL     1       1.170   2.087   0.002  0.00  0.00    +0.001 A 
ATOM     22  C   UNL     1       2.382   1.421  -0.013  0.00  0.00    +0.020 A 
ATOM     23  C   UNL     1       2.415   0.040  -0.021  0.00  0.00    +0.049 A 
ATOM     24  C   UNL     1       1.221  -0.682  -0.013  0.00  0.00    +0.001 A 
ATOM     25  C   UNL     1       0.002  -0.004   0.002  0.00  0.00    +0.010 A 
ATOM     26 CL   UNL     1       3.937  -0.794  -0.042  0.00  0.00    -0.083 Cl
ENDBRANCH   1  24
BRANCH   7  27
ATOM     27  O   UNL     1       1.602  -9.931   0.381  0.00  0.00    -0.503 OA
ATOM     28  H   UNL     1       0.900 -10.279   0.948  0.00  0.00    +0.292 HD
ENDBRANCH   7  27
BRANCH  11  29
ATOM     29  C   UNL     1      -0.277  -4.820  -3.364  0.00  0.00    +0.150 C 
BRANCH  29  30
ATOM     30  C   UNL     1       0.812  -4.671  -4.428  0.00  0.00    +0.177 C 
BRANCH  30  31
ATOM     31  O   UNL     1       0.212  -4.335  -5.681  0.00  0.00    -0.393 OA
ATOM     32  H   UNL     1       0.845  -4.224  -6.403  0.00  0.00    +0.209 HD
ENDBRANCH  30  31
ENDBRANCH  29  30
ENDBRANCH  11  29
BRANCH   8  33
ATOM     33  O   UNL     1       0.429 -10.066  -2.103  0.00  0.00    -0.488 OA
BRANCH  33  34
ATOM     34  C   UNL     1      -0.182 -10.067  -3.395  0.00  0.00    +0.231 C 
BRANCH  34  35
ATOM     35  C   UNL     1      -0.376 -11.510  -3.867  0.00  0.00    +0.062 C 
BRANCH  35  36
ATOM     36  C   UNL     1      -1.030 -11.510  -5.250  0.00  0.00    +0.124 C 
BRANCH  36  37
ATOM     37  N   UNL     1      -1.215 -12.891  -5.702  0.00  0.00    -0.353 N 
ATOM     38  C   UNL     1      -0.312 -13.622  -6.416  0.00  0.00    +0.085 A 
ATOM     39  C   UNL     1      -0.840 -14.841  -6.642  0.00  0.00    +0.019 A 
ATOM     40  C   UNL     1      -2.117 -14.865  -6.046  0.00  0.00    +0.019 A 
ATOM     41  C   UNL     1      -2.317 -13.661  -5.474  0.00  0.00    +0.085 A 
ENDBRANCH  36  37
ENDBRANCH  35  36
ENDBRANCH  34  35
ENDBRANCH  33  34
ENDBRANCH   8  33
TORSDOF 10
