REMARK  Name = CHEMBL507613
REMARK  2 active torsions:
REMARK  status: ('A' for Active; 'I' for Inactive)
REMARK    1  A    between atoms: C_1  and  N_2
REMARK    2  A    between atoms: C_6  and  O_20
REMARK                            x       y       z     vdW  Elec       q    Type
REMARK                         _______ _______ _______ _____ _____    ______ ____
ROOT
ATOM      1  C   UNL     1      -0.018   1.461   0.010  0.00  0.00    +0.149 C 
ATOM      2  N   UNL     1       0.002  -0.004   0.002  0.00  0.00    -0.343 N 
ATOM      3  C   UNL     1       0.008  -0.789  -1.140  0.00  0.00    +0.050 A 
ATOM      4  C   UNL     1      -0.002  -0.470  -2.494  0.00  0.00    +0.030 A 
ATOM      5  C   UNL     1       0.008  -1.471  -3.441  0.00  0.00    +0.047 A 
ATOM      6  C   UNL     1       0.028  -2.808  -3.056  0.00  0.00    +0.118 A 
ATOM      7  C   UNL     1       0.039  -3.143  -1.715  0.00  0.00    +0.056 A 
ATOM      8  C   UNL     1       0.028  -2.137  -0.751  0.00  0.00    +0.012 A 
ATOM      9  C   UNL     1       0.035  -2.147   0.722  0.00  0.00    +0.021 A 
ATOM     10  C   UNL     1       0.024  -0.798   1.131  0.00  0.00    +0.051 A 
ATOM     11  C   UNL     1       0.031  -0.490   2.488  0.00  0.00    +0.027 A 
ATOM     12  C   UNL     1       0.054  -1.494   3.436  0.00  0.00    +0.016 A 
ATOM     13  C   UNL     1       0.069  -2.828   3.047  0.00  0.00    +0.050 A 
ATOM     14  C   UNL     1       0.053  -3.162   1.678  0.00  0.00    +0.059 A 
ATOM     15  C   UNL     1       0.074  -4.636   1.621  0.00  0.00    +0.252 C 
ATOM     16  O   UNL     1       0.080  -5.306   0.607  0.00  0.00    -0.270 OA
ATOM     17  N   UNL     1       0.087  -5.114   2.878  0.00  0.00    -0.248 N 
ATOM     18  C   UNL     1       0.092  -4.112   3.775  0.00  0.00    +0.251 C 
ATOM     19  O   UNL     1       0.105  -4.241   4.983  0.00  0.00    -0.270 OA
ATOM     20  H   UNL     1       0.101  -6.056   3.107  0.00  0.00    +0.158 HD
ENDROOT
BRANCH   6  21
ATOM     21  O   UNL     1       0.037  -3.786  -4.001  0.00  0.00    -0.507 OA
ATOM     22  H   UNL     1       0.923  -4.057  -4.278  0.00  0.00    +0.292 HD
ENDBRANCH   6  21
TORSDOF 1
