REMARK  Name = CHEMBL520049
REMARK  5 active torsions:
REMARK  status: ('A' for Active; 'I' for Inactive)
REMARK    1  A    between atoms: C_6  and  O_7
REMARK    2  A    between atoms: N_10  and  C_11
REMARK    3  A    between atoms: C_11  and  C_12
REMARK    4  A    between atoms: C_12  and  C_13
REMARK    5  A    between atoms: C_13  and  C_14
REMARK                            x       y       z     vdW  Elec       q    Type
REMARK                         _______ _______ _______ _____ _____    ______ ____
ROOT
ATOM      1  C   UNL     1      -0.017   1.386   0.010  0.00  0.00    +0.047 A 
ATOM      2  C   UNL     1       1.161   2.103   0.002  0.00  0.00    +0.030 A 
ATOM      3  C   UNL     1       2.382   1.438  -0.013  0.00  0.00    +0.050 A 
ATOM      4  C   UNL     1       2.403   0.034  -0.021  0.00  0.00    +0.012 A 
ATOM      5  C   UNL     1       1.207  -0.682  -0.014  0.00  0.00    +0.056 A 
ATOM      6  C   UNL     1       0.002  -0.004   0.002  0.00  0.00    +0.118 A 
ATOM      7  C   UNL     1       3.821  -0.363  -0.037  0.00  0.00    +0.021 A 
ATOM      8  C   UNL     1       4.570   0.831  -0.038  0.00  0.00    +0.051 A 
ATOM      9  N   UNL     1       3.690   1.894  -0.024  0.00  0.00    -0.340 N 
ATOM     10  C   UNL     1       5.960   0.772  -0.052  0.00  0.00    +0.027 A 
ATOM     11  C   UNL     1       6.612  -0.445  -0.066  0.00  0.00    +0.016 A 
ATOM     12  C   UNL     1       5.886  -1.630  -0.065  0.00  0.00    +0.050 A 
ATOM     13  C   UNL     1       4.478  -1.593  -0.051  0.00  0.00    +0.059 A 
ATOM     14  C   UNL     1       4.036  -3.001  -0.054  0.00  0.00    +0.252 C 
ATOM     15  O   UNL     1       2.883  -3.382  -0.045  0.00  0.00    -0.270 OA
ATOM     16  N   UNL     1       5.124  -3.792  -0.070  0.00  0.00    -0.248 N 
ATOM     17  C   UNL     1       6.253  -3.060  -0.076  0.00  0.00    +0.251 C 
ATOM     18  O   UNL     1       7.384  -3.502  -0.089  0.00  0.00    -0.270 OA
ATOM     19  H   UNL     1       5.098  -4.762  -0.076  0.00  0.00    +0.158 HD
ENDROOT
BRANCH   6  20
ATOM     20  O   UNL     1      -1.167  -0.699   0.009  0.00  0.00    -0.507 OA
ATOM     21  H   UNL     1      -1.514  -0.895  -0.872  0.00  0.00    +0.292 HD
ENDBRANCH   6  20
BRANCH   9  22
ATOM     22  C   UNL     1       4.084   3.305  -0.021  0.00  0.00    +0.123 C 
BRANCH  22  23
ATOM     23  C   UNL     1       4.236   3.789   1.423  0.00  0.00    +0.031 C 
BRANCH  23  24
ATOM     24  C   UNL     1       4.647   5.263   1.426  0.00  0.00    +0.098 C 
BRANCH  24  25
ATOM     25  C   UNL     1       4.796   5.739   2.848  0.00  0.00    +0.216 C 
ATOM     26  O   UNL     1       4.594   4.976   3.768  0.00  0.00    -0.276 OA
ATOM     27  N   UNL     1       5.155   7.014   3.097  0.00  0.00    -0.297 N 
ATOM     28  C   UNL     1       5.399   7.961   1.998  0.00  0.00    +0.136 C 
ATOM     29  C   UNL     1       4.592   9.236   2.268  0.00  0.00    +0.179 C 
ATOM     30  O   UNL     1       4.882   9.706   3.587  0.00  0.00    -0.377 OA
ATOM     31  C   UNL     1       4.509   8.798   4.627  0.00  0.00    +0.179 C 
ATOM     32  C   UNL     1       5.307   7.503   4.477  0.00  0.00    +0.136 C 
ENDBRANCH  24  25
ENDBRANCH  23  24
ENDBRANCH  22  23
ENDBRANCH   9  22
TORSDOF 5
