REMARK  Name = CHEMBL272267
REMARK  7 active torsions:
REMARK  status: ('A' for Active; 'I' for Inactive)
REMARK    1  A    between atoms: C_1  and  N_2
REMARK    2  A    between atoms: C_5  and  C_31
REMARK    3  A    between atoms: C_12  and  C_16
REMARK    4  A    between atoms: C_13  and  O_15
REMARK    5  A    between atoms: N_18  and  C_19
REMARK    6  A    between atoms: C_19  and  C_20
REMARK    7  A    between atoms: C_20  and  N_21
REMARK                            x       y       z     vdW  Elec       q    Type
REMARK                         _______ _______ _______ _____ _____    ______ ____
ROOT
ATOM      1  C   UNL     1      -0.018   1.461   0.010  0.00  0.00    +0.149 C 
ATOM      2  N   UNL     1       0.002  -0.004   0.002  0.00  0.00    -0.343 N 
ATOM      3  C   UNL     1       0.007  -0.786  -1.135  0.00  0.00    +0.051 A 
ATOM      4  C   UNL     1      -0.003  -0.460  -2.486  0.00  0.00    +0.035 A 
ATOM      5  C   UNL     1       0.006  -1.461  -3.455  0.00  0.00    -0.002 A 
ATOM      6  C   UNL     1       0.026  -2.808  -3.072  0.00  0.00    +0.058 A 
ATOM      7  C   UNL     1       0.037  -3.149  -1.707  0.00  0.00    +0.059 A 
ATOM      8  C   UNL     1       0.028  -2.140  -0.742  0.00  0.00    +0.021 A 
ATOM      9  C   UNL     1       0.035  -2.148   0.730  0.00  0.00    +0.012 A 
ATOM     10  C   UNL     1       0.024  -0.802   1.136  0.00  0.00    +0.051 A 
ATOM     11  C   UNL     1       0.033  -0.495   2.488  0.00  0.00    +0.043 A 
ATOM     12  C   UNL     1       0.057  -1.518   3.435  0.00  0.00    +0.080 A 
ATOM     13  C   UNL     1       0.072  -2.861   3.024  0.00  0.00    +0.130 A 
ATOM     14  C   UNL     1       0.053  -3.170   1.678  0.00  0.00    +0.056 A 
ATOM     15  C   UNL     1       0.057  -4.624  -1.658  0.00  0.00    +0.252 C 
ATOM     16  O   UNL     1       0.071  -5.300  -0.649  0.00  0.00    -0.270 OA
ATOM     17  N   UNL     1       0.058  -5.094  -2.919  0.00  0.00    -0.248 N 
ATOM     18  C   UNL     1       0.040  -4.085  -3.808  0.00  0.00    +0.252 C 
ATOM     19  O   UNL     1       0.036  -4.206  -5.017  0.00  0.00    -0.270 OA
ATOM     20  H   UNL     1       0.069  -6.035  -3.155  0.00  0.00    +0.158 HD
ENDROOT
BRANCH   5  21
ATOM     21  C   UNL     1      -0.006  -1.100  -4.891  0.00  0.00    +0.001 A 
ATOM     22  C   UNL     1       1.077  -0.425  -5.453  0.00  0.00    +0.010 A 
ATOM     23  C   UNL     1       1.061  -0.091  -6.791  0.00  0.00    +0.001 A 
ATOM     24  C   UNL     1      -0.028  -0.425  -7.577  0.00  0.00    +0.001 A 
ATOM     25  C   UNL     1      -1.106  -1.094  -7.027  0.00  0.00    +0.020 A 
ATOM     26  C   UNL     1      -1.099  -1.439  -5.690  0.00  0.00    +0.049 A 
ATOM     27 CL   UNL     1      -2.450  -2.285  -5.002  0.00  0.00    -0.083 Cl
ENDBRANCH   5  21
BRANCH  12  28
ATOM     28  C   UNL     1       0.068  -1.189   4.873  0.00  0.00    +0.248 C 
ATOM     29  O   UNL     1       0.088  -2.080   5.700  0.00  0.00    -0.270 OA
ATOM     30  N   UNL     1       0.054   0.099   5.269  0.00  0.00    -0.313 N 
ATOM     31  H   UNL     1       0.037   0.809   4.609  0.00  0.00    +0.149 HD
BRANCH  30  32
ATOM     32  C   UNL     1       0.064   0.426   6.697  0.00  0.00    +0.086 C 
BRANCH  32  33
ATOM     33  C   UNL     1       0.045   1.945   6.873  0.00  0.00    -0.060 C 
BRANCH  33  34
ATOM     34  N   UNL     1       0.055   2.273   8.305  0.00  0.00    +0.381 N 
ATOM     35  C   UNL     1       1.365   1.910   8.904  0.00  0.00    -0.079 C 
ATOM     36  C   UNL     1       1.429   2.792  10.177  0.00  0.00    -0.020 C 
ATOM     37  C   UNL     1       0.776   4.114   9.714  0.00  0.00    -0.020 C 
ATOM     38  C   UNL     1      -0.084   3.733   8.495  0.00  0.00    -0.079 C 
ATOM     39  H   UNL     1      -0.692   1.788   8.779  0.00  0.00    -0.082 HD
ENDBRANCH  33  34
ENDBRANCH  32  33
ENDBRANCH  30  32
ENDBRANCH  12  28
BRANCH  13  40
ATOM     40  O   UNL     1       0.096  -3.854   3.949  0.00  0.00    -0.506 OA
ATOM     41  H   UNL     1      -0.781  -4.155   4.227  0.00  0.00    +0.292 HD
ENDBRANCH  13  40
TORSDOF 6
