REMARK  Name = CHEMBL483953
REMARK  6 active torsions:
REMARK  status: ('A' for Active; 'I' for Inactive)
REMARK    1  A    between atoms: C_1  and  N_2
REMARK    2  A    between atoms: N_5  and  C_8
REMARK    3  A    between atoms: C_8  and  C_9
REMARK    4  A    between atoms: C_9  and  C_10
REMARK    5  A    between atoms: C_10  and  N_11
REMARK    6  A    between atoms: C_15  and  O_29
REMARK                            x       y       z     vdW  Elec       q    Type
REMARK                         _______ _______ _______ _____ _____    ______ ____
ROOT
ATOM      1  N   UNL     1       0.430  -6.471   3.876  0.00  0.00    -0.340 N 
ATOM      2  C   UNL     1       1.765  -6.728   4.142  0.00  0.00    +0.050 A 
ATOM      3  C   UNL     1       2.909  -6.645   3.354  0.00  0.00    +0.030 A 
ATOM      4  C   UNL     1       4.139  -6.967   3.885  0.00  0.00    +0.047 A 
ATOM      5  C   UNL     1       4.252  -7.378   5.209  0.00  0.00    +0.118 A 
ATOM      6  C   UNL     1       3.127  -7.467   6.006  0.00  0.00    +0.056 A 
ATOM      7  C   UNL     1       1.878  -7.143   5.478  0.00  0.00    +0.012 A 
ATOM      8  C   UNL     1       0.516  -7.129   6.037  0.00  0.00    +0.021 A 
ATOM      9  C   UNL     1      -0.337  -6.699   5.000  0.00  0.00    +0.051 A 
ATOM     10  C   UNL     1      -1.703  -6.582   5.238  0.00  0.00    +0.027 A 
ATOM     11  C   UNL     1      -2.229  -6.879   6.480  0.00  0.00    +0.016 A 
ATOM     12  C   UNL     1      -1.399  -7.300   7.511  0.00  0.00    +0.050 A 
ATOM     13  C   UNL     1      -0.014  -7.433   7.291  0.00  0.00    +0.059 A 
ATOM     14  C   UNL     1       0.558  -7.891   8.571  0.00  0.00    +0.252 C 
ATOM     15  O   UNL     1       1.734  -8.111   8.784  0.00  0.00    -0.270 OA
ATOM     16  N   UNL     1      -0.440  -8.025   9.463  0.00  0.00    -0.248 N 
ATOM     17  C   UNL     1      -1.622  -7.688   8.918  0.00  0.00    +0.251 C 
ATOM     18  O   UNL     1      -2.696  -7.708   9.486  0.00  0.00    -0.270 OA
ATOM     19  H   UNL     1      -0.320  -8.315  10.381  0.00  0.00    +0.158 HD
ENDROOT
BRANCH   5  20
ATOM     20  O   UNL     1       5.473  -7.694   5.719  0.00  0.00    -0.507 OA
ATOM     21  H   UNL     1       5.938  -6.946   6.118  0.00  0.00    +0.292 HD
ENDBRANCH   5  20
BRANCH   1  22
ATOM     22  C   UNL     1      -0.093  -6.015   2.586  0.00  0.00    +0.123 C 
BRANCH  22  23
ATOM     23  C   UNL     1      -0.086  -4.485   2.544  0.00  0.00    +0.037 C 
BRANCH  23  24
ATOM     24  C   UNL     1      -0.632  -4.009   1.196  0.00  0.00    +0.086 C 
BRANCH  24  29
ATOM     25  C   UNL     1      -0.018   1.465   0.010  0.00  0.00    -0.096 C 
ATOM     26  N   UNL     1       0.002  -0.004   0.002  0.00  0.00    +0.379 N 
ATOM     27  C   UNL     1      -1.376  -0.512   0.011  0.00  0.00    -0.064 C 
ATOM     28  C   UNL     1      -1.356  -2.042  -0.017  0.00  0.00    +0.066 C 
ATOM     29  N   UNL     1      -0.624  -2.541   1.156  0.00  0.00    -0.306 NA
ATOM     30  C   UNL     1       0.750  -2.020   1.175  0.00  0.00    +0.066 C 
ATOM     31  C   UNL     1       0.713  -0.490   1.192  0.00  0.00    -0.064 C 
ATOM     32  H   UNL     1       0.475  -0.329  -0.828  0.00  0.00    -0.082 HD
ENDBRANCH  24  29
ENDBRANCH  23  24
ENDBRANCH  22  23
ENDBRANCH   1  22
TORSDOF 5
