REMARK  Name = CHEMBL472687
REMARK  8 active torsions:
REMARK  status: ('A' for Active; 'I' for Inactive)
REMARK    1  A    between atoms: C_1  and  N_2
REMARK    2  A    between atoms: C_5  and  C_30
REMARK    3  A    between atoms: C_12  and  O_16
REMARK    4  A    between atoms: C_13  and  O_15
REMARK    5  A    between atoms: O_16  and  C_17
REMARK    6  A    between atoms: C_17  and  C_18
REMARK    7  A    between atoms: C_18  and  C_19
REMARK    8  A    between atoms: C_19  and  N_20
REMARK                            x       y       z     vdW  Elec       q    Type
REMARK                         _______ _______ _______ _____ _____    ______ ____
ROOT
ATOM      1  C   UNL     1      -0.018   1.461   0.010  0.00  0.00    +0.149 C 
ATOM      2  N   UNL     1       0.002  -0.004   0.002  0.00  0.00    -0.343 N 
ATOM      3  C   UNL     1       0.007  -0.787  -1.136  0.00  0.00    +0.051 A 
ATOM      4  C   UNL     1      -0.003  -0.462  -2.486  0.00  0.00    +0.035 A 
ATOM      5  C   UNL     1       0.005  -1.464  -3.454  0.00  0.00    -0.002 A 
ATOM      6  C   UNL     1       0.025  -2.811  -3.071  0.00  0.00    +0.058 A 
ATOM      7  C   UNL     1       0.037  -3.151  -1.705  0.00  0.00    +0.059 A 
ATOM      8  C   UNL     1       0.028  -2.141  -0.741  0.00  0.00    +0.021 A 
ATOM      9  C   UNL     1       0.035  -2.146   0.731  0.00  0.00    +0.012 A 
ATOM     10  C   UNL     1       0.024  -0.801   1.135  0.00  0.00    +0.054 A 
ATOM     11  C   UNL     1       0.034  -0.496   2.491  0.00  0.00    +0.075 A 
ATOM     12  C   UNL     1       0.057  -1.512   3.430  0.00  0.00    +0.164 A 
ATOM     13  C   UNL     1       0.071  -2.847   3.027  0.00  0.00    +0.159 A 
ATOM     14  C   UNL     1       0.052  -3.165   1.684  0.00  0.00    +0.059 A 
ATOM     15  C   UNL     1       0.057  -4.625  -1.655  0.00  0.00    +0.252 C 
ATOM     16  O   UNL     1       0.071  -5.300  -0.645  0.00  0.00    -0.270 OA
ATOM     17  N   UNL     1       0.057  -5.095  -2.915  0.00  0.00    -0.248 N 
ATOM     18  C   UNL     1       0.039  -4.088  -3.806  0.00  0.00    +0.252 C 
ATOM     19  O   UNL     1       0.034  -4.210  -5.015  0.00  0.00    -0.270 OA
ATOM     20  H   UNL     1       0.069  -6.037  -3.150  0.00  0.00    +0.158 HD
ENDROOT
BRANCH   5  21
ATOM     21  C   UNL     1      -0.007  -1.104  -4.891  0.00  0.00    +0.001 A 
ATOM     22  C   UNL     1       1.076  -0.429  -5.454  0.00  0.00    +0.010 A 
ATOM     23  C   UNL     1       1.059  -0.097  -6.792  0.00  0.00    +0.001 A 
ATOM     24  C   UNL     1      -0.030  -0.432  -7.578  0.00  0.00    +0.001 A 
ATOM     25  C   UNL     1      -1.108  -1.100  -7.027  0.00  0.00    +0.020 A 
ATOM     26  C   UNL     1      -1.101  -1.444  -5.689  0.00  0.00    +0.049 A 
ATOM     27 CL   UNL     1      -2.451  -2.290  -5.000  0.00  0.00    -0.083 Cl
ENDBRANCH   5  21
BRANCH  13  28
ATOM     28  O   UNL     1       0.094  -3.838   3.960  0.00  0.00    -0.503 OA
ATOM     29  H   UNL     1      -0.783  -4.137   4.238  0.00  0.00    +0.292 HD
ENDBRANCH  13  28
BRANCH  12  30
ATOM     30  O   UNL     1       0.066  -1.206   4.755  0.00  0.00    -0.488 OA
BRANCH  30  31
ATOM     31  C   UNL     1       0.051   0.180   5.101  0.00  0.00    +0.231 C 
BRANCH  31  32
ATOM     32  C   UNL     1       0.065   0.326   6.623  0.00  0.00    +0.062 C 
BRANCH  32  33
ATOM     33  C   UNL     1       0.049   1.811   6.994  0.00  0.00    +0.124 C 
BRANCH  33  34
ATOM     34  N   UNL     1       0.062   1.950   8.452  0.00  0.00    -0.353 N 
ATOM     35  C   UNL     1      -1.039   2.005   9.255  0.00  0.00    +0.085 A 
ATOM     36  C   UNL     1      -0.624   2.135  10.531  0.00  0.00    +0.019 A 
ATOM     37  C   UNL     1       0.784   2.162  10.516  0.00  0.00    +0.019 A 
ATOM     38  C   UNL     1       1.177   2.041   9.232  0.00  0.00    +0.085 A 
ENDBRANCH  33  34
ENDBRANCH  32  33
ENDBRANCH  31  32
ENDBRANCH  30  31
ENDBRANCH  12  30
TORSDOF 7
