REMARK  Name = CHEMBL471329
REMARK  6 active torsions:
REMARK  status: ('A' for Active; 'I' for Inactive)
REMARK    1  A    between atoms: C_5  and  C_7
REMARK    2  A    between atoms: C_13  and  O_26
REMARK    3  A    between atoms: N_17  and  C_18
REMARK    4  A    between atoms: C_18  and  C_19
REMARK    5  A    between atoms: C_19  and  C_20
REMARK    6  A    between atoms: C_20  and  C_21
REMARK                            x       y       z     vdW  Elec       q    Type
REMARK                         _______ _______ _______ _____ _____    ______ ____
ROOT
ATOM      1  C   UNL     1       1.248  -2.163  -0.022  0.00  0.00    -0.002 A 
ATOM      2  C   UNL     1       0.744  -2.862  -1.118  0.00  0.00    +0.035 A 
ATOM      3  C   UNL     1       0.764  -4.250  -1.137  0.00  0.00    +0.051 A 
ATOM      4  C   UNL     1       1.298  -4.960  -0.041  0.00  0.00    +0.021 A 
ATOM      5  C   UNL     1       1.171  -6.390  -0.369  0.00  0.00    +0.012 A 
ATOM      6  C   UNL     1       1.514  -7.561   0.305  0.00  0.00    +0.056 A 
ATOM      7  C   UNL     1       1.262  -8.788  -0.280  0.00  0.00    +0.118 A 
ATOM      8  C   UNL     1       0.668  -8.853  -1.536  0.00  0.00    +0.047 A 
ATOM      9  C   UNL     1       0.327  -7.701  -2.210  0.00  0.00    +0.030 A 
ATOM     10  C   UNL     1       0.572  -6.457  -1.636  0.00  0.00    +0.050 A 
ATOM     11  N   UNL     1       0.337  -5.166  -2.079  0.00  0.00    -0.340 N 
ATOM     12  C   UNL     1       1.804  -4.267   1.060  0.00  0.00    +0.059 A 
ATOM     13  C   UNL     1       1.784  -2.860   1.068  0.00  0.00    +0.058 A 
ATOM     14  C   UNL     1       2.388  -2.453   2.349  0.00  0.00    +0.252 C 
ATOM     15  O   UNL     1       2.545  -1.309   2.727  0.00  0.00    -0.270 OA
ATOM     16  N   UNL     1       2.738  -3.560   3.029  0.00  0.00    -0.248 N 
ATOM     17  C   UNL     1       2.418  -4.670   2.339  0.00  0.00    +0.252 C 
ATOM     18  O   UNL     1       2.614  -5.812   2.704  0.00  0.00    -0.270 OA
ATOM     19  H   UNL     1       3.157  -3.558   3.904  0.00  0.00    +0.158 HD
ENDROOT
BRANCH   1  24
ATOM     20  C   UNL     1      -0.017   1.375   0.010  0.00  0.00    +0.001 A 
ATOM     21  C   UNL     1       1.170   2.087   0.002  0.00  0.00    +0.001 A 
ATOM     22  C   UNL     1       2.382   1.421  -0.013  0.00  0.00    +0.020 A 
ATOM     23  C   UNL     1       2.415   0.040  -0.021  0.00  0.00    +0.049 A 
ATOM     24  C   UNL     1       1.221  -0.682  -0.013  0.00  0.00    +0.001 A 
ATOM     25  C   UNL     1       0.002  -0.004   0.002  0.00  0.00    +0.010 A 
ATOM     26 CL   UNL     1       3.937  -0.794  -0.042  0.00  0.00    -0.083 Cl
ENDBRANCH   1  24
BRANCH   7  27
ATOM     27  O   UNL     1       1.594  -9.933   0.374  0.00  0.00    -0.507 OA
ATOM     28  H   UNL     1       0.892 -10.280   0.941  0.00  0.00    +0.292 HD
ENDBRANCH   7  27
BRANCH  11  29
ATOM     29  C   UNL     1      -0.279  -4.820  -3.362  0.00  0.00    +0.123 C 
BRANCH  29  30
ATOM     30  C   UNL     1       0.810  -4.673  -4.427  0.00  0.00    +0.029 C 
BRANCH  30  31
ATOM     31  C   UNL     1       0.167  -4.312  -5.768  0.00  0.00    +0.082 C 
BRANCH  31  32
ATOM     32  C   UNL     1       1.240  -4.167  -6.816  0.00  0.00    +0.177 A 
ATOM     33  N   UNL     1       1.896  -3.058  -7.127  0.00  0.00    -0.111 NA
ATOM     34  N   UNL     1       2.727  -3.349  -8.069  0.00  0.00    -0.021 NA
ATOM     35  N   UNL     1       2.614  -4.598  -8.358  0.00  0.00    -0.021 NA
ATOM     36  N   UNL     1       1.712  -5.124  -7.601  0.00  0.00    -0.111 NA
ENDBRANCH  31  32
ENDBRANCH  30  31
ENDBRANCH  29  30
ENDBRANCH  11  29
TORSDOF 6
