REMARK  Name = CHEMBL209486
REMARK  2 active torsions:
REMARK  status: ('A' for Active; 'I' for Inactive)
REMARK    1  A    between atoms: C_3  and  C_6
REMARK    2  A    between atoms: C_12  and  O_18
REMARK                            x       y       z     vdW  Elec       q    Type
REMARK                         _______ _______ _______ _____ _____    ______ ____
ROOT
ATOM      1  C   UNL     1       3.735   1.823  -0.024  0.00  0.00    +0.004 A 
ATOM      2  C   UNL     1       4.122   2.799  -0.946  0.00  0.00    +0.036 A 
ATOM      3  C   UNL     1       5.426   3.271  -0.965  0.00  0.00    +0.049 A 
ATOM      4  C   UNL     1       6.372   2.764  -0.047  0.00  0.00    +0.020 A 
ATOM      5  C   UNL     1       7.638   3.460  -0.328  0.00  0.00    +0.012 A 
ATOM      6  C   UNL     1       8.913   3.392   0.234  0.00  0.00    +0.056 A 
ATOM      7  C   UNL     1       9.924   4.195  -0.261  0.00  0.00    +0.118 A 
ATOM      8  C   UNL     1       9.670   5.067  -1.314  0.00  0.00    +0.047 A 
ATOM      9  C   UNL     1       8.414   5.141  -1.875  0.00  0.00    +0.030 A 
ATOM     10  C   UNL     1       7.384   4.340  -1.391  0.00  0.00    +0.048 A 
ATOM     11  N   UNL     1       6.054   4.212  -1.758  0.00  0.00    -0.354 N 
ATOM     12  H   UNL     1       5.625   4.712  -2.470  0.00  0.00    +0.166 HD
ATOM     13  C   UNL     1       5.995   1.790   0.877  0.00  0.00    +0.060 A 
ATOM     14  C   UNL     1       4.668   1.318   0.895  0.00  0.00    +0.058 A 
ATOM     15  C   UNL     1       4.606   0.321   1.975  0.00  0.00    +0.252 C 
ATOM     16  O   UNL     1       3.621  -0.314   2.298  0.00  0.00    -0.270 OA
ATOM     17  N   UNL     1       5.821   0.230   2.546  0.00  0.00    -0.248 N 
ATOM     18  C   UNL     1       6.697   1.058   1.949  0.00  0.00    +0.252 C 
ATOM     19  O   UNL     1       7.867   1.190   2.251  0.00  0.00    -0.270 OA
ATOM     20  H   UNL     1       6.038  -0.361   3.284  0.00  0.00    +0.158 HD
ENDROOT
BRANCH   1  23
ATOM     21  C   UNL     1      -0.016   1.355   0.009  0.00  0.00    +0.008 A 
ATOM     22  C   UNL     1       1.175   2.042   0.002  0.00  0.00    +0.016 A 
ATOM     23  C   UNL     1       2.347   1.329  -0.013  0.00  0.00    +0.020 A 
ATOM     24  S   UNL     1       1.752  -0.355  -0.017  0.00  0.00    -0.097 S 
ATOM     25  C   UNL     1       0.002  -0.004   0.002  0.00  0.00    +0.046 A 
ENDBRANCH   1  23
BRANCH   7  26
ATOM     26  O   UNL     1      11.168   4.132   0.284  0.00  0.00    -0.507 OA
ATOM     27  H   UNL     1      11.748   3.481  -0.135  0.00  0.00    +0.292 HD
ENDBRANCH   7  26
TORSDOF 2
