REMARK  Name = CHEMBL379346
REMARK  3 active torsions:
REMARK  status: ('A' for Active; 'I' for Inactive)
REMARK    1  A    between atoms: C_4  and  C_7
REMARK    2  A    between atoms: C_12  and  C_13
REMARK    3  A    between atoms: C_19  and  O_25
REMARK                            x       y       z     vdW  Elec       q    Type
REMARK                         _______ _______ _______ _____ _____    ______ ____
ROOT
ATOM      1  C   UNL     1       2.765  -2.071   1.720  0.00  0.00    -0.002 A 
ATOM      2  C   UNL     1       2.842  -1.745   3.073  0.00  0.00    +0.035 A 
ATOM      3  C   UNL     1       1.810  -2.080   3.938  0.00  0.00    +0.049 A 
ATOM      4  C   UNL     1       0.673  -2.755   3.446  0.00  0.00    +0.020 A 
ATOM      5  C   UNL     1      -0.221  -2.960   4.598  0.00  0.00    +0.012 A 
ATOM      6  C   UNL     1      -1.472  -3.557   4.745  0.00  0.00    +0.056 A 
ATOM      7  C   UNL     1      -2.072  -3.594   5.990  0.00  0.00    +0.118 A 
ATOM      8  C   UNL     1      -1.430  -3.038   7.091  0.00  0.00    +0.047 A 
ATOM      9  C   UNL     1      -0.193  -2.445   6.955  0.00  0.00    +0.030 A 
ATOM     10  C   UNL     1       0.426  -2.399   5.710  0.00  0.00    +0.048 A 
ATOM     11  N   UNL     1       1.640  -1.877   5.294  0.00  0.00    -0.354 N 
ATOM     12  H   UNL     1       2.280  -1.433   5.872  0.00  0.00    +0.166 HD
ATOM     13  C   UNL     1       0.588  -3.085   2.093  0.00  0.00    +0.059 A 
ATOM     14  C   UNL     1       1.638  -2.737   1.222  0.00  0.00    +0.058 A 
ATOM     15  C   UNL     1       1.234  -3.216  -0.111  0.00  0.00    +0.252 C 
ATOM     16  O   UNL     1       1.885  -3.104  -1.131  0.00  0.00    -0.270 OA
ATOM     17  N   UNL     1       0.026  -3.797  -0.011  0.00  0.00    -0.248 N 
ATOM     18  C   UNL     1      -0.419  -3.768   1.258  0.00  0.00    +0.252 C 
ATOM     19  O   UNL     1      -1.478  -4.217   1.649  0.00  0.00    -0.270 OA
ATOM     20  H   UNL     1      -0.458  -4.192  -0.754  0.00  0.00    +0.158 HD
ENDROOT
BRANCH   1  26
ATOM     21  C   UNL     1       4.668  -2.712   0.228  0.00  0.00    -0.010 A 
ATOM     22  C   UNL     1       5.703  -2.357  -0.633  0.00  0.00    +0.009 A 
ATOM     23  C   UNL     1       5.947  -1.027  -0.909  0.00  0.00    +0.001 A 
ATOM     24  C   UNL     1       5.167  -0.037  -0.333  0.00  0.00    +0.001 A 
ATOM     25  C   UNL     1       4.137  -0.370   0.523  0.00  0.00    +0.009 A 
ATOM     26  C   UNL     1       3.873  -1.709   0.808  0.00  0.00    -0.009 A 
BRANCH  21  30
ATOM     27  C   UNL     1       3.907  -6.805   1.083  0.00  0.00    +0.000 A 
ATOM     28  C   UNL     1       3.913  -6.365  -0.228  0.00  0.00    +0.001 A 
ATOM     29  C   UNL     1       4.160  -5.037  -0.512  0.00  0.00    +0.008 A 
ATOM     30  C   UNL     1       4.402  -4.139   0.526  0.00  0.00    -0.017 A 
ATOM     31  C   UNL     1       4.394  -4.588   1.846  0.00  0.00    +0.008 A 
ATOM     32  C   UNL     1       4.147  -5.918   2.117  0.00  0.00    +0.001 A 
ENDBRANCH  21  30
ENDBRANCH   1  26
BRANCH   7  33
ATOM     33  O   UNL     1      -3.292  -4.175   6.138  0.00  0.00    -0.507 OA
ATOM     34  H   UNL     1      -3.256  -5.119   6.346  0.00  0.00    +0.292 HD
ENDBRANCH   7  33
TORSDOF 3
