REMARK  Name = CHEMBL514192
REMARK  8 active torsions:
REMARK  status: ('A' for Active; 'I' for Inactive)
REMARK    1  A    between atoms: C_1  and  N_2
REMARK    2  A    between atoms: C_5  and  C_32
REMARK    3  A    between atoms: C_12  and  S_16
REMARK    4  A    between atoms: C_13  and  O_15
REMARK    5  A    between atoms: S_16  and  N_19
REMARK    6  A    between atoms: N_19  and  C_20
REMARK    7  A    between atoms: C_20  and  C_21
REMARK    8  A    between atoms: C_21  and  N_22
REMARK                            x       y       z     vdW  Elec       q    Type
REMARK                         _______ _______ _______ _____ _____    ______ ____
ROOT
ATOM      1  C   UNL     1       0.476   1.407  -0.064  0.00  0.00    +0.149 C 
ATOM      2  N   UNL     1       0.475  -0.057  -0.080  0.00  0.00    -0.343 N 
ATOM      3  C   UNL     1       0.568  -0.833  -1.218  0.00  0.00    +0.051 A 
ATOM      4  C   UNL     1       0.677  -0.501  -2.562  0.00  0.00    +0.035 A 
ATOM      5  C   UNL     1       0.754  -1.497  -3.533  0.00  0.00    -0.002 A 
ATOM      6  C   UNL     1       0.722  -2.846  -3.159  0.00  0.00    +0.058 A 
ATOM      7  C   UNL     1       0.611  -3.193  -1.800  0.00  0.00    +0.059 A 
ATOM      8  C   UNL     1       0.534  -2.190  -0.833  0.00  0.00    +0.021 A 
ATOM      9  C   UNL     1       0.414  -2.203   0.635  0.00  0.00    +0.012 A 
ATOM     10  C   UNL     1       0.388  -0.861   1.045  0.00  0.00    +0.052 A 
ATOM     11  C   UNL     1       0.284  -0.565   2.400  0.00  0.00    +0.058 A 
ATOM     12  C   UNL     1       0.212  -1.582   3.328  0.00  0.00    +0.148 A 
ATOM     13  C   UNL     1       0.242  -2.912   2.922  0.00  0.00    +0.144 A 
ATOM     14  C   UNL     1       0.336  -3.225   1.579  0.00  0.00    +0.058 A 
ATOM     15  C   UNL     1       0.605  -4.668  -1.758  0.00  0.00    +0.252 C 
ATOM     16  O   UNL     1       0.522  -5.350  -0.756  0.00  0.00    -0.270 OA
ATOM     17  N   UNL     1       0.706  -5.132  -3.017  0.00  0.00    -0.248 N 
ATOM     18  C   UNL     1       0.779  -4.119  -3.899  0.00  0.00    +0.252 C 
ATOM     19  O   UNL     1       0.876  -4.234  -5.105  0.00  0.00    -0.270 OA
ATOM     20  H   UNL     1       0.724  -6.072  -3.257  0.00  0.00    +0.158 HD
ENDROOT
BRANCH   5  21
ATOM     21  C   UNL     1       0.870  -1.128  -4.963  0.00  0.00    +0.001 A 
ATOM     22  C   UNL     1       2.007  -0.467  -5.426  0.00  0.00    +0.010 A 
ATOM     23  C   UNL     1       2.109  -0.126  -6.759  0.00  0.00    +0.001 A 
ATOM     24  C   UNL     1       1.087  -0.440  -7.637  0.00  0.00    +0.001 A 
ATOM     25  C   UNL     1      -0.044  -1.095  -7.185  0.00  0.00    +0.020 A 
ATOM     26  C   UNL     1      -0.156  -1.447  -5.854  0.00  0.00    +0.049 A 
ATOM     27 CL   UNL     1      -1.573  -2.276  -5.290  0.00  0.00    -0.083 Cl
ENDBRANCH   5  21
BRANCH  12  28
ATOM     28  S   UNL     1       0.081  -1.194   5.042  0.00  0.00    +0.062 S 
ATOM     29  O   UNL     1       0.116   0.223   5.141  0.00  0.00    -0.153 OA
ATOM     30  O   UNL     1      -0.997  -1.967   5.552  0.00  0.00    -0.153 OA
BRANCH  28  31
ATOM     31  N   UNL     1       1.455  -1.754   5.777  0.00  0.00    -0.188 NA
ATOM     32  H   UNL     1       1.397  -2.461   6.438  0.00  0.00    +0.148 HD
BRANCH  31  33
ATOM     33  C   UNL     1       2.758  -1.181   5.428  0.00  0.00    +0.127 C 
BRANCH  33  34
ATOM     34  C   UNL     1       3.791  -1.586   6.481  0.00  0.00    +0.138 C 
BRANCH  34  35
ATOM     35  N   UNL     1       5.094  -1.013   6.133  0.00  0.00    -0.352 N 
ATOM     36  C   UNL     1       6.040  -1.608   5.352  0.00  0.00    +0.086 A 
ATOM     37  C   UNL     1       7.096  -0.775   5.261  0.00  0.00    +0.019 A 
ATOM     38  C   UNL     1       6.791   0.376   6.014  0.00  0.00    +0.019 A 
ATOM     39  C   UNL     1       5.558   0.206   6.530  0.00  0.00    +0.086 A 
ENDBRANCH  34  35
ENDBRANCH  33  34
ENDBRANCH  31  33
ENDBRANCH  28  31
ENDBRANCH  12  28
BRANCH  13  40
ATOM     40  O   UNL     1       0.170  -3.905   3.848  0.00  0.00    -0.505 OA
ATOM     41  H   UNL     1      -0.723  -4.246   3.991  0.00  0.00    +0.292 HD
ENDBRANCH  13  40
TORSDOF 7
