REMARK  Name = CHEMBL469822
REMARK  11 active torsions:
REMARK  status: ('A' for Active; 'I' for Inactive)
REMARK    1  A    between atoms: C_5  and  C_7
REMARK    2  A    between atoms: C_13  and  O_30
REMARK    3  A    between atoms: C_13  and  O_31
REMARK    4  A    between atoms: C_14  and  O_21
REMARK    5  A    between atoms: N_17  and  C_18
REMARK    6  A    between atoms: C_18  and  C_19
REMARK    7  A    between atoms: C_19  and  O_20
REMARK    8  A    between atoms: O_21  and  C_22
REMARK    9  A    between atoms: C_22  and  C_23
REMARK   10  A    between atoms: C_23  and  C_24
REMARK   11  A    between atoms: C_24  and  N_25
REMARK                            x       y       z     vdW  Elec       q    Type
REMARK                         _______ _______ _______ _____ _____    ______ ____
ROOT
ATOM      1  C   UNL     1       1.248  -2.163  -0.022  0.00  0.00    -0.002 A 
ATOM      2  C   UNL     1       0.745  -2.864  -1.118  0.00  0.00    +0.035 A 
ATOM      3  C   UNL     1       0.762  -4.251  -1.142  0.00  0.00    +0.051 A 
ATOM      4  C   UNL     1       1.282  -4.964  -0.038  0.00  0.00    +0.020 A 
ATOM      5  C   UNL     1       1.134  -6.388  -0.351  0.00  0.00    +0.009 A 
ATOM      6  C   UNL     1       1.360  -7.504   0.354  0.00  0.00    +0.050 C 
ATOM      7  C   UNL     1       0.971  -8.823  -0.272  0.00  0.00    +0.216 C 
ATOM      8  C   UNL     1       1.155  -8.820  -1.781  0.00  0.00    +0.206 C 
ATOM      9  C   UNL     1       0.584  -7.585  -2.433  0.00  0.00    +0.036 C 
ATOM     10  C   UNL     1       0.624  -6.438  -1.752  0.00  0.00    +0.049 A 
ATOM     11  N   UNL     1       0.328  -5.142  -2.117  0.00  0.00    -0.338 N 
ATOM     12  C   UNL     1       1.794  -4.270   1.058  0.00  0.00    +0.059 A 
ATOM     13  C   UNL     1       1.783  -2.860   1.066  0.00  0.00    +0.058 A 
ATOM     14  C   UNL     1       2.392  -2.458   2.344  0.00  0.00    +0.252 C 
ATOM     15  O   UNL     1       2.558  -1.315   2.722  0.00  0.00    -0.270 OA
ATOM     16  N   UNL     1       2.734  -3.567   3.025  0.00  0.00    -0.248 N 
ATOM     17  C   UNL     1       2.406  -4.676   2.337  0.00  0.00    +0.252 C 
ATOM     18  O   UNL     1       2.592  -5.819   2.704  0.00  0.00    -0.270 OA
ATOM     19  H   UNL     1       3.155  -3.567   3.899  0.00  0.00    +0.158 HD
ENDROOT
BRANCH   1  24
ATOM     20  C   UNL     1      -0.017   1.375   0.010  0.00  0.00    +0.001 A 
ATOM     21  C   UNL     1       1.170   2.087   0.002  0.00  0.00    +0.001 A 
ATOM     22  C   UNL     1       2.382   1.421  -0.013  0.00  0.00    +0.020 A 
ATOM     23  C   UNL     1       2.415   0.040  -0.021  0.00  0.00    +0.049 A 
ATOM     24  C   UNL     1       1.221  -0.682  -0.014  0.00  0.00    +0.001 A 
ATOM     25  C   UNL     1       0.002  -0.004   0.002  0.00  0.00    +0.010 A 
ATOM     26 CL   UNL     1       3.937  -0.794  -0.042  0.00  0.00    -0.083 Cl
ENDBRANCH   1  24
BRANCH   7  27
ATOM     27  O   UNL     1       1.777  -9.859   0.292  0.00  0.00    -0.359 OA
ATOM     28  H   UNL     1       1.683  -9.954   1.250  0.00  0.00    +0.213 HD
ENDBRANCH   7  27
BRANCH   7  29
ATOM     29  O   UNL     1      -0.400  -9.091   0.027  0.00  0.00    -0.359 OA
ATOM     30  H   UNL     1      -0.592  -9.151   0.973  0.00  0.00    +0.213 HD
ENDBRANCH   7  29
BRANCH  11  31
ATOM     31  C   UNL     1      -0.350  -4.757  -3.357  0.00  0.00    +0.150 C 
BRANCH  31  32
ATOM     32  C   UNL     1       0.691  -4.519  -4.454  0.00  0.00    +0.177 C 
BRANCH  32  33
ATOM     33  O   UNL     1       1.358  -5.747  -4.752  0.00  0.00    -0.393 OA
ATOM     34  H   UNL     1       2.033  -5.671  -5.441  0.00  0.00    +0.209 HD
ENDBRANCH  32  33
ENDBRANCH  31  32
ENDBRANCH  11  31
BRANCH   8  35
ATOM     35  O   UNL     1       2.551  -8.895  -2.076  0.00  0.00    -0.367 OA
BRANCH  35  36
ATOM     36  C   UNL     1       2.850  -9.556  -3.308  0.00  0.00    +0.162 C 
BRANCH  36  37
ATOM     37  C   UNL     1       4.365  -9.577  -3.520  0.00  0.00    +0.050 C 
BRANCH  37  38
ATOM     38  C   UNL     1       4.685 -10.284  -4.839  0.00  0.00    +0.123 C 
BRANCH  38  39
ATOM     39  N   UNL     1       6.136 -10.305  -5.042  0.00  0.00    -0.353 N 
ATOM     40  C   UNL     1       6.862  -9.344  -5.681  0.00  0.00    +0.085 A 
ATOM     41  C   UNL     1       8.159  -9.716  -5.667  0.00  0.00    +0.019 A 
ATOM     42  C   UNL     1       8.235 -10.952  -4.994  0.00  0.00    +0.019 A 
ATOM     43  C   UNL     1       6.984 -11.285  -4.618  0.00  0.00    +0.085 A 
ENDBRANCH  38  39
ENDBRANCH  37  38
ENDBRANCH  36  37
ENDBRANCH  35  36
ENDBRANCH   8  35
TORSDOF 11
