REMARK  Name = CHEMBL209907
REMARK  1 active torsions:
REMARK  status: ('A' for Active; 'I' for Inactive)
REMARK    1  A    between atoms: C_6  and  O_7
REMARK                            x       y       z     vdW  Elec       q    Type
REMARK                         _______ _______ _______ _____ _____    ______ ____
ROOT
ATOM      1  C   UNL     1      -0.017   1.386   0.010  0.00  0.00    +0.047 A 
ATOM      2  C   UNL     1       1.161   2.103   0.002  0.00  0.00    +0.030 A 
ATOM      3  C   UNL     1       2.382   1.438  -0.013  0.00  0.00    +0.048 A 
ATOM      4  C   UNL     1       2.403   0.034  -0.021  0.00  0.00    +0.012 A 
ATOM      5  C   UNL     1       1.207  -0.682  -0.014  0.00  0.00    +0.056 A 
ATOM      6  C   UNL     1       0.002  -0.004   0.002  0.00  0.00    +0.118 A 
ATOM      7  C   UNL     1       3.821  -0.363  -0.037  0.00  0.00    +0.020 A 
ATOM      8  C   UNL     1       4.570   0.831  -0.038  0.00  0.00    +0.048 A 
ATOM      9  N   UNL     1       3.690   1.894  -0.024  0.00  0.00    -0.354 N 
ATOM     10  H   UNL     1       3.951   2.828  -0.022  0.00  0.00    +0.166 HD
ATOM     11  C   UNL     1       5.960   0.772  -0.052  0.00  0.00    +0.027 A 
ATOM     12  C   UNL     1       6.612  -0.445  -0.066  0.00  0.00    +0.016 A 
ATOM     13  C   UNL     1       5.886  -1.630  -0.065  0.00  0.00    +0.050 A 
ATOM     14  C   UNL     1       4.478  -1.593  -0.051  0.00  0.00    +0.059 A 
ATOM     15  C   UNL     1       4.036  -3.001  -0.054  0.00  0.00    +0.252 C 
ATOM     16  O   UNL     1       2.883  -3.382  -0.045  0.00  0.00    -0.270 OA
ATOM     17  N   UNL     1       5.124  -3.792  -0.070  0.00  0.00    -0.248 N 
ATOM     18  C   UNL     1       6.253  -3.060  -0.076  0.00  0.00    +0.251 C 
ATOM     19  O   UNL     1       7.384  -3.502  -0.089  0.00  0.00    -0.270 OA
ATOM     20  H   UNL     1       5.098  -4.762  -0.076  0.00  0.00    +0.158 HD
ENDROOT
BRANCH   6  21
ATOM     21  O   UNL     1      -1.167  -0.699   0.009  0.00  0.00    -0.507 OA
ATOM     22  H   UNL     1      -1.514  -0.895  -0.872  0.00  0.00    +0.292 HD
ENDBRANCH   6  21
TORSDOF 1
