REMARK  Name = CHEMBL213422
REMARK  2 active torsions:
REMARK  status: ('A' for Active; 'I' for Inactive)
REMARK    1  A    between atoms: C_6  and  O_7
REMARK    2  A    between atoms: C_13  and  C_21
REMARK                            x       y       z     vdW  Elec       q    Type
REMARK                         _______ _______ _______ _____ _____    ______ ____
ROOT
ATOM      1  C   UNL     1      -0.017   1.386   0.010  0.00  0.00    +0.047 A 
ATOM      2  C   UNL     1       1.161   2.103   0.002  0.00  0.00    +0.030 A 
ATOM      3  C   UNL     1       2.382   1.438  -0.013  0.00  0.00    +0.048 A 
ATOM      4  C   UNL     1       2.403   0.035  -0.021  0.00  0.00    +0.012 A 
ATOM      5  C   UNL     1       1.207  -0.682  -0.013  0.00  0.00    +0.056 A 
ATOM      6  C   UNL     1       0.002  -0.004   0.002  0.00  0.00    +0.118 A 
ATOM      7  C   UNL     1       3.820  -0.364  -0.037  0.00  0.00    +0.020 A 
ATOM      8  C   UNL     1       4.571   0.831  -0.038  0.00  0.00    +0.049 A 
ATOM      9  N   UNL     1       3.691   1.895  -0.023  0.00  0.00    -0.354 N 
ATOM     10  H   UNL     1       3.951   2.830  -0.021  0.00  0.00    +0.166 HD
ATOM     11  C   UNL     1       5.957   0.777  -0.052  0.00  0.00    +0.035 A 
ATOM     12  C   UNL     1       6.617  -0.452  -0.066  0.00  0.00    -0.002 A 
ATOM     13  C   UNL     1       5.880  -1.643  -0.065  0.00  0.00    +0.058 A 
ATOM     14  C   UNL     1       4.472  -1.597  -0.050  0.00  0.00    +0.059 A 
ATOM     15  C   UNL     1       4.023  -3.002  -0.052  0.00  0.00    +0.252 C 
ATOM     16  O   UNL     1       2.867  -3.378  -0.043  0.00  0.00    -0.270 OA
ATOM     17  N   UNL     1       5.107  -3.798  -0.067  0.00  0.00    -0.248 N 
ATOM     18  C   UNL     1       6.239  -3.071  -0.077  0.00  0.00    +0.252 C 
ATOM     19  O   UNL     1       7.369  -3.518  -0.092  0.00  0.00    -0.270 OA
ATOM     20  H   UNL     1       5.078  -4.768  -0.072  0.00  0.00    +0.158 HD
ENDROOT
BRANCH  12  21
ATOM     21  C   UNL     1       8.097  -0.497  -0.082  0.00  0.00    +0.000 A 
ATOM     22  C   UNL     1       8.927  -1.265   0.776  0.00  0.00    +0.027 A 
ATOM     23  C   UNL     1      10.202  -1.016   0.427  0.00  0.00    +0.083 A 
ATOM     24  N   UNL     1      10.203  -0.128  -0.609  0.00  0.00    -0.366 N 
ATOM     25  H   UNL     1      10.993   0.220  -1.052  0.00  0.00    +0.165 HD
ATOM     26  C   UNL     1       8.919   0.187  -0.926  0.00  0.00    +0.091 A 
ENDBRANCH  12  21
BRANCH   6  27
ATOM     27  O   UNL     1      -1.167  -0.699   0.010  0.00  0.00    -0.507 OA
ATOM     28  H   UNL     1      -1.514  -0.895  -0.871  0.00  0.00    +0.292 HD
ENDBRANCH   6  27
TORSDOF 2
