REMARK  Name = CHEMBL469822
REMARK  11 active torsions:
REMARK  status: ('A' for Active; 'I' for Inactive)
REMARK    1  A    between atoms: C_5  and  C_7
REMARK    2  A    between atoms: C_13  and  O_30
REMARK    3  A    between atoms: C_13  and  O_31
REMARK    4  A    between atoms: C_14  and  O_21
REMARK    5  A    between atoms: N_17  and  C_18
REMARK    6  A    between atoms: C_18  and  C_19
REMARK    7  A    between atoms: C_19  and  O_20
REMARK    8  A    between atoms: O_21  and  C_22
REMARK    9  A    between atoms: C_22  and  C_23
REMARK   10  A    between atoms: C_23  and  C_24
REMARK   11  A    between atoms: C_24  and  N_25
REMARK                            x       y       z     vdW  Elec       q    Type
REMARK                         _______ _______ _______ _____ _____    ______ ____
ROOT
ATOM      1  C   UNL     1       1.248  -2.163  -0.022  0.00  0.00    -0.002 A 
ATOM      2  C   UNL     1       0.745  -2.864  -1.118  0.00  0.00    +0.035 A 
ATOM      3  C   UNL     1       0.763  -4.251  -1.143  0.00  0.00    +0.051 A 
ATOM      4  C   UNL     1       1.310  -4.964  -0.051  0.00  0.00    +0.020 A 
ATOM      5  C   UNL     1       1.212  -6.387  -0.388  0.00  0.00    +0.009 A 
ATOM      6  C   UNL     1       1.650  -7.498   0.217  0.00  0.00    +0.050 C 
ATOM      7  C   UNL     1       1.459  -8.812  -0.502  0.00  0.00    +0.216 C 
ATOM      8  C   UNL     1       0.176  -8.841  -1.319  0.00  0.00    +0.206 C 
ATOM      9  C   UNL     1      -0.007  -7.597  -2.154  0.00  0.00    +0.036 C 
ATOM     10  C   UNL     1       0.454  -6.441  -1.672  0.00  0.00    +0.049 A 
ATOM     11  N   UNL     1       0.316  -5.142  -2.111  0.00  0.00    -0.338 N 
ATOM     12  C   UNL     1       1.808  -4.270   1.051  0.00  0.00    +0.059 A 
ATOM     13  C   UNL     1       1.783  -2.860   1.066  0.00  0.00    +0.058 A 
ATOM     14  C   UNL     1       2.381  -2.458   2.349  0.00  0.00    +0.252 C 
ATOM     15  O   UNL     1       2.530  -1.315   2.735  0.00  0.00    -0.270 OA
ATOM     16  N   UNL     1       2.734  -3.567   3.025  0.00  0.00    -0.248 N 
ATOM     17  C   UNL     1       2.422  -4.676   2.330  0.00  0.00    +0.252 C 
ATOM     18  O   UNL     1       2.625  -5.819   2.689  0.00  0.00    -0.270 OA
ATOM     19  H   UNL     1       3.151  -3.567   3.901  0.00  0.00    +0.158 HD
ENDROOT
BRANCH   1  24
ATOM     20  C   UNL     1      -0.017   1.375   0.010  0.00  0.00    +0.001 A 
ATOM     21  C   UNL     1       1.170   2.087   0.002  0.00  0.00    +0.001 A 
ATOM     22  C   UNL     1       2.382   1.421  -0.013  0.00  0.00    +0.020 A 
ATOM     23  C   UNL     1       2.415   0.040  -0.021  0.00  0.00    +0.049 A 
ATOM     24  C   UNL     1       1.221  -0.682  -0.014  0.00  0.00    +0.001 A 
ATOM     25  C   UNL     1       0.002  -0.004   0.002  0.00  0.00    +0.010 A 
ATOM     26 CL   UNL     1       3.937  -0.794  -0.042  0.00  0.00    -0.083 Cl
ENDBRANCH   1  24
BRANCH   7  27
ATOM     27  O   UNL     1       1.418  -9.867   0.462  0.00  0.00    -0.359 OA
ATOM     28  H   UNL     1       2.220  -9.942   0.996  0.00  0.00    +0.213 HD
ENDBRANCH   7  27
BRANCH   7  29
ATOM     29  O   UNL     1       2.569  -9.029  -1.376  0.00  0.00    -0.359 OA
ATOM     30  H   UNL     1       3.423  -9.067  -0.924  0.00  0.00    +0.213 HD
ENDBRANCH   7  29
BRANCH  11  31
ATOM     31  C   UNL     1      -0.226  -4.755  -3.416  0.00  0.00    +0.150 C 
BRANCH  31  32
ATOM     32  C   UNL     1       0.911  -4.670  -4.436  0.00  0.00    +0.177 C 
BRANCH  32  33
ATOM     33  O   UNL     1       1.474  -5.969  -4.631  0.00  0.00    -0.393 OA
ATOM     34  H   UNL     1       2.202  -5.990  -5.267  0.00  0.00    +0.209 HD
ENDBRANCH  32  33
ENDBRANCH  31  32
ENDBRANCH  11  31
BRANCH   8  35
ATOM     35  O   UNL     1      -0.935  -8.968  -0.429  0.00  0.00    -0.367 OA
BRANCH  35  36
ATOM     36  C   UNL     1      -2.053  -9.658  -0.991  0.00  0.00    +0.162 C 
BRANCH  36  37
ATOM     37  C   UNL     1      -3.177  -9.734   0.044  0.00  0.00    +0.050 C 
BRANCH  37  38
ATOM     38  C   UNL     1      -4.375 -10.473  -0.557  0.00  0.00    +0.123 C 
BRANCH  38  39
ATOM     39  N   UNL     1      -5.451 -10.546   0.434  0.00  0.00    -0.353 N 
ATOM     40  C   UNL     1      -5.625 -11.545   1.346  0.00  0.00    +0.085 A 
ATOM     41  C   UNL     1      -6.719 -11.260   2.079  0.00  0.00    +0.019 A 
ATOM     42  C   UNL     1      -7.241 -10.041   1.603  0.00  0.00    +0.019 A 
ATOM     43  C   UNL     1      -6.442  -9.624   0.600  0.00  0.00    +0.085 A 
ENDBRANCH  38  39
ENDBRANCH  37  38
ENDBRANCH  36  37
ENDBRANCH  35  36
ENDBRANCH   8  35
TORSDOF 11
