REMARK  Name = CHEMBL483953
REMARK  6 active torsions:
REMARK  status: ('A' for Active; 'I' for Inactive)
REMARK    1  A    between atoms: C_1  and  N_2
REMARK    2  A    between atoms: N_5  and  C_8
REMARK    3  A    between atoms: C_8  and  C_9
REMARK    4  A    between atoms: C_9  and  C_10
REMARK    5  A    between atoms: C_10  and  N_11
REMARK    6  A    between atoms: C_15  and  O_29
REMARK                            x       y       z     vdW  Elec       q    Type
REMARK                         _______ _______ _______ _____ _____    ______ ____
ROOT
ATOM      1  N   UNL     1       0.659  -6.640   3.486  0.00  0.00    -0.340 N 
ATOM      2  C   UNL     1       2.010  -6.862   3.704  0.00  0.00    +0.050 A 
ATOM      3  C   UNL     1       3.129  -6.684   2.897  0.00  0.00    +0.030 A 
ATOM      4  C   UNL     1       4.383  -6.992   3.376  0.00  0.00    +0.047 A 
ATOM      5  C   UNL     1       4.546  -7.482   4.667  0.00  0.00    +0.118 A 
ATOM      6  C   UNL     1       3.446  -7.665   5.484  0.00  0.00    +0.056 A 
ATOM      7  C   UNL     1       2.173  -7.357   5.007  0.00  0.00    +0.012 A 
ATOM      8  C   UNL     1       0.827  -7.431   5.598  0.00  0.00    +0.021 A 
ATOM      9  C   UNL     1      -0.069  -6.970   4.611  0.00  0.00    +0.051 A 
ATOM     10  C   UNL     1      -1.432  -6.921   4.888  0.00  0.00    +0.027 A 
ATOM     11  C   UNL     1      -1.914  -7.317   6.120  0.00  0.00    +0.016 A 
ATOM     12  C   UNL     1      -1.042  -7.771   7.102  0.00  0.00    +0.050 A 
ATOM     13  C   UNL     1       0.340  -7.835   6.841  0.00  0.00    +0.059 A 
ATOM     14  C   UNL     1       0.962  -8.352   8.075  0.00  0.00    +0.252 C 
ATOM     15  O   UNL     1       2.150  -8.539   8.246  0.00  0.00    -0.270 OA
ATOM     16  N   UNL     1      -0.006  -8.581   8.980  0.00  0.00    -0.248 N 
ATOM     17  C   UNL     1      -1.215  -8.256   8.486  0.00  0.00    +0.251 C 
ATOM     18  O   UNL     1      -2.272  -8.355   9.076  0.00  0.00    -0.270 OA
ATOM     19  H   UNL     1       0.147  -8.924   9.874  0.00  0.00    +0.158 HD
ENDROOT
BRANCH   5  20
ATOM     20  O   UNL     1       5.790  -7.782   5.128  0.00  0.00    -0.507 OA
ATOM     21  H   UNL     1       6.238  -7.043   5.563  0.00  0.00    +0.292 HD
ENDBRANCH   5  20
BRANCH   1  22
ATOM     22  C   UNL     1       0.087  -6.124   2.241  0.00  0.00    +0.120 C 
BRANCH  22  23
ATOM     23  C   UNL     1       0.036  -4.596   2.298  0.00  0.00    +0.003 C 
BRANCH  23  24
ATOM     24  C   UNL     1      -0.562  -4.056   0.998  0.00  0.00    -0.077 C 
BRANCH  24  29
ATOM     25  C   UNL     1      -0.018   1.465   0.010  0.00  0.00    +0.104 C 
ATOM     26  N   UNL     1       0.002  -0.004   0.002  0.00  0.00    -0.309 NA
ATOM     27  C   UNL     1      -1.361  -0.549  -0.076  0.00  0.00    +0.065 C 
ATOM     28  C   UNL     1      -1.293  -2.076  -0.143  0.00  0.00    -0.063 C 
ATOM     29  N   UNL     1      -0.611  -2.589   1.053  0.00  0.00    +0.381 N 
ATOM     30  C   UNL     1       0.757  -2.055   1.104  0.00  0.00    -0.063 C 
ATOM     31  C   UNL     1       0.707  -0.528   1.181  0.00  0.00    +0.065 C 
ATOM     32  H   UNL     1      -1.115  -2.300   1.878  0.00  0.00    -0.082 HD
ENDBRANCH  24  29
ENDBRANCH  23  24
ENDBRANCH  22  23
ENDBRANCH   1  22
TORSDOF 5
