REMARK  Name = CHEMBL452829
REMARK  6 active torsions:
REMARK  status: ('A' for Active; 'I' for Inactive)
REMARK    1  A    between atoms: C_4  and  C_8
REMARK    2  A    between atoms: C_14  and  O_27
REMARK    3  A    between atoms: N_18  and  C_19
REMARK    4  A    between atoms: C_19  and  C_20
REMARK    5  A    between atoms: C_20  and  C_21
REMARK    6  A    between atoms: C_21  and  N_22
REMARK                            x       y       z     vdW  Elec       q    Type
REMARK                         _______ _______ _______ _____ _____    ______ ____
ROOT
ATOM      1  C   UNL     1       3.699  -0.687  -0.038  0.00  0.00    -0.000 A 
ATOM      2  C   UNL     1       4.317  -1.036   1.161  0.00  0.00    +0.035 A 
ATOM      3  C   UNL     1       5.530  -1.711   1.157  0.00  0.00    +0.051 A 
ATOM      4  C   UNL     1       6.144  -2.047  -0.069  0.00  0.00    +0.021 A 
ATOM      5  C   UNL     1       7.395  -2.744   0.269  0.00  0.00    +0.012 A 
ATOM      6  C   UNL     1       8.415  -3.307  -0.498  0.00  0.00    +0.056 A 
ATOM      7  C   UNL     1       9.492  -3.907   0.128  0.00  0.00    +0.118 A 
ATOM      8  C   UNL     1       9.557  -3.950   1.517  0.00  0.00    +0.047 A 
ATOM      9  C   UNL     1       8.553  -3.397   2.283  0.00  0.00    +0.030 A 
ATOM     10  C   UNL     1       7.463  -2.788   1.670  0.00  0.00    +0.050 A 
ATOM     11  N   UNL     1       6.337  -2.164   2.183  0.00  0.00    -0.340 N 
ATOM     12  C   UNL     1       5.531  -1.700  -1.274  0.00  0.00    +0.059 A 
ATOM     13  C   UNL     1       4.298  -1.020  -1.260  0.00  0.00    +0.058 A 
ATOM     14  C   UNL     1       3.932  -0.816  -2.672  0.00  0.00    +0.252 C 
ATOM     15  O   UNL     1       2.929  -0.258  -3.071  0.00  0.00    -0.270 OA
ATOM     16  N   UNL     1       4.893  -1.351  -3.446  0.00  0.00    -0.248 N 
ATOM     17  C   UNL     1       5.875  -1.884  -2.696  0.00  0.00    +0.252 C 
ATOM     18  O   UNL     1       6.871  -2.436  -3.120  0.00  0.00    -0.270 OA
ATOM     19  H   UNL     1       4.883  -1.346  -4.416  0.00  0.00    +0.158 HD
ENDROOT
BRANCH   1  23
ATOM     20  C   UNL     1      -0.017   1.379   0.010  0.00  0.00    +0.003 A 
ATOM     21  C   UNL     1       1.168   2.093   0.002  0.00  0.00    +0.021 A 
ATOM     22  C   UNL     1       2.378   1.428  -0.013  0.00  0.00    +0.050 A 
ATOM     23  C   UNL     1       2.405   0.033  -0.021  0.00  0.00    +0.020 A 
ATOM     24  C   UNL     1       1.206  -0.681  -0.013  0.00  0.00    +0.050 A 
ATOM     25  C   UNL     1       0.002  -0.004   0.002  0.00  0.00    +0.021 A 
ATOM     26 CL   UNL     1       1.227  -2.417  -0.023  0.00  0.00    -0.083 Cl
ATOM     27 CL   UNL     1       3.864   2.327  -0.024  0.00  0.00    -0.083 Cl
ENDBRANCH   1  23
BRANCH   7  28
ATOM     28  O   UNL     1      10.488  -4.458  -0.616  0.00  0.00    -0.507 OA
ATOM     29  H   UNL     1      11.205  -3.845  -0.827  0.00  0.00    +0.292 HD
ENDBRANCH   7  28
BRANCH  11  30
ATOM     30  C   UNL     1       6.043  -2.008   3.609  0.00  0.00    +0.124 C 
BRANCH  30  31
ATOM     31  C   UNL     1       5.240  -3.215   4.100  0.00  0.00    +0.043 C 
BRANCH  31  32
ATOM     32  C   UNL     1       4.933  -3.051   5.590  0.00  0.00    +0.124 C 
BRANCH  32  33
ATOM     33  N   UNL     1       4.164  -4.207   6.059  0.00  0.00    -0.337 N 
ATOM     34  C   UNL     1       2.801  -4.327   6.065  0.00  0.00    +0.106 A 
ATOM     35  C   UNL     1       2.519  -5.541   6.575  0.00  0.00    +0.130 A 
ATOM     36  N   UNL     1       3.679  -6.145   6.874  0.00  0.00    -0.244 NA
ATOM     37  C   UNL     1       4.669  -5.354   6.563  0.00  0.00    +0.199 A 
ENDBRANCH  32  33
ENDBRANCH  31  32
ENDBRANCH  30  31
ENDBRANCH  11  30
TORSDOF 6
