REMARK  Name = CHEMBL377839
REMARK  2 active torsions:
REMARK  status: ('A' for Active; 'I' for Inactive)
REMARK    1  A    between atoms: C_6  and  O_7
REMARK    2  A    between atoms: C_13  and  C_21
REMARK                            x       y       z     vdW  Elec       q    Type
REMARK                         _______ _______ _______ _____ _____    ______ ____
ROOT
ATOM      1  C   UNL     1      -0.017   1.386   0.010  0.00  0.00    +0.047 A 
ATOM      2  C   UNL     1       1.161   2.103   0.002  0.00  0.00    +0.030 A 
ATOM      3  C   UNL     1       2.382   1.438  -0.013  0.00  0.00    +0.048 A 
ATOM      4  C   UNL     1       2.403   0.035  -0.021  0.00  0.00    +0.012 A 
ATOM      5  C   UNL     1       1.207  -0.682  -0.013  0.00  0.00    +0.056 A 
ATOM      6  C   UNL     1       0.002  -0.004   0.002  0.00  0.00    +0.118 A 
ATOM      7  C   UNL     1       3.820  -0.364  -0.036  0.00  0.00    +0.020 A 
ATOM      8  C   UNL     1       4.571   0.831  -0.037  0.00  0.00    +0.049 A 
ATOM      9  N   UNL     1       3.691   1.895  -0.023  0.00  0.00    -0.354 N 
ATOM     10  H   UNL     1       3.951   2.830  -0.020  0.00  0.00    +0.166 HD
ATOM     11  C   UNL     1       5.957   0.777  -0.051  0.00  0.00    +0.035 A 
ATOM     12  C   UNL     1       6.617  -0.452  -0.064  0.00  0.00    -0.003 A 
ATOM     13  C   UNL     1       5.880  -1.643  -0.064  0.00  0.00    +0.058 A 
ATOM     14  C   UNL     1       4.472  -1.597  -0.049  0.00  0.00    +0.059 A 
ATOM     15  C   UNL     1       4.023  -3.002  -0.053  0.00  0.00    +0.252 C 
ATOM     16  O   UNL     1       2.867  -3.378  -0.043  0.00  0.00    -0.270 OA
ATOM     17  N   UNL     1       5.107  -3.798  -0.068  0.00  0.00    -0.248 N 
ATOM     18  C   UNL     1       6.239  -3.071  -0.076  0.00  0.00    +0.252 C 
ATOM     19  O   UNL     1       7.369  -3.518  -0.089  0.00  0.00    -0.270 OA
ATOM     20  H   UNL     1       5.077  -4.768  -0.072  0.00  0.00    +0.158 HD
ENDROOT
BRANCH  12  21
ATOM     21  C   UNL     1       8.096  -0.497  -0.079  0.00  0.00    -0.010 A 
ATOM     22  C   UNL     1       8.828   0.260  -0.996  0.00  0.00    +0.016 A 
ATOM     23  C   UNL     1      10.173   0.148  -0.927  0.00  0.00    +0.046 A 
ATOM     24  S   UNL     1      10.393  -1.006   0.411  0.00  0.00    -0.104 S 
ATOM     25  C   UNL     1       8.783  -1.274   0.806  0.00  0.00    +0.053 A 
ENDBRANCH  12  21
BRANCH   6  26
ATOM     26  O   UNL     1      -1.167  -0.699   0.009  0.00  0.00    -0.507 OA
ATOM     27  H   UNL     1      -1.514  -0.895  -0.872  0.00  0.00    +0.292 HD
ENDBRANCH   6  26
TORSDOF 2
