REMARK  Name = CHEMBL270866
REMARK  8 active torsions:
REMARK  status: ('A' for Active; 'I' for Inactive)
REMARK    1  A    between atoms: C_1  and  N_2
REMARK    2  A    between atoms: C_5  and  C_31
REMARK    3  A    between atoms: C_12  and  S_16
REMARK    4  A    between atoms: C_13  and  O_15
REMARK    5  A    between atoms: S_16  and  C_18
REMARK    6  A    between atoms: C_18  and  C_19
REMARK    7  A    between atoms: C_19  and  C_20
REMARK    8  A    between atoms: C_20  and  N_21
REMARK                            x       y       z     vdW  Elec       q    Type
REMARK                         _______ _______ _______ _____ _____    ______ ____
ROOT
ATOM      1  C   UNL     1      -0.018   1.461   0.010  0.00  0.00    +0.149 C 
ATOM      2  N   UNL     1       0.002  -0.004   0.002  0.00  0.00    -0.343 N 
ATOM      3  C   UNL     1       0.007  -0.786  -1.136  0.00  0.00    +0.051 A 
ATOM      4  C   UNL     1      -0.004  -0.461  -2.486  0.00  0.00    +0.035 A 
ATOM      5  C   UNL     1       0.004  -1.463  -3.455  0.00  0.00    -0.002 A 
ATOM      6  C   UNL     1       0.024  -2.810  -3.071  0.00  0.00    +0.058 A 
ATOM      7  C   UNL     1       0.036  -3.149  -1.706  0.00  0.00    +0.059 A 
ATOM      8  C   UNL     1       0.028  -2.140  -0.741  0.00  0.00    +0.021 A 
ATOM      9  C   UNL     1       0.035  -2.145   0.731  0.00  0.00    +0.012 A 
ATOM     10  C   UNL     1       0.024  -0.801   1.135  0.00  0.00    +0.051 A 
ATOM     11  C   UNL     1       0.033  -0.497   2.492  0.00  0.00    +0.047 A 
ATOM     12  C   UNL     1       0.056  -1.509   3.428  0.00  0.00    +0.082 A 
ATOM     13  C   UNL     1       0.070  -2.841   3.029  0.00  0.00    +0.133 A 
ATOM     14  C   UNL     1       0.053  -3.162   1.684  0.00  0.00    +0.057 A 
ATOM     15  C   UNL     1       0.055  -4.624  -1.656  0.00  0.00    +0.252 C 
ATOM     16  O   UNL     1       0.069  -5.300  -0.646  0.00  0.00    -0.270 OA
ATOM     17  N   UNL     1       0.054  -5.095  -2.916  0.00  0.00    -0.248 N 
ATOM     18  C   UNL     1       0.036  -4.086  -3.806  0.00  0.00    +0.252 C 
ATOM     19  O   UNL     1       0.030  -4.208  -5.015  0.00  0.00    -0.270 OA
ATOM     20  H   UNL     1       0.065  -6.035  -3.151  0.00  0.00    +0.158 HD
ENDROOT
BRANCH   5  21
ATOM     21  C   UNL     1      -0.009  -1.102  -4.891  0.00  0.00    +0.001 A 
ATOM     22  C   UNL     1       1.074  -0.428  -5.454  0.00  0.00    +0.010 A 
ATOM     23  C   UNL     1       1.056  -0.095  -6.793  0.00  0.00    +0.001 A 
ATOM     24  C   UNL     1      -0.034  -0.429  -7.578  0.00  0.00    +0.001 A 
ATOM     25  C   UNL     1      -1.111  -1.097  -7.027  0.00  0.00    +0.020 A 
ATOM     26  C   UNL     1      -1.103  -1.442  -5.689  0.00  0.00    +0.049 A 
ATOM     27 CL   UNL     1      -2.454  -2.288  -5.000  0.00  0.00    -0.083 Cl
ENDBRANCH   5  21
BRANCH  13  28
ATOM     28  O   UNL     1       0.094  -3.829   3.963  0.00  0.00    -0.506 OA
ATOM     29  H   UNL     1      -0.783  -4.127   4.242  0.00  0.00    +0.292 HD
ENDBRANCH  13  28
BRANCH  12  30
ATOM     30  S   UNL     1       0.067  -1.111   5.144  0.00  0.00    +0.057 S 
ATOM     31  O   UNL     1       0.511   0.238   5.182  0.00  0.00    -0.252 OA
BRANCH  30  32
ATOM     32  C   UNL     1      -1.681  -1.185   5.624  0.00  0.00    +0.107 C 
BRANCH  32  33
ATOM     33  C   UNL     1      -1.816  -0.856   7.112  0.00  0.00    -0.005 C 
BRANCH  33  34
ATOM     34  C   UNL     1      -3.291  -0.918   7.516  0.00  0.00    -0.078 C 
BRANCH  34  35
ATOM     35  N   UNL     1      -3.421  -0.602   8.944  0.00  0.00    +0.380 N 
ATOM     36  C   UNL     1      -3.095   0.827   9.184  0.00  0.00    -0.079 C 
ATOM     37  C   UNL     1      -3.798   1.130  10.531  0.00  0.00    -0.020 C 
ATOM     38  C   UNL     1      -5.109   0.317  10.427  0.00  0.00    -0.020 C 
ATOM     39  C   UNL     1      -4.824  -0.775   9.380  0.00  0.00    -0.079 C 
ATOM     40  H   UNL     1      -2.812  -1.194   9.489  0.00  0.00    -0.082 HD
ENDBRANCH  34  35
ENDBRANCH  33  34
ENDBRANCH  32  33
ENDBRANCH  30  32
ENDBRANCH  12  30
TORSDOF 7
