REMARK  Name = CHEMBL362862
REMARK  11 active torsions:
REMARK  status: ('A' for Active; 'I' for Inactive)
REMARK    1  A    between atoms: C_1  and  N_2
REMARK    2  A    between atoms: C_6  and  C_9
REMARK    3  A    between atoms: N_21  and  C_22
REMARK    4  A    between atoms: C_25  and  C_28
REMARK    5  A    between atoms: C_28  and  C_29
REMARK    6  A    between atoms: C_29  and  C_30
REMARK    7  A    between atoms: C_30  and  C_31
REMARK    8  A    between atoms: C_31  and  O_33
REMARK    9  A    between atoms: O_33  and  C_34
REMARK   10  A    between atoms: C_34  and  C_35
REMARK   11  A    between atoms: C_35  and  N_36
REMARK                            x       y       z     vdW  Elec       q    Type
REMARK                         _______ _______ _______ _____ _____    ______ ____
ROOT
ATOM      1  C   UNL     1      -0.783   1.442  -2.166  0.00  0.00    +0.154 C 
ATOM      2  N   UNL     1      -0.920   0.172  -2.883  0.00  0.00    -0.295 N 
ATOM      3  C   UNL     1      -2.128  -0.478  -2.889  0.00  0.00    +0.148 A 
ATOM      4  C   UNL     1      -2.277  -1.703  -3.575  0.00  0.00    +0.037 A 
ATOM      5  C   UNL     1      -1.180  -2.270  -4.263  0.00  0.00    +0.027 A 
ATOM      6  C   UNL     1       0.022  -1.615  -4.251  0.00  0.00    +0.050 A 
ATOM      7  C   UNL     1       0.141  -0.344  -3.534  0.00  0.00    +0.260 A 
ATOM      8  O   UNL     1       1.205   0.248  -3.522  0.00  0.00    -0.267 OA
ATOM      9  C   UNL     1      -3.530  -2.334  -3.557  0.00  0.00    +0.126 A 
ATOM     10  N   UNL     1      -4.518  -1.758  -2.899  0.00  0.00    -0.222 NA
ATOM     11  C   UNL     1      -4.342  -0.605  -2.264  0.00  0.00    +0.221 A 
ATOM     12  N   UNL     1      -3.179   0.029  -2.253  0.00  0.00    -0.196 NA
ATOM     13  N   UNL     1      -5.411  -0.045  -1.591  0.00  0.00    -0.284 N 
ATOM     14  H   UNL     1      -5.327   0.836  -1.195  0.00  0.00    +0.155 HD
ENDROOT
BRANCH   6  15
ATOM     15  C   UNL     1       1.190  -2.184  -4.962  0.00  0.00    +0.024 A 
ATOM     16  C   UNL     1       2.056  -3.056  -4.301  0.00  0.00    +0.050 A 
ATOM     17  C   UNL     1       3.143  -3.583  -4.970  0.00  0.00    +0.021 A 
ATOM     18  C   UNL     1       3.375  -3.249  -6.292  0.00  0.00    +0.003 A 
ATOM     19  C   UNL     1       2.521  -2.385  -6.953  0.00  0.00    +0.021 A 
ATOM     20  C   UNL     1       1.427  -1.855  -6.298  0.00  0.00    +0.050 A 
ATOM     21 CL   UNL     1       0.352  -0.776  -7.131  0.00  0.00    -0.083 Cl
ATOM     22 CL   UNL     1       1.768  -3.476  -2.642  0.00  0.00    -0.083 Cl
ENDBRANCH   6  15
BRANCH  13  23
ATOM     23  C   UNL     1      -6.613  -0.750  -1.480  0.00  0.00    +0.034 A 
ATOM     24  C   UNL     1      -6.599  -2.129  -1.310  0.00  0.00    +0.023 A 
ATOM     25  C   UNL     1      -7.788  -2.822  -1.201  0.00  0.00    +0.005 A 
ATOM     26  C   UNL     1      -8.992  -2.145  -1.260  0.00  0.00    -0.047 A 
ATOM     27  C   UNL     1      -9.010  -0.773  -1.429  0.00  0.00    +0.005 A 
ATOM     28  C   UNL     1      -7.824  -0.073  -1.532  0.00  0.00    +0.023 A 
BRANCH  26  29
ATOM     29  C   UNL     1     -10.289  -2.905  -1.141  0.00  0.00    +0.035 C 
BRANCH  29  30
ATOM     30  C   UNL     1     -10.698  -2.986   0.331  0.00  0.00    +0.016 C 
BRANCH  30  31
ATOM     31  C   UNL     1     -12.014  -3.757   0.453  0.00  0.00    +0.121 C 
BRANCH  31  32
ATOM     32  C   UNL     1     -12.418  -3.837   1.902  0.00  0.00    +0.307 C 
ATOM     33  O   UNL     1     -11.725  -3.329   2.751  0.00  0.00    -0.251 OA
BRANCH  32  34
ATOM     34  O   UNL     1     -13.548  -4.472   2.250  0.00  0.00    -0.463 OA
BRANCH  34  35
ATOM     35  C   UNL     1     -13.870  -4.509   3.642  0.00  0.00    +0.247 C 
BRANCH  35  36
ATOM     36  C   UNL     1     -15.182  -5.270   3.842  0.00  0.00    +0.125 C 
BRANCH  36  37
ATOM     37  N   UNL     1     -15.009  -6.665   3.416  0.00  0.00    -0.295 NA
ATOM     38  C   UNL     1     -16.310  -7.311   3.190  0.00  0.00    +0.112 C 
ATOM     39  C   UNL     1     -16.084  -8.741   2.690  0.00  0.00    +0.175 C 
ATOM     40  O   UNL     1     -15.284  -9.451   3.640  0.00  0.00    -0.377 OA
ATOM     41  C   UNL     1     -14.010  -8.849   3.884  0.00  0.00    +0.175 C 
ATOM     42  C   UNL     1     -14.215  -7.421   4.395  0.00  0.00    +0.112 C 
ENDBRANCH  36  37
ENDBRANCH  35  36
ENDBRANCH  34  35
ENDBRANCH  32  34
ENDBRANCH  31  32
ENDBRANCH  30  31
ENDBRANCH  29  30
ENDBRANCH  26  29
ENDBRANCH  13  23
TORSDOF 10
