REMARK  Name = CHEMBL366922
REMARK  9 active torsions:
REMARK  status: ('A' for Active; 'I' for Inactive)
REMARK    1  A    between atoms: C_1  and  N_2
REMARK    2  A    between atoms: C_6  and  C_9
REMARK    3  A    between atoms: C_13  and  O_16
REMARK    4  A    between atoms: N_22  and  C_23
REMARK    5  A    between atoms: C_26  and  O_29
REMARK    6  A    between atoms: O_29  and  C_30
REMARK    7  A    between atoms: C_30  and  C_31
REMARK    8  A    between atoms: C_31  and  C_32
REMARK    9  A    between atoms: C_32  and  C_33
REMARK                            x       y       z     vdW  Elec       q    Type
REMARK                         _______ _______ _______ _____ _____    ______ ____
ROOT
ATOM      1  C   UNL     1      -0.052   1.410   0.707  0.00  0.00    +0.154 C 
ATOM      2  N   UNL     1      -0.022  -0.041   0.501  0.00  0.00    -0.295 N 
ATOM      3  C   UNL     1      -1.194  -0.720   0.283  0.00  0.00    +0.148 A 
ATOM      4  C   UNL     1      -1.183  -2.117   0.083  0.00  0.00    +0.037 A 
ATOM      5  C   UNL     1       0.038  -2.829   0.105  0.00  0.00    +0.027 A 
ATOM      6  C   UNL     1       1.202  -2.143   0.323  0.00  0.00    +0.050 A 
ATOM      7  C   UNL     1       1.156  -0.693   0.522  0.00  0.00    +0.260 A 
ATOM      8  O   UNL     1       2.188  -0.074   0.712  0.00  0.00    -0.267 OA
ATOM      9  C   UNL     1      -2.404  -2.773  -0.138  0.00  0.00    +0.126 A 
ATOM     10  N   UNL     1      -3.513  -2.058  -0.148  0.00  0.00    -0.222 NA
ATOM     11  C   UNL     1      -3.485  -0.743   0.044  0.00  0.00    +0.221 A 
ATOM     12  N   UNL     1      -2.358  -0.080   0.256  0.00  0.00    -0.196 NA
ATOM     13  N   UNL     1      -4.675  -0.043   0.023  0.00  0.00    -0.284 N 
ATOM     14  H   UNL     1      -4.669   0.925   0.080  0.00  0.00    +0.155 HD
ENDROOT
BRANCH   6  15
ATOM     15  C   UNL     1       2.498  -2.861   0.352  0.00  0.00    +0.027 A 
ATOM     16  C   UNL     1       2.986  -3.376   1.554  0.00  0.00    +0.050 A 
ATOM     17  C   UNL     1       4.194  -4.045   1.578  0.00  0.00    +0.024 A 
ATOM     18  C   UNL     1       4.923  -4.206   0.414  0.00  0.00    +0.048 A 
ATOM     19  C   UNL     1       4.446  -3.696  -0.785  0.00  0.00    +0.136 A 
ATOM     20  C   UNL     1       3.232  -3.029  -0.821  0.00  0.00    +0.092 A 
ATOM     21 CL   UNL     1       2.630  -2.397  -2.322  0.00  0.00    -0.079 Cl
ATOM     22 CL   UNL     1       2.075  -3.176   3.019  0.00  0.00    -0.083 Cl
BRANCH  19  23
ATOM     23  O   UNL     1       5.167  -3.857  -1.926  0.00  0.00    -0.505 OA
ATOM     24  H   UNL     1       4.957  -4.665  -2.414  0.00  0.00    +0.292 HD
ENDBRANCH  19  23
ENDBRANCH   6  15
BRANCH  13  25
ATOM     25  C   UNL     1      -5.891  -0.730  -0.081  0.00  0.00    +0.034 A 
ATOM     26  C   UNL     1      -6.035  -1.979   0.509  0.00  0.00    +0.027 A 
ATOM     27  C   UNL     1      -7.234  -2.656   0.407  0.00  0.00    +0.047 A 
ATOM     28  C   UNL     1      -8.294  -2.090  -0.286  0.00  0.00    +0.121 A 
ATOM     29  C   UNL     1      -8.150  -0.843  -0.877  0.00  0.00    +0.047 A 
ATOM     30  C   UNL     1      -6.954  -0.162  -0.770  0.00  0.00    +0.027 A 
BRANCH  28  31
ATOM     31  O   UNL     1      -9.475  -2.757  -0.387  0.00  0.00    -0.492 OA
BRANCH  31  32
ATOM     32  C   UNL     1     -10.523  -2.115  -1.115  0.00  0.00    +0.229 C 
BRANCH  32  33
ATOM     33  C   UNL     1     -11.763  -3.011  -1.121  0.00  0.00    +0.052 C 
BRANCH  33  34
ATOM     34  C   UNL     1     -12.886  -2.323  -1.901  0.00  0.00    +0.128 C 
BRANCH  34  35
ATOM     35  C   UNL     1     -14.107  -3.206  -1.906  0.00  0.00    +0.356 C 
ATOM     36  O   UNL     1     -14.082  -4.285  -1.339  0.00  0.00    -0.246 OA
ATOM     37  O   UNL     1     -15.120  -2.841  -2.478  0.00  0.00    -0.246 OA
ENDBRANCH  34  35
ENDBRANCH  33  34
ENDBRANCH  32  33
ENDBRANCH  31  32
ENDBRANCH  28  31
ENDBRANCH  13  25
TORSDOF 8
