REMARK  Name = CHEMBL214172
REMARK  2 active torsions:
REMARK  status: ('A' for Active; 'I' for Inactive)
REMARK    1  A    between atoms: C_3  and  C_7
REMARK    2  A    between atoms: C_13  and  O_19
REMARK                            x       y       z     vdW  Elec       q    Type
REMARK                         _______ _______ _______ _____ _____    ______ ____
ROOT
ATOM      1  C   UNL     1       3.682   2.031  -0.023  0.00  0.00    -0.002 A 
ATOM      2  C   UNL     1       3.924   3.050  -0.941  0.00  0.00    +0.035 A 
ATOM      3  C   UNL     1       5.148   3.706  -0.959  0.00  0.00    +0.049 A 
ATOM      4  C   UNL     1       6.155   3.338  -0.041  0.00  0.00    +0.020 A 
ATOM      5  C   UNL     1       7.309   4.210  -0.319  0.00  0.00    +0.012 A 
ATOM      6  C   UNL     1       8.580   4.324   0.244  0.00  0.00    +0.056 A 
ATOM      7  C   UNL     1       9.465   5.264  -0.248  0.00  0.00    +0.118 A 
ATOM      8  C   UNL     1       9.091   6.093  -1.300  0.00  0.00    +0.047 A 
ATOM      9  C   UNL     1       7.837   5.987  -1.863  0.00  0.00    +0.030 A 
ATOM     10  C   UNL     1       6.932   5.046  -1.381  0.00  0.00    +0.048 A 
ATOM     11  N   UNL     1       5.635   4.729  -1.749  0.00  0.00    -0.354 N 
ATOM     12  H   UNL     1       5.139   5.163  -2.461  0.00  0.00    +0.166 HD
ATOM     13  C   UNL     1       5.920   2.318   0.881  0.00  0.00    +0.059 A 
ATOM     14  C   UNL     1       4.673   1.663   0.895  0.00  0.00    +0.058 A 
ATOM     15  C   UNL     1       4.753   0.664   1.975  0.00  0.00    +0.252 C 
ATOM     16  O   UNL     1       3.869  -0.106   2.295  0.00  0.00    -0.270 OA
ATOM     17  N   UNL     1       5.968   0.746   2.547  0.00  0.00    -0.248 N 
ATOM     18  C   UNL     1       6.717   1.692   1.953  0.00  0.00    +0.252 C 
ATOM     19  O   UNL     1       7.855   1.990   2.257  0.00  0.00    -0.270 OA
ATOM     20  H   UNL     1       6.266   0.192   3.285  0.00  0.00    +0.158 HD
ENDROOT
BRANCH   1  23
ATOM     21  C   UNL     1      -0.017   1.379   0.010  0.00  0.00    +0.020 A 
ATOM     22  C   UNL     1       1.181   2.072   0.002  0.00  0.00    +0.011 A 
ATOM     23  C   UNL     1       2.372   1.339  -0.013  0.00  0.00    +0.001 A 
ATOM     24  C   UNL     1       2.306  -0.054  -0.020  0.00  0.00    +0.119 A 
ATOM     25  N   UNL     1       1.141  -0.669  -0.013  0.00  0.00    -0.263 NA
ATOM     26  C   UNL     1       0.002  -0.004   0.002  0.00  0.00    +0.111 A 
ENDBRANCH   1  23
BRANCH   7  27
ATOM     27  O   UNL     1      10.706   5.379   0.298  0.00  0.00    -0.507 OA
ATOM     28  H   UNL     1      11.373   4.819  -0.121  0.00  0.00    +0.292 HD
ENDBRANCH   7  27
TORSDOF 2
