REMARK  Name = CHEMBL379149
REMARK  2 active torsions:
REMARK  status: ('A' for Active; 'I' for Inactive)
REMARK    1  A    between atoms: C_3  and  C_7
REMARK    2  A    between atoms: C_13  and  O_19
REMARK                            x       y       z     vdW  Elec       q    Type
REMARK                         _______ _______ _______ _____ _____    ______ ____
ROOT
ATOM      1  C   UNL     1       3.586   0.679  -0.029  0.00  0.00    +0.013 A 
ATOM      2  C   UNL     1       4.282   1.610  -0.805  0.00  0.00    +0.037 A 
ATOM      3  C   UNL     1       5.668   1.612  -0.826  0.00  0.00    +0.049 A 
ATOM      4  C   UNL     1       6.385   0.668  -0.059  0.00  0.00    +0.020 A 
ATOM      5  C   UNL     1       7.813   0.935  -0.300  0.00  0.00    +0.012 A 
ATOM      6  C   UNL     1       8.989   0.348   0.167  0.00  0.00    +0.056 A 
ATOM      7  C   UNL     1      10.212   0.836  -0.253  0.00  0.00    +0.118 A 
ATOM      8  C   UNL     1      10.270   1.909  -1.136  0.00  0.00    +0.047 A 
ATOM      9  C   UNL     1       9.113   2.496  -1.602  0.00  0.00    +0.030 A 
ATOM     10  C   UNL     1       7.873   2.018  -1.191  0.00  0.00    +0.048 A 
ATOM     11  N   UNL     1       6.579   2.408  -1.494  0.00  0.00    -0.354 N 
ATOM     12  H   UNL     1       6.345   3.137  -2.090  0.00  0.00    +0.166 HD
ATOM     13  C   UNL     1       5.700  -0.266   0.718  0.00  0.00    +0.060 A 
ATOM     14  C   UNL     1       4.292  -0.259   0.740  0.00  0.00    +0.059 A 
ATOM     15  C   UNL     1       3.895  -1.345   1.648  0.00  0.00    +0.252 C 
ATOM     16  O   UNL     1       2.753  -1.658   1.924  0.00  0.00    -0.270 OA
ATOM     17  N   UNL     1       5.006  -1.936   2.124  0.00  0.00    -0.248 N 
ATOM     18  C   UNL     1       6.112  -1.363   1.615  0.00  0.00    +0.252 C 
ATOM     19  O   UNL     1       7.257  -1.684   1.863  0.00  0.00    -0.270 OA
ATOM     20  H   UNL     1       5.010  -2.682   2.743  0.00  0.00    +0.158 HD
ENDROOT
BRANCH   1  23
ATOM     21  C   UNL     1      -0.016   1.348   0.009  0.00  0.00    +0.019 A 
ATOM     22  C   UNL     1       1.313   1.793  -0.001  0.00  0.00    +0.027 A 
ATOM     23  C   UNL     1       2.112   0.686  -0.014  0.00  0.00    +0.047 A 
ATOM     24  N   UNL     1       1.298  -0.419  -0.013  0.00  0.00    -0.361 N 
ATOM     25  H   UNL     1       1.597  -1.342  -0.021  0.00  0.00    +0.165 HD
ATOM     26  C   UNL     1       0.002  -0.004   0.002  0.00  0.00    +0.083 A 
ENDBRANCH   1  23
BRANCH   7  27
ATOM     27  O   UNL     1      11.361   0.267   0.199  0.00  0.00    -0.507 OA
ATOM     28  H   UNL     1      11.684  -0.460  -0.352  0.00  0.00    +0.292 HD
ENDBRANCH   7  27
TORSDOF 2
