REMARK  6 active torsions:
REMARK  status: ('A' for Active; 'I' for Inactive)
REMARK    1  A    between atoms: C_1  and  O_2 
REMARK    2  A    between atoms: N_4  and  C1_8 
REMARK    3  A    between atoms: N_4  and  C4_11 
REMARK    4  A    between atoms: C4_11  and  C8_15 
REMARK    5  A    between atoms: C10_19  and  C17_31 
REMARK    6  A    between atoms: C12_21  and  N3_23 
ROOT
HETATM    1  C   BMI A 301       3.146  -4.525  18.441  1.00 17.80     0.156 A 
HETATM    2  N1  BMI A 301       2.898  -3.331  17.932  1.00 14.68    -0.346 N 
ATOM      3  H1  BMI A 301       2.405  -3.249  17.043  1.00  0.00     0.167 HD
HETATM    4  C1  BMI A 301       4.224  -3.363  20.427  1.00 19.42     0.048 A 
HETATM    5  C2  BMI A 301       3.951  -2.166  19.742  1.00 17.48     0.047 A 
HETATM    6  C3  BMI A 301       3.289  -2.238  18.576  1.00 16.99     0.092 A 
HETATM    7  C10 BMI A 301       3.819  -4.549  19.750  1.00 18.98     0.085 A 
ENDROOT
BRANCH   7   8
HETATM    8  C17 BMI A 301       4.162  -5.822  20.321  1.00 18.28     0.123 A 
HETATM    9  N5  BMI A 301       4.679  -5.943  21.420  1.00 18.43    -0.339 N 
HETATM   10  C18 BMI A 301       5.003  -7.257  21.587  1.00 18.64     0.067 A 
ATOM     11  H5  BMI A 301       4.840  -5.194  22.094  1.00  0.00     0.167 HD
HETATM   12  C16 BMI A 301       4.738  -7.889  20.515  1.00 17.94     0.063 A 
HETATM   13  C19 BMI A 301       5.531  -7.888  22.618  1.00 22.07    -0.031 A 
HETATM   14  C13 BMI A 301       5.023  -9.259  20.449  1.00 18.52     0.061 A 
HETATM   15  N6  BMI A 301       4.205  -6.953  19.674  1.00 18.35    -0.340 N 
HETATM   16  C12 BMI A 301       5.565  -9.854  21.528  1.00 21.87     0.042 A 
HETATM   17  C20 BMI A 301       5.799  -9.170  22.620  1.00 21.31     0.039 A 
ATOM     18  H6  BMI A 301       3.897  -7.111  18.715  1.00  0.00     0.167 HD
HETATM   19  C21 BMI A 301       5.795  -7.059  23.834  1.00 24.82     0.050 C 
BRANCH  16  20
HETATM   20  N3  BMI A 301       5.905 -11.214  21.502  1.00 28.10    -0.317 N 
HETATM   21  C11 BMI A 301       5.925 -12.107  22.539  1.00 31.41     0.115 A 
HETATM   22  C15 BMI A 301       6.352 -13.341  21.989  1.00 32.87     0.106 A 
HETATM   23  N4  BMI A 301       6.600 -13.151  20.650  1.00 30.05    -0.360 N 
HETATM   24  C14 BMI A 301       6.311 -11.860  20.405  1.00 28.43     0.188 A 
ATOM     25  H4  BMI A 301       6.934 -13.845  19.981  1.00  0.00     0.166 HD
ENDBRANCH  16  20
ENDBRANCH   7   8
BRANCH   1  26
HETATM   26  O   BMI A 301       2.756  -5.636  17.883  1.00 16.49    -0.345 OA
ATOM     27  HO  BMI A 301       2.322  -5.621  17.038  1.00  0.00     0.219 HD
ENDBRANCH   1  26
BRANCH   4  28
HETATM   28  N   BMI A 301       4.931  -3.267  21.682  1.00 22.26    -0.383 N 
ATOM     29  HN  BMI A 301       4.625  -3.834  22.473  1.00  0.00     0.160 HD
BRANCH  28  30
HETATM   30  C4  BMI A 301       6.146  -2.319  21.852  1.00 27.71     0.176 C 
BRANCH  30  31
HETATM   31  C8  BMI A 301       7.211  -3.234  22.412  1.00 29.98     0.026 A 
HETATM   32  C6  BMI A 301       7.542  -3.167  23.748  1.00 29.60     0.027 A 
HETATM   33  C5  BMI A 301       8.458  -4.030  24.291  1.00 28.86     0.003 A 
HETATM   34  C7  BMI A 301       9.036  -4.965  23.423  1.00 29.11     0.017 A 
HETATM   35  C9  BMI A 301       8.657  -5.006  22.063  1.00 30.37     0.088 A 
HETATM   36  N2  BMI A 301       7.762  -4.150  21.576  1.00 31.63    -0.368 N 
ATOM     37  H2  BMI A 301       7.495  -4.182  20.592  1.00  0.00     0.165 HD
ENDBRANCH  30  31
ENDBRANCH  28  30
ENDBRANCH   4  28
TORSDOF 6
