REMARK  Name = CHEMBL514873
REMARK  10 active torsions:
REMARK  status: ('A' for Active; 'I' for Inactive)
REMARK    1  A    between atoms: C_1  and  N_2
REMARK    2  A    between atoms: N_2  and  C_3
REMARK    3  A    between atoms: N_2  and  C_4
REMARK    4  A    between atoms: C_4  and  C_5
REMARK    5  A    between atoms: C_13  and  N_18
REMARK    6  A    between atoms: C_14  and  O_16
REMARK    7  A    between atoms: O_16  and  C_17
REMARK    8  A    between atoms: C_27  and  N_29
REMARK    9  A    between atoms: N_29  and  C_30
REMARK   10  A    between atoms: C_34  and  C_35
REMARK                            x       y       z     vdW  Elec       q    Type
REMARK                         _______ _______ _______ _____ _____    ______ ____
ROOT
ATOM      1  N   UNL     1      -4.209   1.445  -5.956  0.00  0.00    -0.281 N 
ATOM      2  C   UNL     1      -2.867   1.517  -6.297  0.00  0.00    +0.223 A 
ATOM      3  N   UNL     1      -1.996   0.803  -5.605  0.00  0.00    -0.196 NA
ATOM      4  C   UNL     1      -0.698   0.843  -5.900  0.00  0.00    +0.145 A 
ATOM      5  C   UNL     1      -0.273   1.660  -6.964  0.00  0.00    +0.059 A 
ATOM      6  C   UNL     1       1.178   1.501  -7.048  0.00  0.00    +0.032 A 
ATOM      7  C   UNL     1       1.531   0.640  -6.079  0.00  0.00    +0.085 A 
ATOM      8  N   UNL     1       0.417   0.239  -5.385  0.00  0.00    -0.346 N 
ATOM      9  H   UNL     1       0.419  -0.380  -4.639  0.00  0.00    +0.167 HD
ATOM     10  C   UNL     1      -1.233   2.401  -7.672  0.00  0.00    +0.137 A 
ATOM     11  N   UNL     1      -2.507   2.295  -7.310  0.00  0.00    -0.198 NA
ATOM     12  H   UNL     1      -4.873   1.887  -6.507  0.00  0.00    +0.155 HD
ENDROOT
BRANCH   1  21
ATOM     13  C   UNL     1      -2.086  -0.073  -1.262  0.00  0.00    +0.203 C 
ATOM     14  O   UNL     1      -1.490   0.565  -2.104  0.00  0.00    -0.277 OA
ATOM     15  N   UNL     1      -3.363  -0.445  -1.478  0.00  0.00    -0.272 N 
ATOM     16  C   UNL     1      -4.186  -1.209  -0.536  0.00  0.00    +0.118 C 
ATOM     17  C   UNL     1      -5.546  -1.377  -1.233  0.00  0.00    +0.056 C 
ATOM     18  C   UNL     1      -5.384  -0.671  -2.561  0.00  0.00    -0.021 A 
ATOM     19  C   UNL     1      -4.101  -0.152  -2.631  0.00  0.00    +0.041 A 
ATOM     20  C   UNL     1      -3.714   0.554  -3.771  0.00  0.00    +0.050 A 
ATOM     21  C   UNL     1      -4.604   0.736  -4.815  0.00  0.00    +0.078 A 
ATOM     22  C   UNL     1      -5.893   0.213  -4.732  0.00  0.00    +0.142 A 
ATOM     23  C   UNL     1      -6.274  -0.495  -3.605  0.00  0.00    +0.053 A 
BRANCH  22  24
ATOM     24  O   UNL     1      -6.770   0.390  -5.757  0.00  0.00    -0.493 OA
ATOM     25  C   UNL     1      -8.073  -0.174  -5.601  0.00  0.00    +0.277 C 
ENDBRANCH  22  24
BRANCH  13  26
ATOM     26  C   UNL     1      -1.398  -0.450   0.024  0.00  0.00    +0.018 C 
BRANCH  26  28
ATOM     27  C   UNL     1      -0.054   1.537   0.006  0.00  0.00    -0.096 C 
ATOM     28  N   UNL     1      -0.023   0.068   0.015  0.00  0.00    +0.382 N 
ATOM     29  C   UNL     1       0.685  -0.400   1.214  0.00  0.00    -0.096 C 
ATOM     30  H   UNL     1       0.455  -0.263  -0.809  0.00  0.00    -0.082 HD
ENDBRANCH  26  28
ENDBRANCH  13  26
ENDBRANCH   1  21
BRANCH  10  31
ATOM     31  N   UNL     1      -0.861   3.218  -8.726  0.00  0.00    -0.298 N 
ATOM     32  H   UNL     1       0.061   3.231  -9.027  0.00  0.00    +0.154 HD
BRANCH  31  33
ATOM     33  C   UNL     1      -1.811   4.021  -9.353  0.00  0.00    +0.052 A 
ATOM     34  C   UNL     1      -3.124   3.622  -9.515  0.00  0.00    +0.031 A 
ATOM     35  C   UNL     1      -3.992   4.455 -10.135  0.00  0.00    +0.048 A 
ATOM     36  S   UNL     1      -3.072   5.806 -10.523  0.00  0.00    -0.090 S 
ATOM     37  C   UNL     1      -1.503   5.285  -9.856  0.00  0.00    +0.095 A 
BRANCH  37  38
ATOM     38  C   UNL     1      -0.266   5.974  -9.842  0.00  0.00    +0.250 C 
ATOM     39  O   UNL     1       0.714   5.456  -9.338  0.00  0.00    -0.270 OA
ATOM     40  N   UNL     1      -0.174   7.204 -10.387  0.00  0.00    -0.325 N 
ATOM     41  H   UNL     1      -0.955   7.616 -10.788  0.00  0.00    +0.145 HD
ATOM     42  H   UNL     1       0.673   7.676 -10.377  0.00  0.00    +0.145 HD
ENDBRANCH  37  38
ENDBRANCH  31  33
ENDBRANCH  10  31
TORSDOF 7
