REMARK  Name = CHEMBL103045
REMARK  15 active torsions:
REMARK  status: ('A' for Active; 'I' for Inactive)
REMARK    1  A    between atoms: C_1  and  C_2
REMARK    2  A    between atoms: C_2  and  N_3
REMARK    3  A    between atoms: N_6  and  C_9
REMARK    4  A    between atoms: C_9  and  C_10
REMARK    5  A    between atoms: C_10  and  C_11
REMARK    6  A    between atoms: C_11  and  O_12
REMARK    7  A    between atoms: O_12  and  C_13
REMARK    8  A    between atoms: C_18  and  O_19
REMARK    9  A    between atoms: O_19  and  C_20
REMARK   10  A    between atoms: C_21  and  N_27
REMARK   11  A    between atoms: C_22  and  C_25
REMARK   12  A    between atoms: N_27  and  C_28
REMARK   13  A    between atoms: C_31  and  S_35
REMARK   14  A    between atoms: S_35  and  C_36
REMARK   15  A    between atoms: N_40  and  C_41
REMARK                            x       y       z     vdW  Elec       q    Type
REMARK                         _______ _______ _______ _____ _____    ______ ____
ROOT
ATOM      1  C   UNL     1     -10.402  -7.139  -2.183  0.00  0.00    +0.164 A 
ATOM      2  C   UNL     1     -10.519  -6.331  -1.074  0.00  0.00    +0.077 A 
ATOM      3  C   UNL     1     -10.705  -6.908   0.191  0.00  0.00    +0.077 A 
ATOM      4  C   UNL     1     -10.769  -8.318   0.304  0.00  0.00    +0.026 A 
ATOM      5  C   UNL     1     -10.648  -9.118  -0.842  0.00  0.00    +0.061 A 
ATOM      6  C   UNL     1     -10.473  -8.533  -2.063  0.00  0.00    +0.162 A 
ATOM      7  C   UNL     1     -10.957  -8.897   1.581  0.00  0.00    +0.060 A 
ATOM      8  C   UNL     1     -11.071  -8.033   2.681  0.00  0.00    +0.091 A 
ATOM      9  C   UNL     1     -10.995  -6.646   2.476  0.00  0.00    +0.132 A 
ATOM     10  N   UNL     1     -10.822  -6.138   1.283  0.00  0.00    -0.253 NA
ENDROOT
BRANCH   6  11
ATOM     11  O   UNL     1     -10.361  -9.311  -3.173  0.00  0.00    -0.491 OA
ATOM     12  C   UNL     1     -10.441 -10.726  -2.984  0.00  0.00    +0.277 C 
ENDBRANCH   6  11
BRANCH   8  13
ATOM     13  C   UNL     1     -11.262  -8.561   3.998  0.00  0.00    +0.103 C 
ATOM     14  N   UNL     1     -11.414  -8.979   5.043  0.00  0.00    -0.191 NA
ENDBRANCH   8  13
BRANCH   7  15
ATOM     15  N   UNL     1     -11.026 -10.266   1.739  0.00  0.00    -0.313 N 
ATOM     16  H   UNL     1     -10.226 -10.770   1.956  0.00  0.00    +0.152 HD
BRANCH  15  17
ATOM     17  C   UNL     1     -12.250 -10.927   1.587  0.00  0.00    +0.033 A 
ATOM     18  C   UNL     1     -13.365 -10.230   1.139  0.00  0.00    +0.024 A 
ATOM     19  C   UNL     1     -14.573 -10.881   0.989  0.00  0.00    +0.018 A 
ATOM     20  C   UNL     1     -14.674 -12.235   1.285  0.00  0.00    +0.034 A 
ATOM     21  C   UNL     1     -13.558 -12.933   1.732  0.00  0.00    +0.057 A 
ATOM     22  C   UNL     1     -12.349 -12.282   1.877  0.00  0.00    +0.044 A 
ATOM     23 CL   UNL     1     -13.684 -14.625   2.102  0.00  0.00    -0.082 Cl
BRANCH  20  24
ATOM     24  S   UNL     1     -16.216 -13.066   1.093  0.00  0.00    -0.050 S 
BRANCH  24  25
ATOM     25  C   UNL     1     -16.010 -14.012  -0.378  0.00  0.00    +0.173 A 
ATOM     26  N   UNL     1     -14.964 -13.982  -1.171  0.00  0.00    -0.230 NA
ATOM     27  C   UNL     1     -15.156 -14.833  -2.192  0.00  0.00    +0.131 A 
ATOM     28  C   UNL     1     -16.358 -15.415  -2.038  0.00  0.00    +0.107 A 
ATOM     29  N   UNL     1     -16.907 -14.903  -0.884  0.00  0.00    -0.328 N 
ATOM     30  C   UNL     1     -18.210 -15.249  -0.311  0.00  0.00    +0.151 C 
ENDBRANCH  24  25
ENDBRANCH  20  24
ENDBRANCH  15  17
ENDBRANCH   7  15
BRANCH   1  31
ATOM     31  O   UNL     1     -10.222  -6.577  -3.407  0.00  0.00    -0.488 OA
BRANCH  31  32
ATOM     32  C   UNL     1     -10.159  -5.151  -3.464  0.00  0.00    +0.230 C 
BRANCH  32  33
ATOM     33  C   UNL     1      -9.954  -4.707  -4.913  0.00  0.00    +0.056 C 
BRANCH  33  34
ATOM     34  C   UNL     1      -9.886  -3.180  -4.974  0.00  0.00    +0.087 C 
BRANCH  34  38
ATOM     35  N   UNL     1     -10.318  -1.233  -8.701  0.00  0.00    +0.381 N 
ATOM     36  C   UNL     1      -9.128  -0.927  -7.896  0.00  0.00    -0.063 C 
ATOM     37  C   UNL     1      -9.383  -1.318  -6.439  0.00  0.00    +0.066 C 
ATOM     38  N   UNL     1      -9.690  -2.753  -6.366  0.00  0.00    -0.306 NA
ATOM     39  C   UNL     1     -10.864  -3.079  -7.187  0.00  0.00    +0.066 C 
ATOM     40  C   UNL     1     -10.597  -2.673  -8.639  0.00  0.00    -0.063 C 
ATOM     41  H   UNL     1     -11.109  -0.721  -8.339  0.00  0.00    -0.082 HD
BRANCH  35  43
ATOM     42  C   UNL     1      -9.912   0.678 -10.178  0.00  0.00    -0.017 C 
ATOM     43  C   UNL     1     -10.079  -0.841 -10.097  0.00  0.00    -0.082 C 
ENDBRANCH  35  43
ENDBRANCH  34  38
ENDBRANCH  33  34
ENDBRANCH  32  33
ENDBRANCH  31  32
ENDBRANCH   1  31
TORSDOF 12
