REMARK  Name = CHEMBL515519
REMARK  10 active torsions:
REMARK  status: ('A' for Active; 'I' for Inactive)
REMARK    1  A    between atoms: C_1  and  N_2
REMARK    2  A    between atoms: N_2  and  C_3
REMARK    3  A    between atoms: N_2  and  C_4
REMARK    4  A    between atoms: C_4  and  C_5
REMARK    5  A    between atoms: C_13  and  N_18
REMARK    6  A    between atoms: C_14  and  O_16
REMARK    7  A    between atoms: O_16  and  C_17
REMARK    8  A    between atoms: C_27  and  N_29
REMARK    9  A    between atoms: N_29  and  C_30
REMARK   10  A    between atoms: C_34  and  C_35
REMARK                            x       y       z     vdW  Elec       q    Type
REMARK                         _______ _______ _______ _____ _____    ______ ____
ROOT
ATOM      1  N   UNL     1      -4.202   1.471  -5.932  0.00  0.00    -0.281 N 
ATOM      2  C   UNL     1      -2.862   1.539  -6.278  0.00  0.00    +0.223 A 
ATOM      3  N   UNL     1      -1.989   0.829  -5.583  0.00  0.00    -0.196 NA
ATOM      4  C   UNL     1      -0.692   0.865  -5.883  0.00  0.00    +0.145 A 
ATOM      5  C   UNL     1      -0.270   1.674  -6.955  0.00  0.00    +0.059 A 
ATOM      6  C   UNL     1       1.181   1.512  -7.042  0.00  0.00    +0.032 A 
ATOM      7  C   UNL     1       1.535   0.658  -6.068  0.00  0.00    +0.085 A 
ATOM      8  N   UNL     1       0.423   0.264  -5.368  0.00  0.00    -0.346 N 
ATOM      9  H   UNL     1       0.427  -0.351  -4.617  0.00  0.00    +0.167 HD
ATOM     10  C   UNL     1      -1.231   2.409  -7.665  0.00  0.00    +0.137 A 
ATOM     11  N   UNL     1      -2.504   2.309  -7.298  0.00  0.00    -0.198 NA
ATOM     12  H   UNL     1      -4.868   1.912  -6.483  0.00  0.00    +0.155 HD
ENDROOT
BRANCH   1  21
ATOM     13  C   UNL     1      -2.067  -0.030  -1.238  0.00  0.00    +0.203 C 
ATOM     14  O   UNL     1      -1.472   0.603  -2.086  0.00  0.00    -0.277 OA
ATOM     15  N   UNL     1      -3.345  -0.400  -1.447  0.00  0.00    -0.272 N 
ATOM     16  C   UNL     1      -4.167  -1.157  -0.499  0.00  0.00    +0.118 C 
ATOM     17  C   UNL     1      -5.529  -1.326  -1.191  0.00  0.00    +0.056 C 
ATOM     18  C   UNL     1      -5.371  -0.627  -2.523  0.00  0.00    -0.021 A 
ATOM     19  C   UNL     1      -4.087  -0.111  -2.600  0.00  0.00    +0.041 A 
ATOM     20  C   UNL     1      -3.702   0.589  -3.744  0.00  0.00    +0.050 A 
ATOM     21  C   UNL     1      -4.595   0.768  -4.787  0.00  0.00    +0.078 A 
ATOM     22  C   UNL     1      -5.885   0.248  -4.697  0.00  0.00    +0.142 A 
ATOM     23  C   UNL     1      -6.263  -0.454  -3.565  0.00  0.00    +0.053 A 
BRANCH  22  24
ATOM     24  O   UNL     1      -6.765   0.423  -5.719  0.00  0.00    -0.493 OA
ATOM     25  C   UNL     1      -8.069  -0.138  -5.556  0.00  0.00    +0.277 C 
ENDBRANCH  22  24
BRANCH  13  26
ATOM     26  C   UNL     1      -1.375  -0.402   0.048  0.00  0.00    +0.018 C 
BRANCH  26  28
ATOM     27  C   UNL     1      -0.027   1.582   0.016  0.00  0.00    -0.096 C 
ATOM     28  N   UNL     1       0.001   0.114   0.031  0.00  0.00    +0.382 N 
ATOM     29  C   UNL     1       0.712  -0.350   1.230  0.00  0.00    -0.096 C 
ATOM     30  H   UNL     1       0.476  -0.223  -0.793  0.00  0.00    -0.082 HD
ENDBRANCH  26  28
ENDBRANCH  13  26
ENDBRANCH   1  21
BRANCH  10  31
ATOM     31  N   UNL     1      -0.862   3.219  -8.726  0.00  0.00    -0.296 N 
ATOM     32  H   UNL     1       0.071   3.282  -8.986  0.00  0.00    +0.154 HD
BRANCH  31  33
ATOM     33  C   UNL     1      -1.827   3.941  -9.419  0.00  0.00    +0.083 A 
ATOM     34  C   UNL     1      -3.215   3.962  -9.162  0.00  0.00    +0.065 A 
ATOM     35  C   UNL     1      -3.775   4.789 -10.067  0.00  0.00    +0.198 A 
ATOM     36  O   UNL     1      -2.821   5.281 -10.867  0.00  0.00    -0.456 OA
ATOM     37  C   UNL     1      -1.618   4.788 -10.495  0.00  0.00    +0.210 A 
BRANCH  37  38
ATOM     38  C   UNL     1      -0.371   5.081 -11.098  0.00  0.00    +0.279 C 
ATOM     39  O   UNL     1       0.648   4.568 -10.671  0.00  0.00    -0.267 OA
ATOM     40  N   UNL     1      -0.311   5.928 -12.144  0.00  0.00    -0.323 N 
ATOM     41  H   UNL     1      -1.123   6.337 -12.485  0.00  0.00    +0.145 HD
ATOM     42  H   UNL     1       0.543   6.130 -12.557  0.00  0.00    +0.145 HD
ENDBRANCH  37  38
ENDBRANCH  31  33
ENDBRANCH  10  31
TORSDOF 7
