REMARK  Name = CHEMBL476651
REMARK  8 active torsions:
REMARK  status: ('A' for Active; 'I' for Inactive)
REMARK    1  A    between atoms: C_1  and  C_2
REMARK    2  A    between atoms: C_2  and  C_3
REMARK    3  A    between atoms: C_3  and  N_4
REMARK    4  A    between atoms: C_8  and  C_10
REMARK    5  A    between atoms: C_13  and  N_17
REMARK    6  A    between atoms: C_26  and  N_28
REMARK    7  A    between atoms: N_28  and  C_29
REMARK    8  A    between atoms: C_34  and  C_35
REMARK                            x       y       z     vdW  Elec       q    Type
REMARK                         _______ _______ _______ _____ _____    ______ ____
ROOT
ATOM      1  N   UNL     1      -4.531  -6.617  -4.565  0.00  0.00    -0.281 N 
ATOM      2  C   UNL     1      -5.513  -7.210  -3.787  0.00  0.00    +0.223 A 
ATOM      3  N   UNL     1      -5.468  -7.049  -2.475  0.00  0.00    -0.196 NA
ATOM      4  C   UNL     1      -6.393  -7.601  -1.692  0.00  0.00    +0.145 A 
ATOM      5  C   UNL     1      -7.418  -8.358  -2.289  0.00  0.00    +0.059 A 
ATOM      6  C   UNL     1      -8.268  -8.829  -1.196  0.00  0.00    +0.032 A 
ATOM      7  C   UNL     1      -7.736  -8.354  -0.058  0.00  0.00    +0.085 A 
ATOM      8  N   UNL     1      -6.613  -7.617  -0.342  0.00  0.00    -0.346 N 
ATOM      9  H   UNL     1      -6.057  -7.174   0.318  0.00  0.00    +0.167 HD
ATOM     10  C   UNL     1      -7.426  -8.502  -3.685  0.00  0.00    +0.137 A 
ATOM     11  N   UNL     1      -6.466  -7.912  -4.388  0.00  0.00    -0.198 NA
ATOM     12  H   UNL     1      -4.596  -6.646  -5.532  0.00  0.00    +0.155 HD
ENDROOT
BRANCH   1  16
ATOM     13  C   UNL     1      -1.294  -4.713  -2.745  0.00  0.00    -0.018 A 
ATOM     14  C   UNL     1      -1.982  -5.724  -2.071  0.00  0.00    +0.010 A 
ATOM     15  C   UNL     1      -3.051  -6.351  -2.676  0.00  0.00    +0.027 A 
ATOM     16  C   UNL     1      -3.445  -5.979  -3.955  0.00  0.00    +0.069 A 
ATOM     17  C   UNL     1      -2.763  -4.971  -4.630  0.00  0.00    +0.145 A 
ATOM     18  C   UNL     1      -1.695  -4.336  -4.029  0.00  0.00    +0.048 A 
ATOM     19  F   UNL     1      -3.148  -4.612  -5.875  0.00  0.00    -0.204 F 
BRANCH  13  24
ATOM     20  N   UNL     1       0.783  -2.054  -1.206  0.00  0.00    -0.335 N 
ATOM     21  C   UNL     1       1.901  -2.809  -0.621  0.00  0.00    +0.105 C 
ATOM     22  C   UNL     1       2.287  -3.916  -1.613  0.00  0.00    +0.023 C 
ATOM     23  C   UNL     1       1.085  -4.843  -1.804  0.00  0.00    +0.038 C 
ATOM     24  C   UNL     1      -0.150  -4.040  -2.100  0.00  0.00    -0.026 C 
ATOM     25  C   UNL     1      -0.257  -2.749  -1.800  0.00  0.00    +0.074 C 
BRANCH  20  26
ATOM     26  C   UNL     1       0.767  -0.590  -1.155  0.00  0.00    +0.104 C 
BRANCH  26  28
ATOM     27  C   UNL     1       0.056   1.397   0.182  0.00  0.00    +0.005 C 
ATOM     28  C   UNL     1       0.073  -0.132   0.129  0.00  0.00    +0.015 C 
ENDBRANCH  26  28
ENDBRANCH  20  26
ENDBRANCH  13  24
ENDBRANCH   1  16
BRANCH  10  29
ATOM     29  N   UNL     1      -8.415  -9.239  -4.315  0.00  0.00    -0.298 N 
ATOM     30  H   UNL     1      -9.159  -9.592  -3.802  0.00  0.00    +0.154 HD
BRANCH  29  31
ATOM     31  C   UNL     1      -8.343  -9.472  -5.684  0.00  0.00    +0.045 A 
ATOM     32  C   UNL     1      -7.113  -9.458  -6.330  0.00  0.00    +0.024 A 
ATOM     33  C   UNL     1      -7.043  -9.689  -7.689  0.00  0.00    +0.002 A 
ATOM     34  C   UNL     1      -8.195  -9.938  -8.418  0.00  0.00    +0.001 A 
ATOM     35  C   UNL     1      -9.424  -9.957  -7.794  0.00  0.00    +0.015 A 
ATOM     36  C   UNL     1      -9.510  -9.730  -6.418  0.00  0.00    +0.058 A 
BRANCH  36  37
ATOM     37  C   UNL     1     -10.821  -9.755  -5.743  0.00  0.00    +0.243 C 
ATOM     38  O   UNL     1     -10.905  -9.457  -4.567  0.00  0.00    -0.270 OA
ATOM     39  N   UNL     1     -11.926 -10.109  -6.430  0.00  0.00    -0.325 N 
ATOM     40  H   UNL     1     -11.858 -10.347  -7.368  0.00  0.00    +0.145 HD
ATOM     41  H   UNL     1     -12.788 -10.125  -5.986  0.00  0.00    +0.145 HD
ENDBRANCH  36  37
ENDBRANCH  29  31
ENDBRANCH  10  29
TORSDOF 7
