REMARK  Name = CHEMBL467232
REMARK  10 active torsions:
REMARK  status: ('A' for Active; 'I' for Inactive)
REMARK    1  A    between atoms: C_1  and  N_2
REMARK    2  A    between atoms: C_6  and  S_7
REMARK    3  A    between atoms: S_7  and  C_8
REMARK    4  A    between atoms: C_11  and  N_15
REMARK    5  A    between atoms: N_15  and  C_16
REMARK    6  A    between atoms: C_19  and  O_35
REMARK    7  A    between atoms: C_20  and  N_28
REMARK    8  A    between atoms: C_25  and  C_26
REMARK    9  A    between atoms: N_31  and  C_34
REMARK   10  A    between atoms: O_35  and  C_36
REMARK                            x       y       z     vdW  Elec       q    Type
REMARK                         _______ _______ _______ _____ _____    ______ ____
ROOT
ATOM      1  C   UNL     1      -0.075  -5.022   7.628  0.00  0.00    +0.060 A 
ATOM      2  C   UNL     1       0.177  -6.161   8.428  0.00  0.00    +0.026 A 
ATOM      3  C   UNL     1       0.627  -7.361   7.855  0.00  0.00    +0.059 A 
ATOM      4  C   UNL     1       0.863  -8.445   8.648  0.00  0.00    +0.142 A 
ATOM      5  C   UNL     1       0.659  -8.374  10.035  0.00  0.00    +0.074 A 
ATOM      6  C   UNL     1       0.216  -7.208  10.621  0.00  0.00    +0.055 A 
ATOM      7  C   UNL     1      -0.032  -6.079   9.826  0.00  0.00    +0.075 A 
ATOM      8  N   UNL     1      -0.462  -4.935  10.379  0.00  0.00    -0.254 NA
ATOM      9  C   UNL     1      -0.702  -3.866   9.663  0.00  0.00    +0.132 A 
ATOM     10  C   UNL     1      -0.518  -3.856   8.271  0.00  0.00    +0.091 A 
ENDROOT
BRANCH   5  11
ATOM     11  N   UNL     1       0.906  -9.494  10.828  0.00  0.00    -0.331 N 
ATOM     12  C   UNL     1       2.233  -9.725  11.420  0.00  0.00    +0.086 C 
ATOM     13  C   UNL     1       2.056 -10.004  12.916  0.00  0.00    -0.060 C 
ATOM     14  N   UNL     1       1.111 -11.113  13.097  0.00  0.00    +0.380 N 
ATOM     15  C   UNL     1      -0.217 -10.723  12.608  0.00  0.00    -0.060 C 
ATOM     16  C   UNL     1      -0.155 -10.476  11.101  0.00  0.00    +0.086 C 
ATOM     17  C   UNL     1       1.025 -11.453  14.524  0.00  0.00    -0.096 C 
ATOM     18  H   UNL     1       1.435 -11.918  12.581  0.00  0.00    -0.082 HD
ENDBRANCH   5  11
BRANCH   1  19
ATOM     19  N   UNL     1       0.115  -5.055   6.262  0.00  0.00    -0.313 N 
ATOM     20  H   UNL     1       0.978  -4.824   5.886  0.00  0.00    +0.152 HD
BRANCH  19  24
ATOM     21  C   UNL     1      -3.027  -6.146   3.746  0.00  0.00    +0.034 A 
ATOM     22  C   UNL     1      -1.828  -5.698   3.207  0.00  0.00    +0.018 A 
ATOM     23  C   UNL     1      -0.788  -5.337   4.039  0.00  0.00    +0.024 A 
ATOM     24  C   UNL     1      -0.940  -5.421   5.418  0.00  0.00    +0.033 A 
ATOM     25  C   UNL     1      -2.139  -5.869   5.958  0.00  0.00    +0.044 A 
ATOM     26  C   UNL     1      -3.182  -6.225   5.125  0.00  0.00    +0.057 A 
ATOM     27 CL   UNL     1      -4.683  -6.777   5.801  0.00  0.00    -0.082 Cl
BRANCH  21  28
ATOM     28  S   UNL     1      -4.354  -6.607   2.683  0.00  0.00    -0.050 S 
BRANCH  28  34
ATOM     29  C   UNL     1      -6.434  -8.763   1.363  0.00  0.00    +0.151 C 
ATOM     30  N   UNL     1      -5.279  -9.183   2.161  0.00  0.00    -0.328 N 
ATOM     31  C   UNL     1      -4.913 -10.477   2.452  0.00  0.00    +0.107 A 
ATOM     32  C   UNL     1      -3.801 -10.410   3.204  0.00  0.00    +0.131 A 
ATOM     33  N   UNL     1      -3.484  -9.116   3.376  0.00  0.00    -0.230 NA
ATOM     34  C   UNL     1      -4.361  -8.368   2.749  0.00  0.00    +0.173 A 
ENDBRANCH  28  34
ENDBRANCH  21  28
ENDBRANCH  19  24
ENDBRANCH   1  19
BRANCH  10  35
ATOM     35  C   UNL     1      -0.783  -2.669   7.515  0.00  0.00    +0.103 C 
ATOM     36  N   UNL     1      -0.994  -1.728   6.915  0.00  0.00    -0.191 NA
ENDBRANCH  10  35
BRANCH   4  37
ATOM     37  O   UNL     1       1.300  -9.606   8.090  0.00  0.00    -0.493 OA
ATOM     38  C   UNL     1       1.487  -9.614   6.674  0.00  0.00    +0.277 C 
ENDBRANCH   4  37
TORSDOF 7
