REMARK  Name = CHEMBL1222709
REMARK  4 active torsions:
REMARK  status: ('A' for Active; 'I' for Inactive)
REMARK    1  A    between atoms: C_14  and  C_16
REMARK    2  A    between atoms: N_18  and  C_19
REMARK    3  A    between atoms: N_26  and  C_27
REMARK    4  A    between atoms: C_29  and  C_33
REMARK                            x       y       z     vdW  Elec       q    Type
REMARK                         _______ _______ _______ _____ _____    ______ ____
ROOT
ATOM      1  C   UNL     1       0.212  -0.428  -1.802  0.00  0.00    +0.022 A 
ATOM      2  C   UNL     1       1.171   0.350  -1.154  0.00  0.00    +0.032 A 
ATOM      3  C   UNL     1       2.256  -0.473  -0.911  0.00  0.00    +0.103 A 
ATOM      4  C   UNL     1       3.515  -0.274  -0.298  0.00  0.00    +0.153 A 
ATOM      5  N   UNL     1       4.362  -1.286  -0.216  0.00  0.00    -0.198 NA
ATOM      6  C   UNL     1       4.056  -2.494  -0.700  0.00  0.00    +0.213 A 
ATOM      7  N   UNL     1       2.906  -2.742  -1.280  0.00  0.00    -0.264 N 
ATOM      8  N   UNL     1       1.951  -1.724  -1.407  0.00  0.00    -0.257 N 
ATOM      9  C   UNL     1       0.717  -1.683  -1.942  0.00  0.00    +0.111 A 
ATOM     10  N   UNL     1       4.986  -3.519  -0.586  0.00  0.00    -0.288 N 
ATOM     11  C   UNL     1       4.712  -4.954  -0.785  0.00  0.00    +0.109 C 
ATOM     12  C   UNL     1       6.082  -5.571  -1.163  0.00  0.00    +0.021 C 
ATOM     13  C   UNL     1       7.048  -4.757  -0.262  0.00  0.00    +0.033 C 
ATOM     14  C   UNL     1       6.408  -3.353  -0.251  0.00  0.00    +0.162 C 
ATOM     15  N   UNL     1       3.856   0.964   0.210  0.00  0.00    -0.283 N 
ATOM     16  H   UNL     1       3.214   1.691   0.189  0.00  0.00    +0.155 HD
ATOM     17  H   UNL     1       2.717  -3.630  -1.621  0.00  0.00    +0.190 HD
ENDROOT
BRANCH  15  18
ATOM     18  C   UNL     1       5.123   1.169   0.753  0.00  0.00    +0.120 A 
ATOM     19  C   UNL     1       6.033   0.204   1.061  0.00  0.00    +0.068 A 
ATOM     20  C   UNL     1       7.167   0.835   1.580  0.00  0.00    +0.068 A 
ATOM     21  N   UNL     1       6.955   2.126   1.589  0.00  0.00    -0.177 NA
ATOM     22  H   UNL     1       5.262   3.237   0.954  0.00  0.00    +0.190 HD
ATOM     23  N   UNL     1       5.677   2.368   1.068  0.00  0.00    -0.264 N 
BRANCH  20  24
ATOM     24  C   UNL     1       8.420   0.145   2.052  0.00  0.00    +0.040 C 
ATOM     25  C   UNL     1       8.369  -1.375   2.223  0.00  0.00    +0.010 C 
ATOM     26  C   UNL     1       8.405  -0.468   3.454  0.00  0.00    +0.010 C 
ENDBRANCH  20  24
ENDBRANCH  15  18
BRANCH  14  27
ATOM     27  C   UNL     1       7.076  -2.474  -1.277  0.00  0.00    +0.238 C 
ATOM     28  O   UNL     1       6.524  -2.247  -2.333  0.00  0.00    -0.273 OA
ATOM     29  N   UNL     1       8.287  -1.940  -1.021  0.00  0.00    -0.283 N 
ATOM     30  H   UNL     1       8.692  -2.054  -0.147  0.00  0.00    +0.155 HD
BRANCH  29  31
ATOM     31  C   UNL     1       8.960  -1.222  -2.017  0.00  0.00    +0.052 A 
ATOM     32  C   UNL     1      10.346  -1.305  -2.134  0.00  0.00    +0.029 A 
ATOM     33  C   UNL     1      10.967  -0.577  -3.133  0.00  0.00    +0.061 A 
ATOM     34  C   UNL     1      10.197   0.205  -3.979  0.00  0.00    +0.213 A 
ATOM     35  N   UNL     1       8.885   0.262  -3.841  0.00  0.00    -0.226 NA
ATOM     36  C   UNL     1       8.255  -0.421  -2.905  0.00  0.00    +0.137 A 
ATOM     37  F   UNL     1      10.796   0.919  -4.957  0.00  0.00    -0.184 F 
ENDBRANCH  29  31
ENDBRANCH  14  27
TORSDOF 4
