REMARK  Name = CHEMBL458438
REMARK  9 active torsions:
REMARK  status: ('A' for Active; 'I' for Inactive)
REMARK    1  A    between atoms: C_1  and  C_2
REMARK    2  A    between atoms: C_2  and  C_3
REMARK    3  A    between atoms: C_2  and  N_4
REMARK    4  A    between atoms: N_7  and  C_10
REMARK    5  A    between atoms: C_13  and  N_18
REMARK    6  A    between atoms: C_14  and  O_16
REMARK    7  A    between atoms: O_16  and  C_17
REMARK    8  A    between atoms: C_27  and  N_29
REMARK    9  A    between atoms: N_29  and  C_30
REMARK                            x       y       z     vdW  Elec       q    Type
REMARK                         _______ _______ _______ _____ _____    ______ ____
ROOT
ATOM      1  N   UNL     1      -6.877  -5.226   3.928  0.00  0.00    -0.281 N 
ATOM      2  C   UNL     1      -8.045  -4.733   4.488  0.00  0.00    +0.223 A 
ATOM      3  N   UNL     1      -8.427  -3.504   4.183  0.00  0.00    -0.196 NA
ATOM      4  C   UNL     1      -9.543  -2.992   4.699  0.00  0.00    +0.145 A 
ATOM      5  C   UNL     1     -10.306  -3.785   5.575  0.00  0.00    +0.059 A 
ATOM      6  C   UNL     1     -11.453  -2.968   5.972  0.00  0.00    +0.032 A 
ATOM      7  C   UNL     1     -11.324  -1.787   5.346  0.00  0.00    +0.085 A 
ATOM      8  N   UNL     1     -10.184  -1.789   4.580  0.00  0.00    -0.346 N 
ATOM      9  H   UNL     1      -9.879  -1.047   4.036  0.00  0.00    +0.167 HD
ATOM     10  C   UNL     1      -9.864  -5.084   5.871  0.00  0.00    +0.137 A 
ATOM     11  N   UNL     1      -8.740  -5.514   5.305  0.00  0.00    -0.198 NA
ATOM     12  H   UNL     1      -6.624  -6.151   4.071  0.00  0.00    +0.155 HD
ENDROOT
BRANCH   1  16
ATOM     13  C   UNL     1      -4.447  -2.727   1.628  0.00  0.00    +0.033 A 
ATOM     14  C   UNL     1      -5.143  -2.214   2.715  0.00  0.00    +0.025 A 
ATOM     15  C   UNL     1      -5.948  -3.041   3.475  0.00  0.00    +0.029 A 
ATOM     16  C   UNL     1      -6.061  -4.386   3.155  0.00  0.00    +0.076 A 
ATOM     17  C   UNL     1      -5.364  -4.903   2.065  0.00  0.00    +0.143 A 
ATOM     18  C   UNL     1      -4.563  -4.072   1.300  0.00  0.00    +0.070 A 
BRANCH  13  22
ATOM     19  N   UNL     1      -1.373  -0.462   0.069  0.00  0.00    -0.297 NA
ATOM     20  C   UNL     1      -2.122  -0.016   1.252  0.00  0.00    +0.103 C 
ATOM     21  C   UNL     1      -3.588  -0.440   1.114  0.00  0.00    +0.120 C 
ATOM     22  N   UNL     1      -3.633  -1.888   0.859  0.00  0.00    -0.327 N 
ATOM     23  C   UNL     1      -2.801  -2.430  -0.226  0.00  0.00    +0.120 C 
ATOM     24  C   UNL     1      -1.366  -1.927  -0.036  0.00  0.00    +0.103 C 
BRANCH  19  26
ATOM     25  C   UNL     1      -0.054   1.601   0.063  0.00  0.00    +0.024 C 
ATOM     26  C   UNL     1      -0.005   0.072   0.079  0.00  0.00    +0.051 C 
ATOM     27  C   UNL     1       0.718  -0.402   1.342  0.00  0.00    +0.024 C 
ENDBRANCH  19  26
ENDBRANCH  13  22
BRANCH  17  28
ATOM     28  O   UNL     1      -5.473  -6.221   1.750  0.00  0.00    -0.493 OA
ATOM     29  C   UNL     1      -4.730  -6.682   0.620  0.00  0.00    +0.277 C 
ENDBRANCH  17  28
ENDBRANCH   1  16
BRANCH  10  30
ATOM     30  N   UNL     1     -10.583  -5.899   6.727  0.00  0.00    -0.298 N 
ATOM     31  H   UNL     1     -11.352  -5.547   7.200  0.00  0.00    +0.154 HD
BRANCH  30  32
ATOM     32  C   UNL     1     -10.200  -7.226   6.910  0.00  0.00    +0.042 A 
ATOM     33  C   UNL     1      -9.482  -7.885   5.933  0.00  0.00    +0.024 A 
ATOM     34  C   UNL     1      -9.098  -9.210   6.109  0.00  0.00    +0.004 A 
ATOM     35  C   UNL     1      -9.417  -9.892   7.244  0.00  0.00    +0.028 A 
ATOM     36  C   UNL     1     -10.146  -9.259   8.264  0.00  0.00    +0.073 A 
ATOM     37  C   UNL     1     -10.539  -7.908   8.097  0.00  0.00    +0.022 A 
ATOM     38  C   UNL     1     -11.265  -7.277   9.121  0.00  0.00    +0.013 A 
ATOM     39  C   UNL     1     -11.558  -7.999  10.245  0.00  0.00    +0.020 A 
ATOM     40  C   UNL     1     -11.138  -9.322  10.348  0.00  0.00    +0.111 A 
ATOM     41  N   UNL     1     -10.470  -9.912   9.386  0.00  0.00    -0.255 NA
ENDBRANCH  30  32
ENDBRANCH  10  30
TORSDOF 6
