REMARK  Name = CHEMBL555675
REMARK  9 active torsions:
REMARK  status: ('A' for Active; 'I' for Inactive)
REMARK    1  A    between atoms: C_1  and  N_2
REMARK    2  A    between atoms: N_2  and  C_3
REMARK    3  A    between atoms: C_4  and  C_6
REMARK    4  A    between atoms: C_10  and  C_12
REMARK    5  A    between atoms: C_15  and  C_22
REMARK    6  A    between atoms: C_26  and  N_28
REMARK    7  A    between atoms: N_31  and  C_32
REMARK    8  A    between atoms: C_37  and  N_38
REMARK    9  A    between atoms: N_38  and  C_39
REMARK                            x       y       z     vdW  Elec       q    Type
REMARK                         _______ _______ _______ _____ _____    ______ ____
ROOT
ATOM      1  C   UNL     1      -2.256  -9.993   0.629  0.00  0.00    -0.014 A 
ATOM      2  C   UNL     1      -0.946 -10.076   0.158  0.00  0.00    +0.009 A 
ATOM      3  C   UNL     1      -0.065 -10.976   0.723  0.00  0.00    +0.002 A 
ATOM      4  C   UNL     1      -0.477 -11.798   1.755  0.00  0.00    +0.023 A 
ATOM      5  C   UNL     1      -1.780 -11.722   2.231  0.00  0.00    +0.035 A 
ATOM      6  C   UNL     1      -2.670 -10.817   1.674  0.00  0.00    +0.032 A 
ENDROOT
BRANCH   1  10
ATOM      7  C   UNL     1      -2.035  -5.401  -0.356  0.00  0.00    +0.001 A 
ATOM      8  C   UNL     1      -1.895  -6.737   0.013  0.00  0.00    +0.022 A 
ATOM      9  C   UNL     1      -2.968  -7.595  -0.215  0.00  0.00    +0.027 A 
ATOM     10  C   UNL     1      -3.204  -9.027   0.025  0.00  0.00    +0.009 A 
ATOM     11  C   UNL     1      -4.458  -9.290  -0.416  0.00  0.00    +0.093 A 
ATOM     12  N   UNL     1      -5.024  -8.149  -0.910  0.00  0.00    -0.345 N 
ATOM     13  H   UNL     1      -5.918  -8.089  -1.281  0.00  0.00    +0.167 HD
ATOM     14  C   UNL     1      -4.145  -7.096  -0.804  0.00  0.00    +0.139 A 
ATOM     15  N   UNL     1      -4.229  -5.814  -1.136  0.00  0.00    -0.237 NA
ATOM     16  C   UNL     1      -3.236  -4.977  -0.930  0.00  0.00    +0.121 A 
BRANCH   7  21
ATOM     17  C   UNL     1      -0.032  -2.209  -0.296  0.00  0.00    +0.037 A 
ATOM     18  C   UNL     1       1.161  -2.653   0.280  0.00  0.00    +0.013 A 
ATOM     19  C   UNL     1       1.303  -3.978   0.641  0.00  0.00    +0.001 A 
ATOM     20  C   UNL     1       0.269  -4.871   0.436  0.00  0.00    +0.008 A 
ATOM     21  C   UNL     1      -0.926  -4.439  -0.137  0.00  0.00    -0.016 A 
ATOM     22  C   UNL     1      -1.079  -3.105  -0.499  0.00  0.00    +0.021 A 
BRANCH  17  26
ATOM     23  C   UNL     1       0.766   1.352  -1.352  0.00  0.00    +0.132 C 
ATOM     24  N   UNL     1       0.887  -0.086  -1.100  0.00  0.00    -0.304 N 
ATOM     25  C   UNL     1       2.172  -0.760  -1.303  0.00  0.00    +0.132 C 
ATOM     26  C   UNL     1      -0.184  -0.790  -0.682  0.00  0.00    +0.246 C 
ATOM     27  O   UNL     1      -1.275  -0.258  -0.624  0.00  0.00    -0.270 OA
ENDBRANCH  17  26
ENDBRANCH   7  21
ENDBRANCH   1  10
BRANCH   5  28
ATOM     28  N   UNL     1      -2.193 -12.556   3.276  0.00  0.00    -0.269 N 
ATOM     29  C   UNL     1      -3.440 -13.067   3.279  0.00  0.00    +0.308 C 
ATOM     30  O   UNL     1      -4.169 -12.895   2.321  0.00  0.00    -0.252 OA
ATOM     31  N   UNL     1      -3.879 -13.769   4.342  0.00  0.00    -0.268 N 
ATOM     32  H   UNL     1      -1.581 -12.767   3.999  0.00  0.00    +0.156 HD
ATOM     33  H   UNL     1      -3.312 -13.872   5.123  0.00  0.00    +0.156 HD
BRANCH  31  34
ATOM     34  C   UNL     1      -5.154 -14.349   4.321  0.00  0.00    +0.056 A 
ATOM     35  C   UNL     1      -6.173 -13.764   3.584  0.00  0.00    +0.025 A 
ATOM     36  C   UNL     1      -7.430 -14.338   3.565  0.00  0.00    +0.002 A 
ATOM     37  C   UNL     1      -7.677 -15.497   4.278  0.00  0.00    +0.002 A 
ATOM     38  C   UNL     1      -6.668 -16.087   5.015  0.00  0.00    +0.025 A 
ATOM     39  C   UNL     1      -5.401 -15.521   5.036  0.00  0.00    +0.053 A 
BRANCH  39  40
ATOM     40  N   UNL     1      -4.377 -16.121   5.776  0.00  0.00    -0.313 N 
ATOM     41  H   UNL     1      -3.524 -15.669   5.878  0.00  0.00    +0.152 HD
BRANCH  40  42
ATOM     42  C   UNL     1      -4.581 -17.370   6.367  0.00  0.00    +0.031 A 
ATOM     43  C   UNL     1      -5.255 -18.367   5.673  0.00  0.00    +0.023 A 
ATOM     44  C   UNL     1      -5.455 -19.601   6.261  0.00  0.00    +0.002 A 
ATOM     45  C   UNL     1      -4.985 -19.844   7.539  0.00  0.00    +0.000 A 
ATOM     46  C   UNL     1      -4.314 -18.853   8.233  0.00  0.00    +0.002 A 
ATOM     47  C   UNL     1      -4.106 -17.619   7.649  0.00  0.00    +0.023 A 
ENDBRANCH  40  42
ENDBRANCH  39  40
ENDBRANCH  31  34
ENDBRANCH   5  28
TORSDOF 7
