REMARK  Name = CHEMBL230042
REMARK  10 active torsions:
REMARK  status: ('A' for Active; 'I' for Inactive)
REMARK    1  A    between atoms: C_1  and  C_2
REMARK    2  A    between atoms: C_4  and  C_31
REMARK    3  A    between atoms: C_9  and  C_12
REMARK    4  A    between atoms: C_13  and  N_20
REMARK    5  A    between atoms: N_20  and  C_21
REMARK    6  A    between atoms: C_21  and  C_22
REMARK    7  A    between atoms: C_22  and  C_23
REMARK    8  A    between atoms: C_22  and  O_30
REMARK    9  A    between atoms: C_33  and  C_36
REMARK   10  A    between atoms: C_33  and  C_37
REMARK                            x       y       z     vdW  Elec       q    Type
REMARK                         _______ _______ _______ _____ _____    ______ ____
ROOT
ATOM      1  C   UNL     1       0.075  -1.349   4.755  0.00  0.00    +0.102 A 
ATOM      2  C   UNL     1       0.161  -0.129   5.442  0.00  0.00    +0.045 A 
ATOM      3  C   UNL     1       0.162  -0.142   6.849  0.00  0.00    +0.041 A 
ATOM      4  C   UNL     1       0.080  -1.315   7.513  0.00  0.00    +0.088 A 
ATOM      5  N   UNL     1      -0.004  -2.498   6.848  0.00  0.00    -0.328 N 
ATOM      6  H   UNL     1      -0.061  -3.324   7.353  0.00  0.00    +0.168 HD
ATOM      7  C   UNL     1      -0.014  -2.545   5.503  0.00  0.00    +0.261 A 
ATOM      8  O   UNL     1      -0.095  -3.618   4.930  0.00  0.00    -0.267 OA
ENDROOT
BRANCH   1  17
ATOM      9  C   UNL     1      -0.033   1.499   0.009  0.00  0.00    +0.046 C 
ATOM     10  C   UNL     1       0.015  -0.008   0.001  0.00  0.00    -0.022 A 
ATOM     11  C   UNL     1       0.039  -0.682  -1.183  0.00  0.00    +0.016 A 
ATOM     12  C   UNL     1       0.084  -2.081  -1.204  0.00  0.00    +0.015 A 
ATOM     13  C   UNL     1       0.105  -2.798  -0.009  0.00  0.00    +0.039 A 
ATOM     14  C   UNL     1       0.082  -2.120   1.196  0.00  0.00    +0.067 A 
ATOM     15  C   UNL     1       0.042  -0.713   1.211  0.00  0.00    +0.092 A 
ATOM     16  N   UNL     1       0.034  -0.326   2.503  0.00  0.00    -0.227 NA
ATOM     17  C   UNL     1       0.071  -1.383   3.284  0.00  0.00    +0.146 A 
ATOM     18  N   UNL     1       0.092  -2.521   2.522  0.00  0.00    -0.338 N 
ATOM     19  H   UNL     1       0.121  -3.433   2.848  0.00  0.00    +0.167 HD
BRANCH  12  20
ATOM     20  C   UNL     1       0.108  -2.799  -2.496  0.00  0.00    +0.100 C 
ATOM     21  N   UNL     1      -0.401  -3.977  -2.655  0.00  0.00    -0.366 N 
ATOM     22  C   UNL     1      -0.222  -4.422  -4.044  0.00  0.00    +0.049 C 
ATOM     23  C   UNL     1       0.519  -3.251  -4.720  0.00  0.00    +0.130 C 
ATOM     24  N   UNL     1       0.668  -2.271  -3.631  0.00  0.00    -0.328 N 
ATOM     25  C   UNL     1       0.628  -5.694  -4.093  0.00  0.00    +0.035 C 
ATOM     26  C   UNL     1      -1.578  -4.656  -4.712  0.00  0.00    +0.035 C 
ATOM     27  H   UNL     1       1.092  -1.402  -3.704  0.00  0.00    +0.147 HD
ATOM     28  H   UNL     1      -0.839  -4.492  -1.959  0.00  0.00    +0.161 HD
ENDBRANCH  12  20
ENDBRANCH   1  17
BRANCH   2  29
ATOM     29  N   UNL     1       0.245   1.061   4.751  0.00  0.00    -0.340 N 
ATOM     30  H   UNL     1       0.165   1.067   3.784  0.00  0.00    +0.146 HD
BRANCH  29  31
ATOM     31  C   UNL     1       0.454   2.317   5.477  0.00  0.00    +0.137 C 
BRANCH  31  32
ATOM     32  C   UNL     1       0.509   3.478   4.482  0.00  0.00    +0.161 C 
BRANCH  32  33
ATOM     33  C   UNL     1       0.725   4.769   5.228  0.00  0.00    -0.016 A 
ATOM     34  C   UNL     1       2.006   5.172   5.558  0.00  0.00    +0.006 A 
ATOM     35  C   UNL     1       2.204   6.356   6.242  0.00  0.00    +0.002 A 
ATOM     36  C   UNL     1       1.121   7.138   6.599  0.00  0.00    +0.020 A 
ATOM     37  C   UNL     1      -0.161   6.736   6.269  0.00  0.00    +0.041 A 
ATOM     38  C   UNL     1      -0.358   5.553   5.579  0.00  0.00    +0.026 A 
ATOM     39 CL   UNL     1      -1.520   7.718   6.717  0.00  0.00    -0.084 Cl
ENDBRANCH  32  33
BRANCH  32  40
ATOM     40  O   UNL     1       1.587   3.271   3.567  0.00  0.00    -0.386 OA
ATOM     41  H   UNL     1       2.456   3.215   3.989  0.00  0.00    +0.210 HD
ENDBRANCH  32  40
ENDBRANCH  31  32
ENDBRANCH  29  31
ENDBRANCH   2  29
TORSDOF 7
