REMARK  Name = CHEMBL103045
REMARK  15 active torsions:
REMARK  status: ('A' for Active; 'I' for Inactive)
REMARK    1  A    between atoms: C_1  and  C_2
REMARK    2  A    between atoms: C_2  and  N_3
REMARK    3  A    between atoms: N_6  and  C_9
REMARK    4  A    between atoms: C_9  and  C_10
REMARK    5  A    between atoms: C_10  and  C_11
REMARK    6  A    between atoms: C_11  and  O_12
REMARK    7  A    between atoms: O_12  and  C_13
REMARK    8  A    between atoms: C_18  and  O_19
REMARK    9  A    between atoms: O_19  and  C_20
REMARK   10  A    between atoms: C_21  and  N_27
REMARK   11  A    between atoms: C_22  and  C_25
REMARK   12  A    between atoms: N_27  and  C_28
REMARK   13  A    between atoms: C_31  and  S_35
REMARK   14  A    between atoms: S_35  and  C_36
REMARK   15  A    between atoms: N_40  and  C_41
REMARK                            x       y       z     vdW  Elec       q    Type
REMARK                         _______ _______ _______ _____ _____    ______ ____
ROOT
ATOM      1  C   UNL     1       2.853  -6.268  10.708  0.00  0.00    +0.164 A 
ATOM      2  C   UNL     1       3.926  -5.574  10.196  0.00  0.00    +0.077 A 
ATOM      3  C   UNL     1       5.085  -6.267   9.814  0.00  0.00    +0.077 A 
ATOM      4  C   UNL     1       5.129  -7.674   9.964  0.00  0.00    +0.026 A 
ATOM      5  C   UNL     1       4.022  -8.357  10.489  0.00  0.00    +0.061 A 
ATOM      6  C   UNL     1       2.907  -7.660  10.858  0.00  0.00    +0.162 A 
ATOM      7  C   UNL     1       6.298  -8.370   9.579  0.00  0.00    +0.060 A 
ATOM      8  C   UNL     1       7.366  -7.619   9.062  0.00  0.00    +0.091 A 
ATOM      9  C   UNL     1       7.235  -6.226   8.949  0.00  0.00    +0.132 A 
ATOM     10  N   UNL     1       6.141  -5.608   9.314  0.00  0.00    -0.253 NA
ENDROOT
BRANCH   6  11
ATOM     11  O   UNL     1       1.837  -8.324  11.372  0.00  0.00    -0.491 OA
ATOM     12  C   UNL     1       1.954  -9.743  11.500  0.00  0.00    +0.277 C 
ENDBRANCH   6  11
BRANCH   8  13
ATOM     13  C   UNL     1       8.576  -8.268   8.655  0.00  0.00    +0.103 C 
ATOM     14  N   UNL     1       9.536  -8.782   8.332  0.00  0.00    -0.191 NA
ENDBRANCH   8  13
BRANCH   7  15
ATOM     15  N   UNL     1       6.387  -9.741   9.707  0.00  0.00    -0.313 N 
ATOM     16  H   UNL     1       6.158 -10.314   8.958  0.00  0.00    +0.152 HD
BRANCH  15  17
ATOM     17  C   UNL     1       6.807 -10.305  10.916  0.00  0.00    +0.033 A 
ATOM     18  C   UNL     1       7.000  -9.497  12.030  0.00  0.00    +0.024 A 
ATOM     19  C   UNL     1       7.415 -10.052  13.223  0.00  0.00    +0.018 A 
ATOM     20  C   UNL     1       7.640 -11.421  13.311  0.00  0.00    +0.034 A 
ATOM     21  C   UNL     1       7.446 -12.230  12.198  0.00  0.00    +0.057 A 
ATOM     22  C   UNL     1       7.026 -11.674  11.005  0.00  0.00    +0.044 A 
ATOM     23 CL   UNL     1       7.727 -13.940  12.308  0.00  0.00    -0.082 Cl
BRANCH  20  24
ATOM     24  S   UNL     1       8.170 -12.130  14.835  0.00  0.00    -0.050 S 
BRANCH  24  25
ATOM     25  C   UNL     1       6.729 -12.929  15.457  0.00  0.00    +0.173 A 
ATOM     26  N   UNL     1       5.532 -12.883  14.920  0.00  0.00    -0.230 NA
ATOM     27  C   UNL     1       4.682 -13.609  15.665  0.00  0.00    +0.131 A 
ATOM     28  C   UNL     1       5.364 -14.127  16.700  0.00  0.00    +0.107 A 
ATOM     29  N   UNL     1       6.668 -13.705  16.574  0.00  0.00    -0.328 N 
ATOM     30  C   UNL     1       7.779 -14.027  17.473  0.00  0.00    +0.151 C 
ENDBRANCH  24  25
ENDBRANCH  20  24
ENDBRANCH  15  17
ENDBRANCH   7  15
BRANCH   1  31
ATOM     31  O   UNL     1       1.732  -5.595  11.077  0.00  0.00    -0.488 OA
BRANCH  31  32
ATOM     32  C   UNL     1       1.739  -4.177  10.899  0.00  0.00    +0.227 C 
BRANCH  32  33
ATOM     33  C   UNL     1       0.402  -3.598  11.367  0.00  0.00    +0.022 C 
BRANCH  33  34
ATOM     34  C   UNL     1       0.408  -2.080  11.177  0.00  0.00    -0.075 C 
BRANCH  34  38
ATOM     35  N   UNL     1      -2.429   0.261  13.225  0.00  0.00    -0.306 NA
ATOM     36  C   UNL     1      -2.259   0.490  11.783  0.00  0.00    +0.066 C 
ATOM     37  C   UNL     1      -0.915  -0.086  11.333  0.00  0.00    -0.063 C 
ATOM     38  N   UNL     1      -0.875  -1.525  11.625  0.00  0.00    +0.381 N 
ATOM     39  C   UNL     1      -1.021  -1.736  13.072  0.00  0.00    -0.063 C 
ATOM     40  C   UNL     1      -2.366  -1.174  13.537  0.00  0.00    +0.066 C 
ATOM     41  H   UNL     1      -1.629  -1.987  11.140  0.00  0.00    -0.082 HD
BRANCH  35  43
ATOM     42  C   UNL     1      -3.610   2.374  13.593  0.00  0.00    +0.020 C 
ATOM     43  C   UNL     1      -3.685   0.850  13.708  0.00  0.00    +0.081 C 
ENDBRANCH  35  43
ENDBRANCH  34  38
ENDBRANCH  33  34
ENDBRANCH  32  33
ENDBRANCH  31  32
ENDBRANCH   1  31
TORSDOF 12
