REMARK  Name = CHEMBL446345
REMARK  10 active torsions:
REMARK  status: ('A' for Active; 'I' for Inactive)
REMARK    1  A    between atoms: C_1  and  C_2
REMARK    2  A    between atoms: C_2  and  C_3
REMARK    3  A    between atoms: C_2  and  N_4
REMARK    4  A    between atoms: N_7  and  C_10
REMARK    5  A    between atoms: C_13  and  N_18
REMARK    6  A    between atoms: C_14  and  O_16
REMARK    7  A    between atoms: O_16  and  C_17
REMARK    8  A    between atoms: C_27  and  N_29
REMARK    9  A    between atoms: N_29  and  C_30
REMARK   10  A    between atoms: C_35  and  N_36
REMARK                            x       y       z     vdW  Elec       q    Type
REMARK                         _______ _______ _______ _____ _____    ______ ____
ROOT
ATOM      1  N   UNL     1      -6.741  -5.120  -4.243  0.00  0.00    -0.281 N 
ATOM      2  C   UNL     1      -6.769  -6.492  -4.051  0.00  0.00    +0.223 A 
ATOM      3  N   UNL     1      -6.105  -7.005  -3.029  0.00  0.00    -0.196 NA
ATOM      4  C   UNL     1      -6.106  -8.319  -2.809  0.00  0.00    +0.145 A 
ATOM      5  C   UNL     1      -6.828  -9.149  -3.687  0.00  0.00    +0.059 A 
ATOM      6  C   UNL     1      -6.645 -10.515  -3.199  0.00  0.00    +0.032 A 
ATOM      7  C   UNL     1      -5.864 -10.438  -2.110  0.00  0.00    +0.085 A 
ATOM      8  N   UNL     1      -5.534  -9.128  -1.866  0.00  0.00    -0.346 N 
ATOM      9  H   UNL     1      -4.978  -8.822  -1.134  0.00  0.00    +0.167 HD
ATOM     10  C   UNL     1      -7.517  -8.561  -4.759  0.00  0.00    +0.137 A 
ATOM     11  N   UNL     1      -7.465  -7.240  -4.898  0.00  0.00    -0.198 NA
ATOM     12  H   UNL     1      -7.295  -4.714  -4.928  0.00  0.00    +0.155 HD
ENDROOT
BRANCH   1  16
ATOM     13  C   UNL     1      -4.271  -2.730  -1.870  0.00  0.00    +0.033 A 
ATOM     14  C   UNL     1      -3.874  -4.015  -2.216  0.00  0.00    +0.025 A 
ATOM     15  C   UNL     1      -4.691  -4.805  -3.001  0.00  0.00    +0.029 A 
ATOM     16  C   UNL     1      -5.911  -4.317  -3.445  0.00  0.00    +0.076 A 
ATOM     17  C   UNL     1      -6.312  -3.029  -3.099  0.00  0.00    +0.143 A 
ATOM     18  C   UNL     1      -5.494  -2.240  -2.308  0.00  0.00    +0.070 A 
BRANCH  13  22
ATOM     19  N   UNL     1      -2.366  -0.704   1.194  0.00  0.00    +0.383 N 
ATOM     20  C   UNL     1      -3.693  -0.297   0.715  0.00  0.00    -0.059 C 
ATOM     21  C   UNL     1      -3.783  -0.528  -0.797  0.00  0.00    +0.086 C 
ATOM     22  N   UNL     1      -3.441  -1.932  -1.076  0.00  0.00    -0.333 N 
ATOM     23  C   UNL     1      -2.203  -2.472  -0.494  0.00  0.00    +0.086 C 
ATOM     24  C   UNL     1      -2.188  -2.149   1.004  0.00  0.00    -0.059 C 
ATOM     25  H   UNL     1      -1.657  -0.208   0.675  0.00  0.00    -0.081 HD
BRANCH  19  27
ATOM     26  C   UNL     1      -0.856  -0.794   3.119  0.00  0.00    -0.014 C 
ATOM     27  C   UNL     1      -2.243  -0.381   2.621  0.00  0.00    -0.075 C 
ATOM     28  C   UNL     1      -2.428   1.125   2.821  0.00  0.00    -0.014 C 
ENDBRANCH  19  27
ENDBRANCH  13  22
BRANCH  17  29
ATOM     29  O   UNL     1      -7.508  -2.548  -3.534  0.00  0.00    -0.493 OA
ATOM     30  C   UNL     1      -7.854  -1.218  -3.140  0.00  0.00    +0.277 C 
ENDBRANCH  17  29
ENDBRANCH   1  16
BRANCH  10  31
ATOM     31  N   UNL     1      -8.239  -9.338  -5.647  0.00  0.00    -0.297 N 
ATOM     32  H   UNL     1      -8.227 -10.305  -5.567  0.00  0.00    +0.154 HD
BRANCH  31  33
ATOM     33  C   UNL     1      -8.989  -8.729  -6.662  0.00  0.00    +0.054 A 
ATOM     34  C   UNL     1      -8.536  -7.560  -7.253  0.00  0.00    +0.025 A 
ATOM     35  C   UNL     1      -9.278  -6.960  -8.255  0.00  0.00    +0.002 A 
ATOM     36  C   UNL     1     -10.471  -7.523  -8.669  0.00  0.00    +0.002 A 
ATOM     37  C   UNL     1     -10.930  -8.689  -8.085  0.00  0.00    +0.025 A 
ATOM     38  C   UNL     1     -10.189  -9.301  -7.083  0.00  0.00    +0.055 A 
BRANCH  38  39
ATOM     39  N   UNL     1     -10.648 -10.485  -6.495  0.00  0.00    -0.298 N 
ATOM     40  C   UNL     1     -11.523 -10.554  -5.321  0.00  0.00    +0.116 C 
ATOM     41  C   UNL     1     -11.738 -12.055  -5.067  0.00  0.00    +0.056 C 
ATOM     42  C   UNL     1     -10.942 -12.742  -6.154  0.00  0.00    -0.025 A 
ATOM     43  C   UNL     1     -10.345 -11.771  -6.944  0.00  0.00    +0.037 A 
ATOM     44  C   UNL     1      -9.556 -12.168  -8.025  0.00  0.00    +0.024 A 
ATOM     45  C   UNL     1      -9.379 -13.507  -8.303  0.00  0.00    +0.002 A 
ATOM     46  C   UNL     1      -9.983 -14.467  -7.512  0.00  0.00    +0.000 A 
ATOM     47  C   UNL     1     -10.758 -14.082  -6.433  0.00  0.00    +0.005 A 
ENDBRANCH  38  39
ENDBRANCH  31  33
ENDBRANCH  10  31
TORSDOF 7
