REMARK  Name = CHEMBL513227
REMARK  4 active torsions:
REMARK  status: ('A' for Active; 'I' for Inactive)
REMARK    1  A    between atoms: C_8  and  C_17
REMARK    2  A    between atoms: C_9  and  C_10
REMARK    3  A    between atoms: C_21  and  C_23
REMARK    4  A    between atoms: N_25  and  C_26
REMARK                            x       y       z     vdW  Elec       q    Type
REMARK                         _______ _______ _______ _____ _____    ______ ____
ROOT
ATOM      1  C   UNL     1       0.677  -4.173   7.142  0.00  0.00    +0.005 A 
ATOM      2  C   UNL     1       0.906  -2.821   6.841  0.00  0.00    +0.018 A 
ATOM      3  C   UNL     1       1.608  -2.480   5.739  0.00  0.00    +0.093 A 
ATOM      4  N   UNL     1       2.103  -3.438   4.906  0.00  0.00    -0.299 N 
ATOM      5  C   UNL     1       1.897  -4.765   5.172  0.00  0.00    +0.116 A 
ATOM      6  C   UNL     1       1.167  -5.139   6.318  0.00  0.00    +0.045 A 
ATOM      7  N   UNL     1       2.474  -5.487   4.218  0.00  0.00    -0.339 N 
ATOM      8  C   UNL     1       3.055  -4.675   3.330  0.00  0.00    +0.074 A 
ATOM      9  C   UNL     1       2.835  -3.365   3.741  0.00  0.00    +0.097 A 
ATOM     10  H   UNL     1       2.475  -6.456   4.173  0.00  0.00    +0.167 HD
ENDROOT
BRANCH   9  11
ATOM     11  C   UNL     1       3.294  -2.142   3.065  0.00  0.00    +0.095 A 
ATOM     12  C   UNL     1       2.616  -0.927   3.251  0.00  0.00    +0.050 A 
ATOM     13  C   UNL     1       3.085   0.194   2.596  0.00  0.00    +0.116 A 
ATOM     14  N   UNL     1       4.153   0.092   1.817  0.00  0.00    -0.223 NA
ATOM     15  C   UNL     1       4.776  -1.067   1.658  0.00  0.00    +0.213 A 
ATOM     16  N   UNL     1       4.366  -2.167   2.269  0.00  0.00    -0.213 NA
ATOM     17  N   UNL     1       5.887  -1.128   0.835  0.00  0.00    -0.327 N 
ATOM     18  H   UNL     1       6.200  -0.329   0.383  0.00  0.00    +0.145 HD
ATOM     19  H   UNL     1       6.352  -1.970   0.710  0.00  0.00    +0.145 HD
ENDBRANCH   9  11
BRANCH   8  20
ATOM     20  C   UNL     1       3.802  -5.096   2.121  0.00  0.00    +0.001 A 
ATOM     21  C   UNL     1       5.026  -4.501   1.813  0.00  0.00    +0.010 A 
ATOM     22  C   UNL     1       5.724  -4.892   0.688  0.00  0.00    +0.001 A 
ATOM     23  C   UNL     1       5.216  -5.873  -0.141  0.00  0.00    +0.013 A 
ATOM     24  C   UNL     1       3.992  -6.476   0.156  0.00  0.00    +0.038 A 
ATOM     25  C   UNL     1       3.286  -6.089   1.294  0.00  0.00    +0.023 A 
BRANCH  24  26
ATOM     26  C   UNL     1       3.449  -7.526  -0.732  0.00  0.00    +0.248 C 
ATOM     27  O   UNL     1       2.383  -8.049  -0.472  0.00  0.00    -0.270 OA
ATOM     28  N   UNL     1       4.135  -7.902  -1.829  0.00  0.00    -0.277 N 
ATOM     29  H   UNL     1       4.947  -7.434  -2.077  0.00  0.00    +0.155 HD
BRANCH  28  30
ATOM     30  C   UNL     1       3.675  -8.969  -2.611  0.00  0.00    +0.105 A 
ATOM     31  C   UNL     1       2.816  -8.731  -3.678  0.00  0.00    +0.147 A 
ATOM     32  C   UNL     1       2.364  -9.788  -4.449  0.00  0.00    +0.040 A 
ATOM     33  C   UNL     1       2.765 -11.079  -4.158  0.00  0.00    +0.006 A 
ATOM     34  C   UNL     1       3.619 -11.319  -3.097  0.00  0.00    +0.040 A 
ATOM     35  C   UNL     1       4.080 -10.268  -2.326  0.00  0.00    +0.147 A 
ATOM     36  F   UNL     1       4.918 -10.503  -1.293  0.00  0.00    -0.203 F 
ATOM     37  F   UNL     1       2.423  -7.470  -3.962  0.00  0.00    -0.203 F 
ENDBRANCH  28  30
ENDBRANCH  24  26
ENDBRANCH   8  20
TORSDOF 4
