REMARK  Name = CHEMBL477069
REMARK  10 active torsions:
REMARK  status: ('A' for Active; 'I' for Inactive)
REMARK    1  A    between atoms: C_1  and  C_2
REMARK    2  A    between atoms: C_2  and  C_3
REMARK    3  A    between atoms: C_3  and  N_4
REMARK    4  A    between atoms: C_8  and  C_10
REMARK    5  A    between atoms: C_13  and  N_18
REMARK    6  A    between atoms: C_14  and  O_16
REMARK    7  A    between atoms: O_16  and  C_17
REMARK    8  A    between atoms: C_27  and  N_29
REMARK    9  A    between atoms: N_29  and  C_30
REMARK   10  A    between atoms: C_35  and  C_36
REMARK                            x       y       z     vdW  Elec       q    Type
REMARK                         _______ _______ _______ _____ _____    ______ ____
ROOT
ATOM      1  N   UNL     1      -8.944  -3.933  -0.452  0.00  0.00    -0.281 N 
ATOM      2  C   UNL     1      -9.160  -5.225   0.002  0.00  0.00    +0.223 A 
ATOM      3  N   UNL     1      -8.123  -5.937   0.409  0.00  0.00    -0.196 NA
ATOM      4  C   UNL     1      -8.287  -7.182   0.854  0.00  0.00    +0.145 A 
ATOM      5  C   UNL     1      -9.586  -7.723   0.881  0.00  0.00    +0.059 A 
ATOM      6  C   UNL     1      -9.452  -9.081   1.407  0.00  0.00    +0.032 A 
ATOM      7  C   UNL     1      -8.147  -9.274   1.656  0.00  0.00    +0.085 A 
ATOM      8  N   UNL     1      -7.439  -8.145   1.328  0.00  0.00    -0.346 N 
ATOM      9  H   UNL     1      -6.479  -8.044   1.420  0.00  0.00    +0.167 HD
ATOM     10  C   UNL     1     -10.657  -6.931   0.440  0.00  0.00    +0.137 A 
ATOM     11  N   UNL     1     -10.400  -5.697   0.017  0.00  0.00    -0.198 NA
ATOM     12  H   UNL     1      -9.698  -3.363  -0.669  0.00  0.00    +0.155 HD
ENDROOT
BRANCH   1  16
ATOM     13  C   UNL     1      -5.052  -2.500  -0.890  0.00  0.00    -0.042 A 
ATOM     14  C   UNL     1      -5.300  -3.859  -0.948  0.00  0.00    +0.006 A 
ATOM     15  C   UNL     1      -6.589  -4.337  -0.803  0.00  0.00    +0.027 A 
ATOM     16  C   UNL     1      -7.637  -3.452  -0.599  0.00  0.00    +0.076 A 
ATOM     17  C   UNL     1      -7.387  -2.083  -0.540  0.00  0.00    +0.141 A 
ATOM     18  C   UNL     1      -6.091  -1.613  -0.681  0.00  0.00    +0.051 A 
BRANCH  13  23
ATOM     19  N   UNL     1      -1.384  -2.084  -0.106  0.00  0.00    +0.380 N 
ATOM     20  C   UNL     1      -0.831  -2.536  -1.388  0.00  0.00    -0.079 C 
ATOM     21  C   UNL     1      -1.644  -1.938  -2.538  0.00  0.00    -0.018 C 
ATOM     22  C   UNL     1      -3.100  -2.398  -2.419  0.00  0.00    +0.004 C 
ATOM     23  C   UNL     1      -3.644  -1.986  -1.048  0.00  0.00    +0.002 C 
ATOM     24  C   UNL     1      -2.757  -2.581   0.047  0.00  0.00    -0.071 C 
ATOM     25  H   UNL     1      -0.814  -2.437   0.648  0.00  0.00    -0.082 HD
BRANCH  19  26
ATOM     26  C   UNL     1      -1.390  -0.615  -0.067  0.00  0.00    -0.079 C 
BRANCH  26  28
ATOM     27  C   UNL     1       0.043   1.431  -0.061  0.00  0.00    +0.002 C 
ATOM     28  C   UNL     1       0.049  -0.098  -0.101  0.00  0.00    -0.022 C 
ENDBRANCH  26  28
ENDBRANCH  19  26
ENDBRANCH  13  23
BRANCH  17  29
ATOM     29  O   UNL     1      -8.410  -1.210  -0.339  0.00  0.00    -0.493 OA
ATOM     30  C   UNL     1      -8.079   0.179  -0.290  0.00  0.00    +0.277 C 
ENDBRANCH  17  29
ENDBRANCH   1  16
BRANCH  10  31
ATOM     31  N   UNL     1     -11.952  -7.421   0.449  0.00  0.00    -0.298 N 
ATOM     32  H   UNL     1     -12.139  -8.289   0.841  0.00  0.00    +0.154 HD
BRANCH  31  33
ATOM     33  C   UNL     1     -12.984  -6.670  -0.102  0.00  0.00    +0.047 A 
ATOM     34  C   UNL     1     -12.714  -5.732  -1.090  0.00  0.00    +0.062 A 
ATOM     35  C   UNL     1     -13.742  -4.987  -1.636  0.00  0.00    +0.125 A 
ATOM     36  C   UNL     1     -15.049  -5.170  -1.203  0.00  0.00    +0.039 A 
ATOM     37  C   UNL     1     -15.334  -6.095  -0.225  0.00  0.00    +0.018 A 
ATOM     38  C   UNL     1     -14.305  -6.860   0.333  0.00  0.00    +0.058 A 
ATOM     39  F   UNL     1     -13.473  -4.075  -2.597  0.00  0.00    -0.205 F 
BRANCH  38  40
ATOM     40  C   UNL     1     -14.605  -7.856   1.377  0.00  0.00    +0.243 C 
ATOM     41  O   UNL     1     -13.699  -8.445   1.933  0.00  0.00    -0.270 OA
ATOM     42  N   UNL     1     -15.884  -8.113   1.715  0.00  0.00    -0.325 N 
ATOM     43  H   UNL     1     -16.607  -7.642   1.272  0.00  0.00    +0.145 HD
ATOM     44  H   UNL     1     -16.082  -8.768   2.402  0.00  0.00    +0.145 HD
ENDBRANCH  38  40
ENDBRANCH  31  33
ENDBRANCH  10  31
TORSDOF 8
