REMARK  Name = CHEMBL444031
REMARK  5 active torsions:
REMARK  status: ('A' for Active; 'I' for Inactive)
REMARK    1  A    between atoms: C_8  and  C_27
REMARK    2  A    between atoms: C_9  and  C_10
REMARK    3  A    between atoms: N_16  and  C_17
REMARK    4  A    between atoms: C_31  and  C_33
REMARK    5  A    between atoms: N_35  and  C_36
REMARK                            x       y       z     vdW  Elec       q    Type
REMARK                         _______ _______ _______ _____ _____    ______ ____
ROOT
ATOM      1  C   UNL     1       2.097   2.263   2.917  0.00  0.00    +0.005 A 
ATOM      2  C   UNL     1       3.309   2.711   2.370  0.00  0.00    +0.018 A 
ATOM      3  C   UNL     1       4.207   1.823   1.888  0.00  0.00    +0.093 A 
ATOM      4  N   UNL     1       3.950   0.486   1.926  0.00  0.00    -0.297 N 
ATOM      5  C   UNL     1       2.776   0.017   2.454  0.00  0.00    +0.139 A 
ATOM      6  C   UNL     1       1.829   0.929   2.961  0.00  0.00    +0.047 A 
ATOM      7  N   UNL     1       2.771  -1.308   2.374  0.00  0.00    -0.227 NA
ATOM      8  C   UNL     1       3.906  -1.728   1.808  0.00  0.00    +0.099 A 
ATOM      9  C   UNL     1       4.676  -0.609   1.513  0.00  0.00    +0.100 A 
ENDROOT
BRANCH   9  10
ATOM     10  C   UNL     1       6.005  -0.597   0.882  0.00  0.00    +0.095 A 
ATOM     11  C   UNL     1       6.451   0.534   0.180  0.00  0.00    +0.050 A 
ATOM     12  C   UNL     1       7.706   0.498  -0.394  0.00  0.00    +0.116 A 
ATOM     13  N   UNL     1       8.447  -0.594  -0.267  0.00  0.00    -0.223 NA
ATOM     14  C   UNL     1       8.003  -1.649   0.401  0.00  0.00    +0.220 A 
ATOM     15  N   UNL     1       6.809  -1.659   0.972  0.00  0.00    -0.213 NA
ATOM     16  N   UNL     1       8.811  -2.769   0.508  0.00  0.00    -0.283 N 
ATOM     17  H   UNL     1       8.469  -3.576   0.922  0.00  0.00    +0.155 HD
BRANCH  16  18
ATOM     18  C   UNL     1      10.123  -2.735   0.018  0.00  0.00    +0.037 A 
ATOM     19  C   UNL     1      10.889  -1.586   0.164  0.00  0.00    +0.027 A 
ATOM     20  C   UNL     1      12.182  -1.552  -0.320  0.00  0.00    +0.051 A 
ATOM     21  C   UNL     1      12.720  -2.664  -0.951  0.00  0.00    +0.162 A 
ATOM     22  C   UNL     1      11.956  -3.816  -1.096  0.00  0.00    +0.164 A 
ATOM     23  C   UNL     1      10.659  -3.851  -0.608  0.00  0.00    +0.072 A 
ATOM     24  O   UNL     1      12.470  -4.920  -1.706  0.00  0.00    -0.485 OA
ATOM     25  C   UNL     1      13.640  -4.727  -2.507  0.00  0.00    +0.270 C 
ATOM     26  C   UNL     1      14.629  -3.862  -1.714  0.00  0.00    +0.270 C 
ATOM     27  O   UNL     1      13.996  -2.610  -1.425  0.00  0.00    -0.485 OA
ENDBRANCH  16  18
ENDBRANCH   9  10
BRANCH   8  28
ATOM     28  C   UNL     1       4.279  -3.138   1.543  0.00  0.00    +0.003 A 
ATOM     29  C   UNL     1       5.022  -3.463   0.408  0.00  0.00    +0.010 A 
ATOM     30  C   UNL     1       5.370  -4.776   0.159  0.00  0.00    +0.001 A 
ATOM     31  C   UNL     1       4.987  -5.776   1.031  0.00  0.00    +0.013 A 
ATOM     32  C   UNL     1       4.243  -5.463   2.171  0.00  0.00    +0.038 A 
ATOM     33  C   UNL     1       3.893  -4.139   2.430  0.00  0.00    +0.023 A 
BRANCH  32  34
ATOM     34  C   UNL     1       3.833  -6.534   3.104  0.00  0.00    +0.248 C 
ATOM     35  O   UNL     1       3.185  -6.261   4.096  0.00  0.00    -0.270 OA
ATOM     36  N   UNL     1       4.176  -7.813   2.855  0.00  0.00    -0.277 N 
ATOM     37  H   UNL     1       4.734  -8.026   2.090  0.00  0.00    +0.155 HD
BRANCH  36  38
ATOM     38  C   UNL     1       3.729  -8.836   3.701  0.00  0.00    +0.105 A 
ATOM     39  C   UNL     1       2.479  -8.746   4.303  0.00  0.00    +0.147 A 
ATOM     40  C   UNL     1       2.040  -9.758   5.137  0.00  0.00    +0.040 A 
ATOM     41  C   UNL     1       2.843 -10.860   5.372  0.00  0.00    +0.006 A 
ATOM     42  C   UNL     1       4.086 -10.953   4.775  0.00  0.00    +0.040 A 
ATOM     43  C   UNL     1       4.530  -9.948   3.935  0.00  0.00    +0.147 A 
ATOM     44  F   UNL     1       5.743 -10.043   3.348  0.00  0.00    -0.203 F 
ATOM     45  F   UNL     1       1.694  -7.670   4.074  0.00  0.00    -0.203 F 
ENDBRANCH  36  38
ENDBRANCH  32  34
ENDBRANCH   8  28
TORSDOF 5
