REMARK  Name = CHEMBL446345
REMARK  10 active torsions:
REMARK  status: ('A' for Active; 'I' for Inactive)
REMARK    1  A    between atoms: C_1  and  C_2
REMARK    2  A    between atoms: C_2  and  C_3
REMARK    3  A    between atoms: C_2  and  N_4
REMARK    4  A    between atoms: N_7  and  C_10
REMARK    5  A    between atoms: C_13  and  N_18
REMARK    6  A    between atoms: C_14  and  O_16
REMARK    7  A    between atoms: O_16  and  C_17
REMARK    8  A    between atoms: C_27  and  N_29
REMARK    9  A    between atoms: N_29  and  C_30
REMARK   10  A    between atoms: C_35  and  N_36
REMARK                            x       y       z     vdW  Elec       q    Type
REMARK                         _______ _______ _______ _____ _____    ______ ____
ROOT
ATOM      1  N   UNL     1       0.104  -5.083  -8.008  0.00  0.00    -0.281 N 
ATOM      2  C   UNL     1      -0.433  -4.535  -9.162  0.00  0.00    +0.223 A 
ATOM      3  N   UNL     1      -0.615  -3.227  -9.220  0.00  0.00    -0.196 NA
ATOM      4  C   UNL     1      -1.128  -2.660 -10.310  0.00  0.00    +0.145 A 
ATOM      5  C   UNL     1      -1.472  -3.482 -11.399  0.00  0.00    +0.059 A 
ATOM      6  C   UNL     1      -2.000  -2.592 -12.432  0.00  0.00    +0.032 A 
ATOM      7  C   UNL     1      -1.948  -1.346 -11.935  0.00  0.00    +0.085 A 
ATOM      8  N   UNL     1      -1.428  -1.373 -10.665  0.00  0.00    -0.346 N 
ATOM      9  H   UNL     1      -1.293  -0.595 -10.102  0.00  0.00    +0.167 HD
ATOM     10  C   UNL     1      -1.262  -4.866 -11.294  0.00  0.00    +0.137 A 
ATOM     11  N   UNL     1      -0.740  -5.343 -10.169  0.00  0.00    -0.198 NA
ATOM     12  H   UNL     1       0.333  -6.025  -7.979  0.00  0.00    +0.155 HD
ENDROOT
BRANCH   1  16
ATOM     13  C   UNL     1       0.737  -2.678  -4.653  0.00  0.00    +0.033 A 
ATOM     14  C   UNL     1      -0.339  -2.430  -5.496  0.00  0.00    +0.025 A 
ATOM     15  C   UNL     1      -0.548  -3.226  -6.606  0.00  0.00    +0.029 A 
ATOM     16  C   UNL     1       0.317  -4.275  -6.881  0.00  0.00    +0.076 A 
ATOM     17  C   UNL     1       1.397  -4.525  -6.037  0.00  0.00    +0.143 A 
ATOM     18  C   UNL     1       1.608  -3.723  -4.928  0.00  0.00    +0.070 A 
BRANCH  13  22
ATOM     19  N   UNL     1       0.692  -0.922  -0.922  0.00  0.00    -0.297 NA
ATOM     20  C   UNL     1      -0.427  -0.748  -1.857  0.00  0.00    +0.103 C 
ATOM     21  C   UNL     1       0.114  -0.682  -3.289  0.00  0.00    +0.120 C 
ATOM     22  N   UNL     1       0.946  -1.870  -3.530  0.00  0.00    -0.327 N 
ATOM     23  C   UNL     1       2.003  -2.188  -2.558  0.00  0.00    +0.120 C 
ATOM     24  C   UNL     1       1.388  -2.195  -1.154  0.00  0.00    +0.103 C 
BRANCH  19  26
ATOM     25  C   UNL     1      -0.370   0.566   0.707  0.00  0.00    +0.024 C 
ATOM     26  C   UNL     1       0.236  -0.818   0.471  0.00  0.00    +0.051 C 
ATOM     27  C   UNL     1      -0.820  -1.891   0.743  0.00  0.00    +0.024 C 
ENDBRANCH  19  26
ENDBRANCH  13  22
BRANCH  17  28
ATOM     28  O   UNL     1       2.246  -5.553  -6.306  0.00  0.00    -0.493 OA
ATOM     29  C   UNL     1       3.332  -5.752  -5.398  0.00  0.00    +0.277 C 
ENDBRANCH  17  28
ENDBRANCH   1  16
BRANCH  10  30
ATOM     30  N   UNL     1      -1.585  -5.712 -12.340  0.00  0.00    -0.297 N 
ATOM     31  H   UNL     1      -2.015  -5.359 -13.134  0.00  0.00    +0.154 HD
BRANCH  30  32
ATOM     32  C   UNL     1      -1.292  -7.079 -12.250  0.00  0.00    +0.054 A 
ATOM     33  C   UNL     1      -1.361  -7.726 -11.026  0.00  0.00    +0.025 A 
ATOM     34  C   UNL     1      -1.072  -9.075 -10.940  0.00  0.00    +0.002 A 
ATOM     35  C   UNL     1      -0.713  -9.783 -12.073  0.00  0.00    +0.002 A 
ATOM     36  C   UNL     1      -0.642  -9.146 -13.297  0.00  0.00    +0.025 A 
ATOM     37  C   UNL     1      -0.937  -7.794 -13.394  0.00  0.00    +0.055 A 
BRANCH  37  38
ATOM     38  N   UNL     1      -0.871  -7.148 -14.634  0.00  0.00    -0.298 N 
ATOM     39  C   UNL     1       0.325  -6.505 -15.184  0.00  0.00    +0.116 C 
ATOM     40  C   UNL     1      -0.108  -5.948 -16.549  0.00  0.00    +0.056 C 
ATOM     41  C   UNL     1      -1.566  -6.332 -16.671  0.00  0.00    -0.025 A 
ATOM     42  C   UNL     1      -1.935  -7.028 -15.530  0.00  0.00    +0.037 A 
ATOM     43  C   UNL     1      -3.246  -7.495 -15.415  0.00  0.00    +0.024 A 
ATOM     44  C   UNL     1      -4.155  -7.268 -16.426  0.00  0.00    +0.002 A 
ATOM     45  C   UNL     1      -3.776  -6.577 -17.562  0.00  0.00    +0.000 A 
ATOM     46  C   UNL     1      -2.482  -6.104 -17.679  0.00  0.00    +0.005 A 
ENDBRANCH  37  38
ENDBRANCH  30  32
ENDBRANCH  10  30
TORSDOF 7
