REMARK  Name = CHEMBL477069
REMARK  10 active torsions:
REMARK  status: ('A' for Active; 'I' for Inactive)
REMARK    1  A    between atoms: C_1  and  C_2
REMARK    2  A    between atoms: C_2  and  C_3
REMARK    3  A    between atoms: C_3  and  N_4
REMARK    4  A    between atoms: C_8  and  C_10
REMARK    5  A    between atoms: C_13  and  N_18
REMARK    6  A    between atoms: C_14  and  O_16
REMARK    7  A    between atoms: O_16  and  C_17
REMARK    8  A    between atoms: C_27  and  N_29
REMARK    9  A    between atoms: N_29  and  C_30
REMARK   10  A    between atoms: C_35  and  C_36
REMARK                            x       y       z     vdW  Elec       q    Type
REMARK                         _______ _______ _______ _____ _____    ______ ____
ROOT
ATOM      1  N   UNL     1      -8.068  -6.010   0.682  0.00  0.00    -0.281 N 
ATOM      2  C   UNL     1      -8.848  -6.187  -0.449  0.00  0.00    +0.223 A 
ATOM      3  N   UNL     1      -8.299  -5.995  -1.637  0.00  0.00    -0.196 NA
ATOM      4  C   UNL     1      -9.014  -6.155  -2.749  0.00  0.00    +0.145 A 
ATOM      5  C   UNL     1     -10.365  -6.533  -2.634  0.00  0.00    +0.059 A 
ATOM      6  C   UNL     1     -10.880  -6.628  -4.000  0.00  0.00    +0.032 A 
ATOM      7  C   UNL     1      -9.864  -6.319  -4.821  0.00  0.00    +0.085 A 
ATOM      8  N   UNL     1      -8.741  -6.034  -4.084  0.00  0.00    -0.346 N 
ATOM      9  H   UNL     1      -7.881  -5.784  -4.456  0.00  0.00    +0.167 HD
ATOM     10  C   UNL     1     -10.906  -6.726  -1.354  0.00  0.00    +0.137 A 
ATOM     11  N   UNL     1     -10.117  -6.548  -0.300  0.00  0.00    -0.198 NA
ATOM     12  H   UNL     1      -8.423  -6.234   1.556  0.00  0.00    +0.155 HD
ENDROOT
BRANCH   1  16
ATOM     13  C   UNL     1      -4.190  -4.516   0.327  0.00  0.00    -0.042 A 
ATOM     14  C   UNL     1      -5.134  -4.229  -0.642  0.00  0.00    +0.006 A 
ATOM     15  C   UNL     1      -6.420  -4.723  -0.527  0.00  0.00    +0.027 A 
ATOM     16  C   UNL     1      -6.765  -5.509   0.563  0.00  0.00    +0.076 A 
ATOM     17  C   UNL     1      -5.814  -5.798   1.538  0.00  0.00    +0.141 A 
ATOM     18  C   UNL     1      -4.526  -5.303   1.413  0.00  0.00    +0.051 A 
BRANCH  13  23
ATOM     19  N   UNL     1      -1.471  -1.916   0.034  0.00  0.00    +0.380 N 
ATOM     20  C   UNL     1      -0.890  -2.346  -1.243  0.00  0.00    -0.079 C 
ATOM     21  C   UNL     1      -0.771  -3.872  -1.267  0.00  0.00    -0.018 C 
ATOM     22  C   UNL     1      -2.163  -4.489  -1.104  0.00  0.00    +0.004 C 
ATOM     23  C   UNL     1      -2.790  -3.975   0.196  0.00  0.00    +0.002 C 
ATOM     24  C   UNL     1      -2.833  -2.446   0.165  0.00  0.00    -0.071 C 
ATOM     25  H   UNL     1      -0.903  -2.262   0.793  0.00  0.00    -0.082 HD
BRANCH  19  26
ATOM     26  C   UNL     1      -1.511  -0.449   0.084  0.00  0.00    -0.079 C 
BRANCH  26  28
ATOM     27  C   UNL     1      -0.124   1.629   0.124  0.00  0.00    +0.002 C 
ATOM     28  C   UNL     1      -0.083   0.101   0.073  0.00  0.00    -0.022 C 
ENDBRANCH  26  28
ENDBRANCH  19  26
ENDBRANCH  13  23
BRANCH  17  29
ATOM     29  O   UNL     1      -6.147  -6.568   2.609  0.00  0.00    -0.493 OA
ATOM     30  C   UNL     1      -5.120  -6.823   3.569  0.00  0.00    +0.277 C 
ENDBRANCH  17  29
ENDBRANCH   1  16
BRANCH  10  31
ATOM     31  N   UNL     1     -12.230  -7.097  -1.193  0.00  0.00    -0.298 N 
ATOM     32  H   UNL     1     -12.772  -7.309  -1.969  0.00  0.00    +0.154 HD
BRANCH  31  33
ATOM     33  C   UNL     1     -12.783  -7.167   0.081  0.00  0.00    +0.047 A 
ATOM     34  C   UNL     1     -12.252  -6.407   1.114  0.00  0.00    +0.062 A 
ATOM     35  C   UNL     1     -12.803  -6.478   2.380  0.00  0.00    +0.125 A 
ATOM     36  C   UNL     1     -13.889  -7.308   2.627  0.00  0.00    +0.039 A 
ATOM     37  C   UNL     1     -14.428  -8.068   1.614  0.00  0.00    +0.018 A 
ATOM     38  C   UNL     1     -13.884  -8.003   0.328  0.00  0.00    +0.058 A 
ATOM     39  F   UNL     1     -12.283  -5.736   3.382  0.00  0.00    -0.205 F 
BRANCH  38  40
ATOM     40  C   UNL     1     -14.459  -8.810  -0.762  0.00  0.00    +0.243 C 
ATOM     41  O   UNL     1     -13.922  -8.831  -1.853  0.00  0.00    -0.270 OA
ATOM     42  N   UNL     1     -15.581  -9.527  -0.550  0.00  0.00    -0.325 N 
ATOM     43  H   UNL     1     -16.009  -9.511   0.321  0.00  0.00    +0.145 HD
ATOM     44  H   UNL     1     -15.959 -10.059  -1.267  0.00  0.00    +0.145 HD
ENDBRANCH  38  40
ENDBRANCH  31  33
ENDBRANCH  10  31
TORSDOF 8
