REMARK  Name = CHEMBL480544
REMARK  5 active torsions:
REMARK  status: ('A' for Active; 'I' for Inactive)
REMARK    1  A    between atoms: C_8  and  C_24
REMARK    2  A    between atoms: C_9  and  C_10
REMARK    3  A    between atoms: N_16  and  C_17
REMARK    4  A    between atoms: C_28  and  C_30
REMARK    5  A    between atoms: N_32  and  C_33
REMARK                            x       y       z     vdW  Elec       q    Type
REMARK                         _______ _______ _______ _____ _____    ______ ____
ROOT
ATOM      1  C   UNL     1       2.095   2.262   2.913  0.00  0.00    +0.005 A 
ATOM      2  C   UNL     1       3.307   2.710   2.365  0.00  0.00    +0.018 A 
ATOM      3  C   UNL     1       4.205   1.823   1.884  0.00  0.00    +0.093 A 
ATOM      4  N   UNL     1       3.948   0.485   1.923  0.00  0.00    -0.297 N 
ATOM      5  C   UNL     1       2.775   0.016   2.451  0.00  0.00    +0.139 A 
ATOM      6  C   UNL     1       1.828   0.928   2.957  0.00  0.00    +0.047 A 
ATOM      7  N   UNL     1       2.770  -1.309   2.370  0.00  0.00    -0.227 NA
ATOM      8  C   UNL     1       3.905  -1.729   1.805  0.00  0.00    +0.099 A 
ATOM      9  C   UNL     1       4.675  -0.610   1.509  0.00  0.00    +0.100 A 
ENDROOT
BRANCH   9  10
ATOM     10  C   UNL     1       6.004  -0.597   0.878  0.00  0.00    +0.095 A 
ATOM     11  C   UNL     1       6.449   0.534   0.176  0.00  0.00    +0.050 A 
ATOM     12  C   UNL     1       7.704   0.498  -0.398  0.00  0.00    +0.116 A 
ATOM     13  N   UNL     1       8.445  -0.594  -0.272  0.00  0.00    -0.223 NA
ATOM     14  C   UNL     1       8.002  -1.649   0.397  0.00  0.00    +0.220 A 
ATOM     15  N   UNL     1       6.808  -1.659   0.969  0.00  0.00    -0.213 NA
ATOM     16  N   UNL     1       8.811  -2.768   0.504  0.00  0.00    -0.284 N 
ATOM     17  H   UNL     1       8.469  -3.576   0.918  0.00  0.00    +0.155 HD
BRANCH  16  18
ATOM     18  C   UNL     1      10.120  -2.734   0.015  0.00  0.00    +0.036 A 
ATOM     19  C   UNL     1      10.887  -1.585   0.161  0.00  0.00    +0.023 A 
ATOM     20  C   UNL     1      12.181  -1.553  -0.322  0.00  0.00    +0.005 A 
ATOM     21  C   UNL     1      12.713  -2.663  -0.951  0.00  0.00    +0.038 A 
ATOM     22  C   UNL     1      11.952  -3.810  -1.099  0.00  0.00    +0.125 A 
ATOM     23  C   UNL     1      10.658  -3.850  -0.611  0.00  0.00    +0.061 A 
ATOM     24  F   UNL     1      12.475  -4.893  -1.715  0.00  0.00    -0.205 F 
ENDBRANCH  16  18
ENDBRANCH   9  10
BRANCH   8  25
ATOM     25  C   UNL     1       4.279  -3.139   1.540  0.00  0.00    +0.003 A 
ATOM     26  C   UNL     1       5.021  -3.464   0.405  0.00  0.00    +0.010 A 
ATOM     27  C   UNL     1       5.370  -4.777   0.156  0.00  0.00    +0.001 A 
ATOM     28  C   UNL     1       4.988  -5.776   1.029  0.00  0.00    +0.013 A 
ATOM     29  C   UNL     1       4.244  -5.464   2.169  0.00  0.00    +0.038 A 
ATOM     30  C   UNL     1       3.894  -4.140   2.427  0.00  0.00    +0.023 A 
BRANCH  29  31
ATOM     31  C   UNL     1       3.834  -6.535   3.102  0.00  0.00    +0.248 C 
ATOM     32  O   UNL     1       3.187  -6.261   4.094  0.00  0.00    -0.270 OA
ATOM     33  N   UNL     1       4.178  -7.814   2.853  0.00  0.00    -0.277 N 
ATOM     34  H   UNL     1       4.735  -8.026   2.089  0.00  0.00    +0.155 HD
BRANCH  33  35
ATOM     35  C   UNL     1       3.730  -8.837   3.700  0.00  0.00    +0.105 A 
ATOM     36  C   UNL     1       2.481  -8.746   4.302  0.00  0.00    +0.147 A 
ATOM     37  C   UNL     1       2.042  -9.758   5.137  0.00  0.00    +0.040 A 
ATOM     38  C   UNL     1       2.845 -10.859   5.372  0.00  0.00    +0.006 A 
ATOM     39  C   UNL     1       4.088 -10.953   4.775  0.00  0.00    +0.040 A 
ATOM     40  C   UNL     1       4.531  -9.948   3.934  0.00  0.00    +0.147 A 
ATOM     41  F   UNL     1       5.744 -10.043   3.346  0.00  0.00    -0.203 F 
ATOM     42  F   UNL     1       1.696  -7.670   4.073  0.00  0.00    -0.203 F 
ENDBRANCH  33  35
ENDBRANCH  29  31
ENDBRANCH   8  25
TORSDOF 5
