REMARK  Name = CHEMBL584355
REMARK  2 active torsions:
REMARK  status: ('A' for Active; 'I' for Inactive)
REMARK    1  A    between atoms: C_14  and  C_16
REMARK    2  A    between atoms: C_27  and  C_31
REMARK                            x       y       z     vdW  Elec       q    Type
REMARK                         _______ _______ _______ _____ _____    ______ ____
ROOT
ATOM      1  C   UNL     1      -0.016   1.356   0.009  0.00  0.00    +0.022 A 
ATOM      2  C   UNL     1       1.305   1.802  -0.001  0.00  0.00    +0.032 A 
ATOM      3  C   UNL     1       2.108   0.676  -0.014  0.00  0.00    +0.103 A 
ATOM      4  C   UNL     1       3.507   0.474  -0.029  0.00  0.00    +0.153 A 
ATOM      5  N   UNL     1       3.983  -0.760  -0.041  0.00  0.00    -0.198 NA
ATOM      6  C   UNL     1       3.171  -1.822  -0.039  0.00  0.00    +0.213 A 
ATOM      7  N   UNL     1       1.865  -1.701  -0.026  0.00  0.00    -0.264 N 
ATOM      8  N   UNL     1       1.279  -0.427  -0.013  0.00  0.00    -0.257 N 
ATOM      9  C   UNL     1       0.002  -0.004   0.002  0.00  0.00    +0.111 A 
ATOM     10  N   UNL     1       3.728  -3.094  -0.051  0.00  0.00    -0.288 N 
ATOM     11  C   UNL     1       2.975  -4.361  -0.058  0.00  0.00    +0.109 C 
ATOM     12  C   UNL     1       3.945  -5.395  -0.683  0.00  0.00    +0.021 C 
ATOM     13  C   UNL     1       5.308  -4.935  -0.102  0.00  0.00    +0.033 C 
ATOM     14  C   UNL     1       5.166  -3.399  -0.067  0.00  0.00    +0.162 C 
ATOM     15  N   UNL     1       4.368   1.553  -0.032  0.00  0.00    -0.281 N 
ATOM     16  C   UNL     1       5.753   1.345  -0.047  0.00  0.00    +0.146 A 
ATOM     17  C   UNL     1       6.399   0.098  -0.065  0.00  0.00    +0.068 A 
ATOM     18  C   UNL     1       7.733   0.322  -0.076  0.00  0.00    +0.041 A 
ATOM     19  N   UNL     1       7.928   1.657  -0.065  0.00  0.00    -0.280 N 
ATOM     20  H   UNL     1       8.788   2.108  -0.069  0.00  0.00    +0.189 HD
ATOM     21  N   UNL     1       6.673   2.280  -0.051  0.00  0.00    -0.158 NA
ATOM     22  H   UNL     1       4.014   2.456  -0.024  0.00  0.00    +0.155 HD
ATOM     23  H   UNL     1       1.305  -2.493  -0.025  0.00  0.00    +0.190 HD
ENDROOT
BRANCH  14  24
ATOM     24  C   UNL     1       5.805  -2.795  -1.291  0.00  0.00    +0.239 C 
ATOM     25  O   UNL     1       5.130  -2.167  -2.080  0.00  0.00    -0.273 OA
ATOM     26  N   UNL     1       7.125  -2.952  -1.509  0.00  0.00    -0.263 N 
ATOM     27  C   UNL     1       7.715  -2.394  -2.638  0.00  0.00    +0.164 A 
ATOM     28  N   UNL     1       7.148  -1.685  -3.590  0.00  0.00    -0.233 NA
ATOM     29  C   UNL     1       7.852  -1.222  -4.606  0.00  0.00    +0.120 A 
ATOM     30  C   UNL     1       9.176  -1.511  -4.622  0.00  0.00    +0.068 A 
ATOM     31  S   UNL     1       9.327  -2.458  -3.115  0.00  0.00    -0.061 S 
ATOM     32  H   UNL     1       7.665  -3.454  -0.878  0.00  0.00    +0.157 HD
ENDBRANCH  14  24
BRANCH  18  33
ATOM     33  C   UNL     1       8.809  -0.732  -0.097  0.00  0.00    +0.037 C 
ATOM     34  C   UNL     1      10.112  -0.426   0.645  0.00  0.00    +0.010 C 
ATOM     35  C   UNL     1      10.085  -0.425  -0.884  0.00  0.00    +0.010 C 
ENDBRANCH  18  33
TORSDOF 2
