REMARK  Name = CHEMBL249295
REMARK  5 active torsions:
REMARK  status: ('A' for Active; 'I' for Inactive)
REMARK    1  A    between atoms: C_1  and  N_2
REMARK    2  A    between atoms: N_5  and  C_8
REMARK    3  A    between atoms: C_10  and  C_12
REMARK    4  A    between atoms: C_14  and  C_22
REMARK    5  A    between atoms: C_28  and  C_32
REMARK                            x       y       z     vdW  Elec       q    Type
REMARK                         _______ _______ _______ _____ _____    ______ ____
ROOT
ATOM      1  C   UNL     1      -2.262  -6.053   3.501  0.00  0.00    +0.118 A 
ATOM      2  N   UNL     1      -2.154  -7.288   3.082  0.00  0.00    -0.231 NA
ATOM      3  C   UNL     1      -2.195  -8.128   4.129  0.00  0.00    +0.100 A 
ATOM      4  C   UNL     1      -2.339  -7.349   5.271  0.00  0.00    +0.113 A 
ATOM      5  N   UNL     1      -2.373  -6.037   4.842  0.00  0.00    -0.298 N 
ATOM      6  C   UNL     1      -2.504  -5.038   5.779  0.00  0.00    +0.113 A 
ATOM      7  C   UNL     1      -2.594  -5.353   7.085  0.00  0.00    +0.131 A 
ATOM      8  N   UNL     1      -2.558  -6.624   7.505  0.00  0.00    -0.237 NA
ATOM      9  C   UNL     1      -2.442  -7.624   6.651  0.00  0.00    +0.142 A 
ATOM     10  N   UNL     1      -2.406  -8.931   7.107  0.00  0.00    -0.341 N 
ATOM     11  H   UNL     1      -2.024  -9.628   6.552  0.00  0.00    +0.144 HD
ATOM     12  H   UNL     1      -2.763  -9.149   7.983  0.00  0.00    +0.144 HD
ENDROOT
BRANCH   3  13
ATOM     13  C   UNL     1      -2.104  -9.603   4.077  0.00  0.00    +0.005 A 
ATOM     14  C   UNL     1      -2.999 -10.383   4.830  0.00  0.00    +0.011 A 
ATOM     15  C   UNL     1      -2.934 -11.739   4.798  0.00  0.00    +0.010 A 
ATOM     16  C   UNL     1      -1.966 -12.378   4.004  0.00  0.00    +0.000 A 
ATOM     17  C   UNL     1      -1.880 -13.783   3.954  0.00  0.00    +0.012 A 
ATOM     18  C   UNL     1      -0.919 -14.346   3.166  0.00  0.00    +0.029 A 
ATOM     19  C   UNL     1      -0.049 -13.526   2.432  0.00  0.00    +0.072 A 
ATOM     20  N   UNL     1      -0.135 -12.210   2.483  0.00  0.00    -0.247 NA
ATOM     21  C   UNL     1      -1.057 -11.604   3.238  0.00  0.00    +0.072 A 
ATOM     22  C   UNL     1      -1.143 -10.204   3.281  0.00  0.00    +0.038 A 
BRANCH  19  23
ATOM     23  C   UNL     1       0.990 -14.152   1.579  0.00  0.00    +0.000 A 
ATOM     24  C   UNL     1       1.093 -15.540   1.507  0.00  0.00    +0.010 A 
ATOM     25  C   UNL     1       2.062 -16.117   0.711  0.00  0.00    +0.001 A 
ATOM     26  C   UNL     1       2.930 -15.320  -0.014  0.00  0.00    +0.000 A 
ATOM     27  C   UNL     1       2.833 -13.942   0.054  0.00  0.00    +0.001 A 
ATOM     28  C   UNL     1       1.864 -13.354   0.842  0.00  0.00    +0.010 A 
ENDBRANCH  19  23
ENDBRANCH   3  13
BRANCH   1  31
ATOM     29  C   UNL     1      -2.379  -4.255   0.582  0.00  0.00    -0.067 C 
ATOM     30  C   UNL     1      -3.400  -4.813   1.588  0.00  0.00    -0.004 C 
ATOM     31  C   UNL     1      -2.256  -4.833   2.617  0.00  0.00    +0.053 C 
ATOM     32  C   UNL     1      -1.291  -4.941   1.425  0.00  0.00    -0.004 C 
BRANCH  29  37
ATOM     33  C   UNL     1      -1.881   1.188  -0.786  0.00  0.00    +0.104 C 
ATOM     34  N   UNL     1      -1.977  -0.277  -0.737  0.00  0.00    -0.309 NA
ATOM     35  C   UNL     1      -3.286  -0.702  -0.221  0.00  0.00    +0.065 C 
ATOM     36  C   UNL     1      -3.367  -2.230  -0.241  0.00  0.00    -0.063 C 
ATOM     37  N   UNL     1      -2.290  -2.788   0.587  0.00  0.00    +0.383 N 
ATOM     38  C   UNL     1      -0.989  -2.375   0.045  0.00  0.00    -0.063 C 
ATOM     39  C   UNL     1      -0.888  -0.849   0.068  0.00  0.00    +0.065 C 
ATOM     40  H   UNL     1      -2.384  -2.449   1.533  0.00  0.00    -0.081 HD
ENDBRANCH  29  37
ENDBRANCH   1  31
TORSDOF 4
