REMARK  Name = CHEMBL589081
REMARK  5 active torsions:
REMARK  status: ('A' for Active; 'I' for Inactive)
REMARK    1  A    between atoms: C_3  and  C_6
REMARK    2  A    between atoms: C_6  and  C_7
REMARK    3  A    between atoms: C_11  and  C_16
REMARK    4  A    between atoms: N_23  and  C_25
REMARK    5  A    between atoms: C_28  and  N_31
REMARK                            x       y       z     vdW  Elec       q    Type
REMARK                         _______ _______ _______ _____ _____    ______ ____
ROOT
ATOM      1  C   UNL     1       7.245   1.069   6.536  0.00  0.00    +0.105 A 
ATOM      2  C   UNL     1       7.934   1.803   7.597  0.00  0.00    +0.086 A 
ATOM      3  C   UNL     1       8.205   3.158   7.853  0.00  0.00    +0.131 A 
ATOM      4  N   UNL     1       8.881   3.469   8.954  0.00  0.00    -0.220 NA
ATOM      5  C   UNL     1       9.290   2.532   9.791  0.00  0.00    +0.225 A 
ATOM      6  N   UNL     1       9.060   1.252   9.592  0.00  0.00    -0.216 NA
ATOM      7  C   UNL     1       8.390   0.841   8.516  0.00  0.00    +0.164 A 
ATOM      8  N   UNL     1       8.002  -0.376   8.041  0.00  0.00    -0.243 N 
ATOM      9  N   UNL     1       7.304  -0.206   6.840  0.00  0.00    -0.168 NA
ATOM     10  N   UNL     1       7.780   4.142   6.981  0.00  0.00    -0.342 N 
ATOM     11  H   UNL     1       7.099   3.943   6.319  0.00  0.00    +0.144 HD
ATOM     12  H   UNL     1       8.162   5.032   7.032  0.00  0.00    +0.144 HD
ENDROOT
BRANCH   1  17
ATOM     13  C   UNL     1       6.147   4.455   1.614  0.00  0.00    -0.060 C 
ATOM     14  C   UNL     1       7.061   4.246   2.544  0.00  0.00    +0.008 C 
ATOM     15  C   UNL     1       6.627   3.201   3.490  0.00  0.00    -0.021 A 
ATOM     16  C   UNL     1       7.242   2.650   4.615  0.00  0.00    +0.018 A 
ATOM     17  C   UNL     1       6.593   1.657   5.341  0.00  0.00    +0.003 A 
ATOM     18  C   UNL     1       5.331   1.213   4.946  0.00  0.00    +0.010 A 
ATOM     19  C   UNL     1       4.724   1.761   3.832  0.00  0.00    +0.005 A 
ATOM     20  C   UNL     1       5.362   2.744   3.110  0.00  0.00    -0.036 A 
ATOM     21  C   UNL     1       4.980   3.533   1.880  0.00  0.00    +0.066 C 
BRANCH  13  22
ATOM     22  C   UNL     1       6.247   5.447   0.484  0.00  0.00    +0.073 C 
BRANCH  22  25
ATOM     23  C   UNL     1       6.763   3.559  -2.784  0.00  0.00    +0.008 A 
ATOM     24  C   UNL     1       6.070   4.133  -1.735  0.00  0.00    +0.011 A 
ATOM     25  C   UNL     1       6.765   4.753  -0.750  0.00  0.00    -0.006 A 
ATOM     26  S   UNL     1       8.451   4.534  -1.293  0.00  0.00    -0.101 S 
ATOM     27  C   UNL     1       8.117   3.632  -2.796  0.00  0.00    +0.045 A 
ENDBRANCH  22  25
ENDBRANCH  13  22
ENDBRANCH   1  17
BRANCH   8  28
ATOM     28  C   UNL     1       8.269  -1.663   8.689  0.00  0.00    +0.109 C 
ATOM     29  C   UNL     1       9.091  -2.546   7.749  0.00  0.00    +0.025 C 
ATOM     30  C   UNL     1       9.370  -3.890   8.426  0.00  0.00    -0.013 C 
ATOM     31  C   UNL     1       8.045  -4.583   8.749  0.00  0.00    -0.068 C 
ATOM     32  C   UNL     1       7.223  -3.699   9.689  0.00  0.00    -0.013 C 
ATOM     33  C   UNL     1       6.944  -2.356   9.012  0.00  0.00    +0.025 C 
BRANCH  31  34
ATOM     34  N   UNL     1       8.313  -5.873   9.399  0.00  0.00    +0.385 N 
ATOM     35  C   UNL     1       9.102  -6.722   8.495  0.00  0.00    -0.050 C 
ATOM     36  C   UNL     1       9.380  -8.066   9.175  0.00  0.00    +0.141 C 
ATOM     37  O   UNL     1       8.138  -8.683   9.526  0.00  0.00    -0.383 OA
ATOM     38  C   UNL     1       7.323  -7.883  10.387  0.00  0.00    +0.141 C 
ATOM     39  C   UNL     1       7.041  -6.539   9.709  0.00  0.00    -0.050 C 
ATOM     40  H   UNL     1       8.829  -5.719  10.252  0.00  0.00    -0.081 HD
ENDBRANCH  31  34
ENDBRANCH   8  28
TORSDOF 5
