REMARK  Name = CHEMBL1222710
REMARK  4 active torsions:
REMARK  status: ('A' for Active; 'I' for Inactive)
REMARK    1  A    between atoms: C_6  and  C_10
REMARK    2  A    between atoms: C_16  and  C_18
REMARK    3  A    between atoms: N_25  and  C_26
REMARK    4  A    between atoms: C_28  and  C_32
REMARK                            x       y       z     vdW  Elec       q    Type
REMARK                         _______ _______ _______ _____ _____    ______ ____
ROOT
ATOM      1  C   UNL     1      -0.086   1.338   0.057  0.00  0.00    +0.022 A 
ATOM      2  C   UNL     1       1.232   1.798   0.037  0.00  0.00    +0.033 A 
ATOM      3  C   UNL     1       2.046   0.682   0.011  0.00  0.00    +0.105 A 
ATOM      4  C   UNL     1       3.446   0.492  -0.016  0.00  0.00    +0.152 A 
ATOM      5  N   UNL     1       3.929  -0.740  -0.037  0.00  0.00    -0.211 NA
ATOM      6  C   UNL     1       3.129  -1.804  -0.033  0.00  0.00    +0.172 A 
ATOM      7  N   UNL     1       1.829  -1.698  -0.008  0.00  0.00    -0.149 NA
ATOM      8  N   UNL     1       1.228  -0.432   0.015  0.00  0.00    -0.235 N 
ATOM      9  C   UNL     1      -0.054  -0.021   0.043  0.00  0.00    +0.113 A 
ATOM     10  N   UNL     1       4.299   1.578  -0.022  0.00  0.00    -0.283 N 
ATOM     11  H   UNL     1       3.939   2.478  -0.006  0.00  0.00    +0.155 HD
ENDROOT
BRANCH   6  12
ATOM     12  C   UNL     1       3.746  -3.178  -0.059  0.00  0.00    +0.146 C 
ATOM     13  C   UNL     1       3.811  -3.697  -1.511  0.00  0.00    +0.032 C 
ATOM     14  C   UNL     1       3.473  -5.204  -1.357  0.00  0.00    +0.021 C 
ATOM     15  C   UNL     1       2.433  -5.173  -0.209  0.00  0.00    +0.109 C 
ATOM     16  N   UNL     1       2.911  -4.116   0.706  0.00  0.00    -0.287 N 
ATOM     17  C   UNL     1       2.630  -4.024   2.021  0.00  0.00    +0.249 C 
ATOM     18  O   UNL     1       3.165  -3.168   2.699  0.00  0.00    -0.270 OA
BRANCH  17  19
ATOM     19  C   UNL     1       1.671  -4.963   2.639  0.00  0.00    +0.055 A 
ATOM     20  C   UNL     1       1.724  -5.234   4.012  0.00  0.00    +0.019 A 
ATOM     21  C   UNL     1       0.805  -6.119   4.542  0.00  0.00    +0.060 A 
ATOM     22  C   UNL     1      -0.133  -6.706   3.705  0.00  0.00    +0.213 A 
ATOM     23  N   UNL     1      -0.159  -6.430   2.413  0.00  0.00    -0.227 NA
ATOM     24  C   UNL     1       0.694  -5.589   1.864  0.00  0.00    +0.127 A 
ATOM     25  F   UNL     1      -1.034  -7.572   4.218  0.00  0.00    -0.184 F 
ENDBRANCH  17  19
ENDBRANCH   6  12
BRANCH  10  26
ATOM     26  C   UNL     1       5.678   1.381  -0.049  0.00  0.00    +0.120 A 
ATOM     27  C   UNL     1       6.320   0.180  -0.073  0.00  0.00    +0.068 A 
ATOM     28  C   UNL     1       7.694   0.428  -0.096  0.00  0.00    +0.068 A 
ATOM     29  N   UNL     1       7.881   1.723  -0.087  0.00  0.00    -0.177 NA
ATOM     30  H   UNL     1       6.469   3.307  -0.057  0.00  0.00    +0.190 HD
ATOM     31  N   UNL     1       6.629   2.351  -0.063  0.00  0.00    -0.264 N 
BRANCH  28  32
ATOM     32  C   UNL     1       8.779  -0.618  -0.125  0.00  0.00    +0.040 C 
ATOM     33  C   UNL     1       8.390  -2.049   0.251  0.00  0.00    +0.010 C 
ATOM     34  C   UNL     1       9.230  -1.206   1.213  0.00  0.00    +0.010 C 
ENDBRANCH  28  32
ENDBRANCH  10  26
TORSDOF 4
