REMARK  Name = CHEMBL514016
REMARK  2 active torsions:
REMARK  status: ('A' for Active; 'I' for Inactive)
REMARK    1  A    between atoms: C_8  and  C_10
REMARK    2  A    between atoms: C_13  and  N_17
REMARK                            x       y       z     vdW  Elec       q    Type
REMARK                         _______ _______ _______ _____ _____    ______ ____
ROOT
ATOM      1  C   UNL     1       2.991  -4.019  -0.065  0.00  0.00    +0.026 A 
ATOM      2  C   UNL     1       2.006  -4.994   0.108  0.00  0.00    +0.014 A 
ATOM      3  C   UNL     1       2.350  -6.327   0.103  0.00  0.00    +0.024 A 
ATOM      4  C   UNL     1       3.677  -6.705  -0.074  0.00  0.00    +0.034 A 
ATOM      5  C   UNL     1       4.662  -5.738  -0.247  0.00  0.00    +0.044 A 
ATOM      6  C   UNL     1       4.323  -4.401  -0.249  0.00  0.00    +0.052 A 
ATOM      7 CL   UNL     1       5.551  -3.194  -0.472  0.00  0.00    -0.083 Cl
ENDROOT
BRANCH   4   8
ATOM      8  N   UNL     1       4.022  -8.056  -0.079  0.00  0.00    -0.299 N 
ATOM      9  C   UNL     1       5.245  -8.458   0.418  0.00  0.00    +0.134 A 
ATOM     10  C   UNL     1       5.663  -9.807   0.316  0.00  0.00    +0.041 A 
ATOM     11  C   UNL     1       4.868 -10.790  -0.285  0.00  0.00    +0.015 A 
ATOM     12  C   UNL     1       5.323 -12.073  -0.354  0.00  0.00    +0.021 A 
ATOM     13  C   UNL     1       6.569 -12.419   0.165  0.00  0.00    +0.043 A 
ATOM     14  C   UNL     1       7.367 -11.485   0.758  0.00  0.00    +0.048 A 
ATOM     15  C   UNL     1       6.930 -10.156   0.846  0.00  0.00    +0.077 A 
ATOM     16  N   UNL     1       7.676  -9.199   1.417  0.00  0.00    -0.235 NA
ATOM     17  C   UNL     1       7.237  -7.965   1.483  0.00  0.00    +0.223 A 
ATOM     18  N   UNL     1       6.063  -7.591   0.998  0.00  0.00    -0.220 NA
ATOM     19 CL   UNL     1       7.113 -14.064   0.058  0.00  0.00    -0.083 Cl
ATOM     20  H   UNL     1       3.401  -8.714  -0.431  0.00  0.00    +0.154 HD
ENDBRANCH   4   8
BRANCH   1  28
ATOM     21  C   UNL     1       0.019   1.367   0.190  0.00  0.00    +0.002 A 
ATOM     22  C   UNL     1       1.177   2.107  -0.007  0.00  0.00    +0.001 A 
ATOM     23  C   UNL     1       2.383   1.449  -0.162  0.00  0.00    +0.017 A 
ATOM     24  C   UNL     1       2.414   0.076  -0.120  0.00  0.00    +0.040 A 
ATOM     25  C   UNL     1       1.251  -0.705   0.078  0.00  0.00    +0.079 A 
ATOM     26  C   UNL     1       0.039   0.009   0.233  0.00  0.00    +0.029 A 
ATOM     27  N   UNL     1       1.440  -2.039   0.096  0.00  0.00    -0.239 NA
ATOM     28  C   UNL     1       2.626  -2.588  -0.060  0.00  0.00    +0.111 A 
ATOM     29  S   UNL     1       3.681  -1.160  -0.265  0.00  0.00    -0.067 S 
ENDBRANCH   1  28
TORSDOF 2
