REMARK  Name = CHEMBL1222791
REMARK  4 active torsions:
REMARK  status: ('A' for Active; 'I' for Inactive)
REMARK    1  A    between atoms: C_6  and  C_10
REMARK    2  A    between atoms: C_15  and  C_17
REMARK    3  A    between atoms: N_19  and  C_20
REMARK    4  A    between atoms: C_30  and  C_34
REMARK                            x       y       z     vdW  Elec       q    Type
REMARK                         _______ _______ _______ _____ _____    ______ ____
ROOT
ATOM      1  C   UNL     1      -0.010   1.368   0.043  0.00  0.00    +0.022 A 
ATOM      2  C   UNL     1       1.313   1.813   0.029  0.00  0.00    +0.033 A 
ATOM      3  C   UNL     1       2.114   0.688   0.009  0.00  0.00    +0.105 A 
ATOM      4  C   UNL     1       3.512   0.481  -0.010  0.00  0.00    +0.152 A 
ATOM      5  N   UNL     1       3.981  -0.756  -0.027  0.00  0.00    -0.213 NA
ATOM      6  C   UNL     1       3.168  -1.811  -0.026  0.00  0.00    +0.156 A 
ATOM      7  N   UNL     1       1.869  -1.690  -0.009  0.00  0.00    -0.151 NA
ATOM      8  N   UNL     1       1.283  -0.416   0.010  0.00  0.00    -0.235 N 
ATOM      9  C   UNL     1       0.006   0.009   0.030  0.00  0.00    +0.113 A 
ATOM     10  N   UNL     1       4.378   1.557  -0.013  0.00  0.00    -0.281 N 
ATOM     11  C   UNL     1       5.761   1.342  -0.032  0.00  0.00    +0.146 A 
ATOM     12  C   UNL     1       6.402   0.093  -0.056  0.00  0.00    +0.068 A 
ATOM     13  C   UNL     1       7.737   0.311  -0.070  0.00  0.00    +0.041 A 
ATOM     14  N   UNL     1       7.938   1.645  -0.054  0.00  0.00    -0.280 N 
ATOM     15  H   UNL     1       8.799   2.092  -0.059  0.00  0.00    +0.189 HD
ATOM     16  N   UNL     1       6.686   2.273  -0.037  0.00  0.00    -0.158 NA
ATOM     17  H   UNL     1       4.027   2.461  -0.000  0.00  0.00    +0.155 HD
ENDROOT
BRANCH   6  18
ATOM     18  C   UNL     1       3.769  -3.192  -0.046  0.00  0.00    +0.071 C 
ATOM     19  C   UNL     1       4.029  -3.635  -1.501  0.00  0.00    +0.012 C 
ATOM     20  C   UNL     1       3.698  -5.148  -1.502  0.00  0.00    +0.001 C 
ATOM     21  C   UNL     1       2.471  -5.231  -0.560  0.00  0.00    +0.013 C 
ATOM     22  C   UNL     1       2.779  -4.207   0.553  0.00  0.00    +0.086 C 
BRANCH  22  23
ATOM     23  C   UNL     1       3.404  -4.901   1.736  0.00  0.00    +0.221 C 
ATOM     24  O   UNL     1       4.533  -4.620   2.077  0.00  0.00    -0.275 OA
ATOM     25  N   UNL     1       2.707  -5.835   2.414  0.00  0.00    -0.284 N 
ATOM     26  H   UNL     1       1.782  -6.011   2.185  0.00  0.00    +0.155 HD
BRANCH  25  27
ATOM     27  C   UNL     1       3.320  -6.550   3.451  0.00  0.00    +0.052 A 
ATOM     28  C   UNL     1       4.259  -5.933   4.276  0.00  0.00    +0.029 A 
ATOM     29  C   UNL     1       4.838  -6.680   5.287  0.00  0.00    +0.061 A 
ATOM     30  C   UNL     1       4.469  -8.006   5.444  0.00  0.00    +0.213 A 
ATOM     31  N   UNL     1       3.576  -8.560   4.645  0.00  0.00    -0.226 NA
ATOM     32  C   UNL     1       2.998  -7.881   3.674  0.00  0.00    +0.137 A 
ATOM     33  F   UNL     1       5.030  -8.742   6.428  0.00  0.00    -0.184 F 
ENDBRANCH  25  27
ENDBRANCH  22  23
ENDBRANCH   6  18
BRANCH  13  34
ATOM     34  C   UNL     1       8.809  -0.748  -0.096  0.00  0.00    +0.037 C 
ATOM     35  C   UNL     1      10.114  -0.450   0.643  0.00  0.00    +0.010 C 
ATOM     36  C   UNL     1      10.083  -0.443  -0.886  0.00  0.00    +0.010 C 
ENDBRANCH  13  34
TORSDOF 4
