REMARK  Name = CHEMBL1222855
REMARK  5 active torsions:
REMARK  status: ('A' for Active; 'I' for Inactive)
REMARK    1  A    between atoms: C_6  and  C_10
REMARK    2  A    between atoms: C_10  and  N_11
REMARK    3  A    between atoms: C_12  and  C_14
REMARK    4  A    between atoms: N_21  and  C_22
REMARK    5  A    between atoms: C_24  and  C_28
REMARK                            x       y       z     vdW  Elec       q    Type
REMARK                         _______ _______ _______ _____ _____    ______ ____
ROOT
ATOM      1  C   UNL     1      -0.016   1.355   0.009  0.00  0.00    +0.022 A 
ATOM      2  C   UNL     1       1.306   1.802  -0.001  0.00  0.00    +0.033 A 
ATOM      3  C   UNL     1       2.108   0.678  -0.014  0.00  0.00    +0.105 A 
ATOM      4  C   UNL     1       3.507   0.474  -0.029  0.00  0.00    +0.152 A 
ATOM      5  N   UNL     1       3.979  -0.762  -0.041  0.00  0.00    -0.212 NA
ATOM      6  C   UNL     1       3.168  -1.818  -0.039  0.00  0.00    +0.169 A 
ATOM      7  N   UNL     1       1.869  -1.700  -0.025  0.00  0.00    -0.150 NA
ATOM      8  N   UNL     1       1.280  -0.427  -0.013  0.00  0.00    -0.235 N 
ATOM      9  C   UNL     1       0.002  -0.004   0.002  0.00  0.00    +0.113 A 
ATOM     10  N   UNL     1       4.371   1.552  -0.032  0.00  0.00    -0.283 N 
ATOM     11  H   UNL     1       4.019   2.456  -0.024  0.00  0.00    +0.155 HD
ENDROOT
BRANCH  10  12
ATOM     12  C   UNL     1       5.748   1.341  -0.047  0.00  0.00    +0.120 A 
ATOM     13  C   UNL     1       6.378   0.134  -0.059  0.00  0.00    +0.068 A 
ATOM     14  C   UNL     1       7.755   0.370  -0.072  0.00  0.00    +0.068 A 
ATOM     15  N   UNL     1       7.954   1.663  -0.067  0.00  0.00    -0.177 NA
ATOM     16  H   UNL     1       6.557   3.260  -0.056  0.00  0.00    +0.190 HD
ATOM     17  N   UNL     1       6.708   2.302  -0.057  0.00  0.00    -0.264 N 
BRANCH  14  18
ATOM     18  C   UNL     1       8.830  -0.687  -0.087  0.00  0.00    +0.040 C 
ATOM     19  C   UNL     1       8.424  -2.113   0.292  0.00  0.00    +0.010 C 
ATOM     20  C   UNL     1       9.264  -1.273   1.258  0.00  0.00    +0.010 C 
ENDBRANCH  14  18
ENDBRANCH  10  12
BRANCH   6  21
ATOM     21  C   UNL     1       3.772  -3.199  -0.053  0.00  0.00    +0.182 C 
BRANCH  21  22
ATOM     22  N   UNL     1       2.702  -4.200  -0.048  0.00  0.00    -0.304 N 
ATOM     23  C   UNL     1       3.008  -5.512  -0.059  0.00  0.00    +0.246 C 
ATOM     24  O   UNL     1       4.171  -5.865  -0.073  0.00  0.00    -0.270 OA
ATOM     25  H   UNL     1       1.774  -3.918  -0.037  0.00  0.00    +0.149 HD
BRANCH  23  26
ATOM     26  C   UNL     1       1.929  -6.522  -0.054  0.00  0.00    +0.055 A 
ATOM     27  C   UNL     1       2.235  -7.890  -0.059  0.00  0.00    +0.019 A 
ATOM     28  C   UNL     1       1.190  -8.794  -0.053  0.00  0.00    +0.060 A 
ATOM     29  C   UNL     1      -0.115  -8.324  -0.043  0.00  0.00    +0.213 A 
ATOM     30  N   UNL     1      -0.372  -7.028  -0.038  0.00  0.00    -0.227 NA
ATOM     31  C   UNL     1       0.591  -6.129  -0.038  0.00  0.00    +0.127 A 
ATOM     32  F   UNL     1      -1.139  -9.205  -0.038  0.00  0.00    -0.184 F 
ENDBRANCH  23  26
ENDBRANCH  21  22
ENDBRANCH   6  21
TORSDOF 5
