REMARK  Name = CHEMBL239360
REMARK  9 active torsions:
REMARK  status: ('A' for Active; 'I' for Inactive)
REMARK    1  A    between atoms: C_1  and  N_2
REMARK    2  A    between atoms: N_2  and  C_3
REMARK    3  A    between atoms: N_2  and  N_32
REMARK    4  A    between atoms: C_3  and  C_4
REMARK    5  A    between atoms: C_6  and  C_8
REMARK    6  A    between atoms: C_10  and  C_18
REMARK    7  A    between atoms: C_22  and  O_24
REMARK    8  A    between atoms: O_24  and  C_25
REMARK    9  A    between atoms: C_25  and  C_26
REMARK                            x       y       z     vdW  Elec       q    Type
REMARK                         _______ _______ _______ _____ _____    ______ ____
ROOT
ATOM      1  C   UNL     1      -0.793  -3.465   4.747  0.00  0.00    +0.101 C 
ATOM      2  N   UNL     1      -1.187  -4.482   4.061  0.00  0.00    -0.262 NA
ATOM      3  C   UNL     1      -2.272  -5.183   4.768  0.00  0.00    +0.165 C 
ATOM      4  C   UNL     1      -2.573  -4.270   5.966  0.00  0.00    +0.169 C 
ATOM      5  N   UNL     1      -1.429  -3.323   5.930  0.00  0.00    -0.281 N 
ATOM      6  C   UNL     1      -1.121  -2.549   7.052  0.00  0.00    +0.094 C 
ATOM      7  C   UNL     1      -1.373  -3.148   8.234  0.00  0.00    +0.099 C 
ATOM      8  N   UNL     1      -1.858  -4.418   8.282  0.00  0.00    -0.351 N 
ATOM      9  C   UNL     1      -2.440  -5.007   7.276  0.00  0.00    +0.093 C 
ATOM     10  N   UNL     1      -2.916  -6.288   7.406  0.00  0.00    -0.346 N 
ATOM     11  H   UNL     1      -3.564  -6.632   6.772  0.00  0.00    +0.143 HD
ATOM     12  H   UNL     1      -2.603  -6.850   8.133  0.00  0.00    +0.143 HD
ATOM     13  H   UNL     1      -1.770  -4.910   9.113  0.00  0.00    +0.166 HD
ENDROOT
BRANCH   3  14
ATOM     14  C   UNL     1      -1.809  -6.538   5.238  0.00  0.00    -0.017 A 
ATOM     15  C   UNL     1      -2.606  -7.649   5.034  0.00  0.00    +0.006 A 
ATOM     16  C   UNL     1      -2.184  -8.894   5.464  0.00  0.00    +0.004 A 
ATOM     17  C   UNL     1      -0.965  -9.030   6.099  0.00  0.00    +0.045 A 
ATOM     18  C   UNL     1      -0.164  -7.917   6.305  0.00  0.00    +0.121 A 
ATOM     19  C   UNL     1      -0.586  -6.670   5.867  0.00  0.00    +0.051 A 
BRANCH  18  20
ATOM     20  O   UNL     1       1.036  -8.048   6.929  0.00  0.00    -0.487 OA
BRANCH  20  21
ATOM     21  C   UNL     1       1.409  -9.362   7.348  0.00  0.00    +0.264 C 
BRANCH  21  22
ATOM     22  C   UNL     1       2.760  -9.312   8.015  0.00  0.00    -0.010 A 
ATOM     23  C   UNL     1       3.909  -9.470   7.264  0.00  0.00    +0.007 A 
ATOM     24  C   UNL     1       5.147  -9.424   7.876  0.00  0.00    +0.000 A 
ATOM     25  C   UNL     1       5.236  -9.221   9.241  0.00  0.00    +0.000 A 
ATOM     26  C   UNL     1       4.087  -9.062   9.992  0.00  0.00    +0.000 A 
ATOM     27  C   UNL     1       2.849  -9.104   9.379  0.00  0.00    +0.007 A 
ENDBRANCH  21  22
ENDBRANCH  20  21
ENDBRANCH  18  20
ENDBRANCH   3  14
BRANCH   1  30
ATOM     28  C   UNL     1       1.956  -2.425   2.978  0.00  0.00    +0.006 C 
ATOM     29  C   UNL     1       0.437  -2.476   2.747  0.00  0.00    +0.016 C 
ATOM     30  C   UNL     1       0.285  -2.523   4.276  0.00  0.00    +0.053 C 
ATOM     31  C   UNL     1       1.697  -3.131   4.319  0.00  0.00    +0.016 C 
BRANCH  28  32
ATOM     32  C   UNL     1       2.506  -1.005   3.129  0.00  0.00    +0.105 C 
BRANCH  32  34
ATOM     33  C   UNL     1       3.288   0.929   1.901  0.00  0.00    +0.124 C 
ATOM     34  N   UNL     1       2.841  -0.466   1.804  0.00  0.00    -0.243 NA
BRANCH  34  35
ATOM     35  N   UNL     1       3.842  -1.290   1.145  0.00  0.00    -0.244 NA
ATOM     36  C   UNL     1       3.929  -0.967  -0.286  0.00  0.00    +0.083 C 
ATOM     37  C   UNL     1       4.948  -1.893  -0.954  0.00  0.00    -0.066 C 
ATOM     38  N   UNL     1       6.259  -1.722  -0.314  0.00  0.00    +0.381 N 
ATOM     39  C   UNL     1       6.161  -2.072   1.109  0.00  0.00    -0.066 C 
ATOM     40  C   UNL     1       5.152  -1.146   1.794  0.00  0.00    +0.083 C 
ATOM     41  H   UNL     1       6.933  -2.324  -0.762  0.00  0.00    -0.086 HD
ATOM     42  H   UNL     1       6.554  -0.761  -0.405  0.00  0.00    -0.086 HD
ENDBRANCH  34  35
ENDBRANCH  32  34
ENDBRANCH  28  32
ENDBRANCH   1  30
TORSDOF 8
