REMARK  Name = CHEMBL467136
REMARK  8 active torsions:
REMARK  status: ('A' for Active; 'I' for Inactive)
REMARK    1  A    between atoms: C_1  and  O_2
REMARK    2  A    between atoms: O_2  and  C_3
REMARK    3  A    between atoms: C_8  and  N_9
REMARK    4  A    between atoms: C_18  and  N_20
REMARK    5  A    between atoms: N_20  and  C_21
REMARK    6  A    between atoms: C_26  and  C_27
REMARK    7  A    between atoms: C_35  and  C_37
REMARK    8  A    between atoms: C_37  and  N_38
REMARK                            x       y       z     vdW  Elec       q    Type
REMARK                         _______ _______ _______ _____ _____    ______ ____
ROOT
ATOM      1  N   UNL     1      -0.119  -2.455  -0.192  0.00  0.00    -0.281 N 
ATOM      2  C   UNL     1      -0.765  -3.652  -0.459  0.00  0.00    +0.223 A 
ATOM      3  N   UNL     1      -0.681  -4.162  -1.676  0.00  0.00    -0.196 NA
ATOM      4  C   UNL     1      -1.288  -5.310  -1.975  0.00  0.00    +0.145 A 
ATOM      5  C   UNL     1      -2.019  -5.968  -0.968  0.00  0.00    +0.059 A 
ATOM      6  C   UNL     1      -2.561  -7.179  -1.583  0.00  0.00    +0.032 A 
ATOM      7  C   UNL     1      -2.148  -7.185  -2.860  0.00  0.00    +0.085 A 
ATOM      8  N   UNL     1      -1.385  -6.071  -3.107  0.00  0.00    -0.346 N 
ATOM      9  H   UNL     1      -0.975  -5.856  -3.959  0.00  0.00    +0.167 HD
ATOM     10  C   UNL     1      -2.081  -5.390   0.309  0.00  0.00    +0.137 A 
ATOM     11  N   UNL     1      -1.440  -4.245   0.518  0.00  0.00    -0.198 NA
ATOM     12  H   UNL     1      -0.111  -2.099   0.710  0.00  0.00    +0.155 HD
ENDROOT
BRANCH   1  18
ATOM     13  C   UNL     1       0.526  -0.368  -1.235  0.00  0.00    +0.142 A 
ATOM     14  C   UNL     1       1.164   0.315  -2.255  0.00  0.00    +0.053 A 
ATOM     15  C   UNL     1       1.799  -0.379  -3.273  0.00  0.00    -0.022 A 
ATOM     16  C   UNL     1       1.795  -1.765  -3.265  0.00  0.00    +0.041 A 
ATOM     17  C   UNL     1       1.153  -2.456  -2.245  0.00  0.00    +0.050 A 
ATOM     18  C   UNL     1       0.523  -1.761  -1.225  0.00  0.00    +0.078 A 
ATOM     19  N   UNL     1       2.439  -2.491  -4.280  0.00  0.00    -0.273 N 
ATOM     20  C   UNL     1       2.856  -1.788  -5.500  0.00  0.00    +0.114 C 
ATOM     21  C   UNL     1       3.517  -0.469  -5.078  0.00  0.00    +0.024 C 
ATOM     22  C   UNL     1       2.478   0.399  -4.369  0.00  0.00    +0.038 C 
ATOM     23  C   UNL     1       2.671  -3.811  -4.136  0.00  0.00    +0.203 C 
ATOM     24  O   UNL     1       2.266  -4.394  -3.153  0.00  0.00    -0.277 OA
BRANCH  13  26
ATOM     25  C   UNL     1      -0.052   1.748  -0.312  0.00  0.00    +0.277 C 
ATOM     26  O   UNL     1      -0.094   0.321  -0.238  0.00  0.00    -0.493 OA
ENDBRANCH  13  26
BRANCH  23  27
ATOM     27  C   UNL     1       3.432  -4.562  -5.198  0.00  0.00    +0.019 C 
BRANCH  27  28
ATOM     28  N   UNL     1       3.551  -5.974  -4.809  0.00  0.00    +0.385 N 
ATOM     29  C   UNL     1       4.362  -6.078  -3.590  0.00  0.00    -0.078 C 
ATOM     30  C   UNL     1       4.421  -7.537  -3.135  0.00  0.00    -0.019 C 
ATOM     31  C   UNL     1       5.051  -8.387  -4.244  0.00  0.00    -0.004 C 
ATOM     32  C   UNL     1       4.239  -8.212  -5.530  0.00  0.00    -0.019 C 
ATOM     33  C   UNL     1       4.187  -6.727  -5.896  0.00  0.00    -0.078 C 
ATOM     34  H   UNL     1       2.632  -6.351  -4.632  0.00  0.00    -0.081 HD
ENDBRANCH  27  28
ENDBRANCH  23  27
ENDBRANCH   1  18
BRANCH  10  35
ATOM     35  N   UNL     1      -2.789  -6.002   1.330  0.00  0.00    -0.298 N 
ATOM     36  H   UNL     1      -3.175  -6.881   1.193  0.00  0.00    +0.154 HD
BRANCH  35  37
ATOM     37  C   UNL     1      -2.947  -5.356   2.551  0.00  0.00    +0.047 A 
ATOM     38  C   UNL     1      -2.874  -3.971   2.622  0.00  0.00    +0.024 A 
ATOM     39  C   UNL     1      -3.030  -3.330   3.835  0.00  0.00    +0.005 A 
ATOM     40  C   UNL     1      -3.260  -4.059   4.990  0.00  0.00    +0.039 A 
ATOM     41  C   UNL     1      -3.335  -5.437   4.941  0.00  0.00    +0.137 A 
ATOM     42  C   UNL     1      -3.186  -6.100   3.717  0.00  0.00    +0.093 A 
ATOM     43  F   UNL     1      -3.559  -6.143   6.070  0.00  0.00    -0.205 F 
BRANCH  42  44
ATOM     44  C   UNL     1      -3.271  -7.569   3.655  0.00  0.00    +0.246 C 
ATOM     45  O   UNL     1      -2.269  -8.243   3.798  0.00  0.00    -0.270 OA
ATOM     46  N   UNL     1      -4.459  -8.167   3.438  0.00  0.00    -0.325 N 
ATOM     47  H   UNL     1      -5.259  -7.629   3.324  0.00  0.00    +0.145 HD
ATOM     48  H   UNL     1      -4.516  -9.134   3.397  0.00  0.00    +0.145 HD
ENDBRANCH  42  44
ENDBRANCH  35  37
ENDBRANCH  10  35
TORSDOF 7
