REMARK  Name = CHEMBL461876
REMARK  10 active torsions:
REMARK  status: ('A' for Active; 'I' for Inactive)
REMARK    1  A    between atoms: C_1  and  N_2
REMARK    2  A    between atoms: N_2  and  C_3
REMARK    3  A    between atoms: N_2  and  C_4
REMARK    4  A    between atoms: C_4  and  C_5
REMARK    5  A    between atoms: C_13  and  N_18
REMARK    6  A    between atoms: C_14  and  O_16
REMARK    7  A    between atoms: O_16  and  C_17
REMARK    8  A    between atoms: C_27  and  N_29
REMARK    9  A    between atoms: N_29  and  C_30
REMARK   10  A    between atoms: C_35  and  C_36
REMARK                            x       y       z     vdW  Elec       q    Type
REMARK                         _______ _______ _______ _____ _____    ______ ____
ROOT
ATOM      1  N   UNL     1      -4.202   1.463  -5.937  0.00  0.00    -0.281 N 
ATOM      2  C   UNL     1      -2.861   1.539  -6.276  0.00  0.00    +0.223 A 
ATOM      3  N   UNL     1      -1.986   0.842  -5.572  0.00  0.00    -0.196 NA
ATOM      4  C   UNL     1      -0.687   0.887  -5.865  0.00  0.00    +0.145 A 
ATOM      5  C   UNL     1      -0.267   1.692  -6.940  0.00  0.00    +0.059 A 
ATOM      6  C   UNL     1       1.186   1.541  -7.019  0.00  0.00    +0.032 A 
ATOM      7  C   UNL     1       1.543   0.697  -6.038  0.00  0.00    +0.085 A 
ATOM      8  N   UNL     1       0.430   0.298  -5.340  0.00  0.00    -0.346 N 
ATOM      9  H   UNL     1       0.436  -0.311  -4.586  0.00  0.00    +0.167 HD
ATOM     10  C   UNL     1      -1.230   2.415  -7.660  0.00  0.00    +0.137 A 
ATOM     11  N   UNL     1      -2.504   2.305  -7.300  0.00  0.00    -0.198 NA
ATOM     12  H   UNL     1      -4.869   1.893  -6.495  0.00  0.00    +0.155 HD
ENDROOT
BRANCH   1  21
ATOM     13  C   UNL     1      -2.078   0.023  -1.219  0.00  0.00    +0.203 C 
ATOM     14  O   UNL     1      -1.485   0.653  -2.068  0.00  0.00    -0.277 OA
ATOM     15  N   UNL     1      -3.353  -0.360  -1.431  0.00  0.00    -0.272 N 
ATOM     16  C   UNL     1      -4.172  -1.116  -0.481  0.00  0.00    +0.118 C 
ATOM     17  C   UNL     1      -5.530  -1.303  -1.178  0.00  0.00    +0.056 C 
ATOM     18  C   UNL     1      -5.370  -0.615  -2.515  0.00  0.00    -0.021 A 
ATOM     19  C   UNL     1      -4.090  -0.088  -2.590  0.00  0.00    +0.041 A 
ATOM     20  C   UNL     1      -3.706   0.605  -3.739  0.00  0.00    +0.050 A 
ATOM     21  C   UNL     1      -4.595   0.766  -4.787  0.00  0.00    +0.078 A 
ATOM     22  C   UNL     1      -5.880   0.236  -4.700  0.00  0.00    +0.142 A 
ATOM     23  C   UNL     1      -6.258  -0.460  -3.564  0.00  0.00    +0.053 A 
BRANCH  22  24
ATOM     24  O   UNL     1      -6.756   0.394  -5.729  0.00  0.00    -0.493 OA
ATOM     25  C   UNL     1      -8.056  -0.178  -5.567  0.00  0.00    +0.277 C 
ENDBRANCH  22  24
BRANCH  13  26
ATOM     26  C   UNL     1      -1.391  -0.331   0.074  0.00  0.00    +0.018 C 
BRANCH  26  28
ATOM     27  C   UNL     1      -0.060   1.665   0.032  0.00  0.00    -0.096 C 
ATOM     28  N   UNL     1      -0.020   0.197   0.060  0.00  0.00    +0.382 N 
ATOM     29  C   UNL     1       0.689  -0.250   1.267  0.00  0.00    -0.096 C 
ATOM     30  H   UNL     1       0.463  -0.143  -0.758  0.00  0.00    -0.082 HD
ENDBRANCH  26  28
ENDBRANCH  13  26
ENDBRANCH   1  21
BRANCH  10  31
ATOM     31  N   UNL     1      -0.861   3.220  -8.725  0.00  0.00    -0.298 N 
ATOM     32  H   UNL     1       0.058   3.225  -9.034  0.00  0.00    +0.154 HD
BRANCH  31  33
ATOM     33  C   UNL     1      -1.809   4.022  -9.351  0.00  0.00    +0.047 A 
ATOM     34  C   UNL     1      -2.944   4.429  -8.661  0.00  0.00    +0.024 A 
ATOM     35  C   UNL     1      -3.885   5.224  -9.283  0.00  0.00    +0.005 A 
ATOM     36  C   UNL     1      -3.708   5.625 -10.597  0.00  0.00    +0.039 A 
ATOM     37  C   UNL     1      -2.587   5.231 -11.301  0.00  0.00    +0.137 A 
ATOM     38  C   UNL     1      -1.621   4.429 -10.681  0.00  0.00    +0.093 A 
ATOM     39  F   UNL     1      -2.420   5.624 -12.582  0.00  0.00    -0.205 F 
BRANCH  38  40
ATOM     40  C   UNL     1      -0.419   4.010 -11.422  0.00  0.00    +0.246 C 
ATOM     41  O   UNL     1      -0.429   2.977 -12.063  0.00  0.00    -0.270 OA
ATOM     42  N   UNL     1       0.692   4.772 -11.390  0.00  0.00    -0.325 N 
ATOM     43  H   UNL     1       0.701   5.596 -10.879  0.00  0.00    +0.145 HD
ATOM     44  H   UNL     1       1.484   4.496 -11.878  0.00  0.00    +0.145 HD
ENDBRANCH  38  40
ENDBRANCH  31  33
ENDBRANCH  10  31
TORSDOF 7
