REMARK  Name = CHEMBL239360
REMARK  9 active torsions:
REMARK  status: ('A' for Active; 'I' for Inactive)
REMARK    1  A    between atoms: C_1  and  N_2
REMARK    2  A    between atoms: N_2  and  C_3
REMARK    3  A    between atoms: N_2  and  N_32
REMARK    4  A    between atoms: C_3  and  C_4
REMARK    5  A    between atoms: C_6  and  C_8
REMARK    6  A    between atoms: C_10  and  C_18
REMARK    7  A    between atoms: C_22  and  O_24
REMARK    8  A    between atoms: O_24  and  C_25
REMARK    9  A    between atoms: C_25  and  C_26
REMARK                            x       y       z     vdW  Elec       q    Type
REMARK                         _______ _______ _______ _____ _____    ______ ____
ROOT
ATOM      1  C   UNL     1      -1.537  -3.421   4.034  0.00  0.00    +0.101 C 
ATOM      2  N   UNL     1      -2.225  -4.398   3.552  0.00  0.00    -0.262 NA
ATOM      3  C   UNL     1      -2.741  -5.243   4.644  0.00  0.00    +0.165 C 
ATOM      4  C   UNL     1      -2.072  -4.662   5.898  0.00  0.00    +0.169 C 
ATOM      5  N   UNL     1      -1.484  -3.401   5.383  0.00  0.00    -0.281 N 
ATOM      6  C   UNL     1      -1.084  -2.399   6.272  0.00  0.00    +0.094 C 
ATOM      7  C   UNL     1      -1.831  -2.311   7.392  0.00  0.00    +0.099 C 
ATOM      8  N   UNL     1      -2.899  -3.132   7.583  0.00  0.00    -0.351 N 
ATOM      9  C   UNL     1      -3.091  -4.245   6.930  0.00  0.00    +0.093 C 
ATOM     10  N   UNL     1      -4.188  -5.031   7.184  0.00  0.00    -0.346 N 
ATOM     11  H   UNL     1      -4.313  -5.861   6.698  0.00  0.00    +0.143 HD
ATOM     12  H   UNL     1      -4.838  -4.755   7.850  0.00  0.00    +0.143 HD
ATOM     13  H   UNL     1      -3.563  -2.871   8.240  0.00  0.00    +0.166 HD
ENDROOT
BRANCH   3  14
ATOM     14  C   UNL     1      -2.331  -6.679   4.441  0.00  0.00    -0.017 A 
ATOM     15  C   UNL     1      -1.071  -6.976   3.955  0.00  0.00    +0.006 A 
ATOM     16  C   UNL     1      -0.692  -8.292   3.769  0.00  0.00    +0.004 A 
ATOM     17  C   UNL     1      -1.572  -9.314   4.067  0.00  0.00    +0.045 A 
ATOM     18  C   UNL     1      -2.837  -9.019   4.555  0.00  0.00    +0.121 A 
ATOM     19  C   UNL     1      -3.212  -7.697   4.747  0.00  0.00    +0.051 A 
BRANCH  18  20
ATOM     20  O   UNL     1      -3.704 -10.023   4.849  0.00  0.00    -0.487 OA
BRANCH  20  21
ATOM     21  C   UNL     1      -3.248 -11.360   4.632  0.00  0.00    +0.264 C 
BRANCH  21  22
ATOM     22  C   UNL     1      -4.336 -12.330   5.011  0.00  0.00    -0.010 A 
ATOM     23  C   UNL     1      -4.416 -12.808   6.306  0.00  0.00    +0.007 A 
ATOM     24  C   UNL     1      -5.415 -13.699   6.653  0.00  0.00    +0.000 A 
ATOM     25  C   UNL     1      -6.334 -14.111   5.707  0.00  0.00    +0.000 A 
ATOM     26  C   UNL     1      -6.255 -13.632   4.412  0.00  0.00    +0.000 A 
ATOM     27  C   UNL     1      -5.258 -12.738   4.066  0.00  0.00    +0.007 A 
ENDBRANCH  21  22
ENDBRANCH  20  21
ENDBRANCH  18  20
ENDBRANCH   3  14
BRANCH   1  30
ATOM     28  C   UNL     1      -0.066  -2.124   1.219  0.00  0.00    +0.006 C 
ATOM     29  C   UNL     1      -1.493  -2.225   1.784  0.00  0.00    +0.016 C 
ATOM     30  C   UNL     1      -0.847  -2.398   3.169  0.00  0.00    +0.053 C 
ATOM     31  C   UNL     1       0.391  -2.943   2.438  0.00  0.00    +0.016 C 
BRANCH  28  32
ATOM     32  C   UNL     1       0.484  -0.696   1.198  0.00  0.00    +0.105 C 
BRANCH  32  34
ATOM     33  C   UNL     1       0.492   1.375  -0.056  0.00  0.00    +0.124 C 
ATOM     34  N   UNL     1       0.093  -0.039  -0.056  0.00  0.00    -0.243 NA
BRANCH  34  35
ATOM     35  N   UNL     1       0.648  -0.736  -1.205  0.00  0.00    -0.244 NA
ATOM     36  C   UNL     1      -0.001  -0.301  -2.449  0.00  0.00    +0.083 C 
ATOM     37  C   UNL     1       0.568  -1.099  -3.624  0.00  0.00    -0.066 C 
ATOM     38  N   UNL     1       2.018  -0.883  -3.707  0.00  0.00    +0.381 N 
ATOM     39  C   UNL     1       2.655  -1.345  -2.467  0.00  0.00    -0.066 C 
ATOM     40  C   UNL     1       2.104  -0.549  -1.282  0.00  0.00    +0.083 C 
ATOM     41  H   UNL     1       2.391  -1.399  -4.489  0.00  0.00    -0.086 HD
ATOM     42  H   UNL     1       2.205   0.101  -3.834  0.00  0.00    -0.086 HD
ENDBRANCH  34  35
ENDBRANCH  32  34
ENDBRANCH  28  32
ENDBRANCH   1  30
TORSDOF 8
