REMARK  Name = CHEMBL231510
REMARK  9 active torsions:
REMARK  status: ('A' for Active; 'I' for Inactive)
REMARK    1  A    between atoms: C_1  and  C_2
REMARK    2  A    between atoms: C_4  and  C_31
REMARK    3  A    between atoms: C_9  and  C_12
REMARK    4  A    between atoms: C_13  and  N_20
REMARK    5  A    between atoms: N_20  and  C_21
REMARK    6  A    between atoms: C_21  and  C_22
REMARK    7  A    between atoms: C_22  and  C_23
REMARK    8  A    between atoms: C_22  and  O_30
REMARK    9  A    between atoms: N_33  and  C_34
REMARK                            x       y       z     vdW  Elec       q    Type
REMARK                         _______ _______ _______ _____ _____    ______ ____
ROOT
ATOM      1  C   UNL     1       0.075  -1.347   4.756  0.00  0.00    +0.102 A 
ATOM      2  C   UNL     1       0.156  -0.126   5.441  0.00  0.00    +0.045 A 
ATOM      3  C   UNL     1       0.157  -0.138   6.849  0.00  0.00    +0.041 A 
ATOM      4  C   UNL     1       0.082  -1.312   7.513  0.00  0.00    +0.088 A 
ATOM      5  N   UNL     1       0.004  -2.495   6.850  0.00  0.00    -0.328 N 
ATOM      6  H   UNL     1      -0.049  -3.321   7.355  0.00  0.00    +0.168 HD
ATOM      7  C   UNL     1      -0.007  -2.543   5.505  0.00  0.00    +0.261 A 
ATOM      8  O   UNL     1      -0.084  -3.618   4.933  0.00  0.00    -0.267 OA
ENDROOT
BRANCH   1  17
ATOM      9  C   UNL     1      -0.048   1.498   0.009  0.00  0.00    +0.046 C 
ATOM     10  C   UNL     1       0.008  -0.008   0.001  0.00  0.00    -0.022 A 
ATOM     11  C   UNL     1       0.035  -0.681  -1.182  0.00  0.00    +0.018 A 
ATOM     12  C   UNL     1       0.087  -2.081  -1.203  0.00  0.00    +0.039 A 
ATOM     13  C   UNL     1       0.112  -2.799  -0.006  0.00  0.00    +0.041 A 
ATOM     14  C   UNL     1       0.085  -2.121   1.198  0.00  0.00    +0.067 A 
ATOM     15  C   UNL     1       0.039  -0.713   1.212  0.00  0.00    +0.092 A 
ATOM     16  N   UNL     1       0.029  -0.326   2.503  0.00  0.00    -0.227 NA
ATOM     17  C   UNL     1       0.071  -1.383   3.285  0.00  0.00    +0.146 A 
ATOM     18  N   UNL     1       0.098  -2.521   2.523  0.00  0.00    -0.338 N 
ATOM     19  H   UNL     1       0.131  -3.433   2.851  0.00  0.00    +0.167 HD
BRANCH  12  20
ATOM     20  C   UNL     1       0.115  -2.798  -2.492  0.00  0.00    +0.244 C 
ATOM     21  O   UNL     1       0.093  -2.174  -3.535  0.00  0.00    -0.270 OA
ATOM     22  N   UNL     1       0.165  -4.145  -2.513  0.00  0.00    -0.308 N 
ATOM     23  H   UNL     1       0.182  -4.643  -1.681  0.00  0.00    +0.149 HD
BRANCH  22  24
ATOM     24  C   UNL     1       0.193  -4.856  -3.793  0.00  0.00    +0.073 C 
ATOM     25  C   UNL     1      -0.698  -6.092  -3.934  0.00  0.00    +0.024 C 
ATOM     26  C   UNL     1       0.818  -6.253  -3.812  0.00  0.00    +0.024 C 
ENDBRANCH  22  24
ENDBRANCH  12  20
ENDBRANCH   1  17
BRANCH   2  27
ATOM     27  N   UNL     1       0.232   1.064   4.750  0.00  0.00    -0.340 N 
ATOM     28  H   UNL     1       0.152   1.069   3.783  0.00  0.00    +0.146 HD
BRANCH  27  29
ATOM     29  C   UNL     1       0.435   2.321   5.474  0.00  0.00    +0.137 C 
BRANCH  29  30
ATOM     30  C   UNL     1       0.483   3.481   4.479  0.00  0.00    +0.161 C 
BRANCH  30  31
ATOM     31  C   UNL     1       0.814   4.757   5.210  0.00  0.00    -0.016 A 
ATOM     32  C   UNL     1      -0.173   5.431   5.904  0.00  0.00    +0.006 A 
ATOM     33  C   UNL     1       0.130   6.601   6.575  0.00  0.00    +0.002 A 
ATOM     34  C   UNL     1       1.420   7.098   6.552  0.00  0.00    +0.020 A 
ATOM     35  C   UNL     1       2.408   6.423   5.857  0.00  0.00    +0.041 A 
ATOM     36  C   UNL     1       2.106   5.249   5.191  0.00  0.00    +0.026 A 
ATOM     37 CL   UNL     1       4.028   7.046   5.828  0.00  0.00    -0.084 Cl
ENDBRANCH  30  31
BRANCH  30  38
ATOM     38  O   UNL     1      -0.788   3.614   3.841  0.00  0.00    -0.386 OA
ATOM     39  H   UNL     1      -1.518   3.791   4.450  0.00  0.00    +0.210 HD
ENDBRANCH  30  38
ENDBRANCH  29  30
ENDBRANCH  27  29
ENDBRANCH   2  27
TORSDOF 8
