REMARK  Name = CHEMBL464347
REMARK  11 active torsions:
REMARK  status: ('A' for Active; 'I' for Inactive)
REMARK    1  A    between atoms: C_1  and  C_2
REMARK    2  A    between atoms: C_2  and  C_3
REMARK    3  A    between atoms: C_3  and  N_4
REMARK    4  A    between atoms: C_7  and  O_10
REMARK    5  A    between atoms: O_10  and  C_11
REMARK    6  A    between atoms: C_14  and  O_39
REMARK    7  A    between atoms: C_15  and  N_17
REMARK    8  A    between atoms: C_26  and  N_28
REMARK    9  A    between atoms: N_28  and  C_29
REMARK   10  A    between atoms: C_34  and  C_35
REMARK   11  A    between atoms: O_39  and  C_40
REMARK                            x       y       z     vdW  Elec       q    Type
REMARK                         _______ _______ _______ _____ _____    ______ ____
ROOT
ATOM      1  N   UNL     1       1.176 -10.191   4.469  0.00  0.00    -0.281 N 
ATOM      2  C   UNL     1       0.633 -10.922   3.425  0.00  0.00    +0.223 A 
ATOM      3  N   UNL     1      -0.153 -10.306   2.558  0.00  0.00    -0.196 NA
ATOM      4  C   UNL     1      -0.696 -10.971   1.540  0.00  0.00    +0.145 A 
ATOM      5  C   UNL     1      -0.415 -12.343   1.405  0.00  0.00    +0.059 A 
ATOM      6  C   UNL     1      -1.138 -12.793   0.217  0.00  0.00    +0.032 A 
ATOM      7  C   UNL     1      -1.782 -11.723  -0.275  0.00  0.00    +0.085 A 
ATOM      8  N   UNL     1      -1.525 -10.626   0.509  0.00  0.00    -0.346 N 
ATOM      9  H   UNL     1      -1.880  -9.736   0.354  0.00  0.00    +0.167 HD
ATOM     10  C   UNL     1       0.425 -12.957   2.348  0.00  0.00    +0.137 A 
ATOM     11  N   UNL     1       0.926 -12.213   3.329  0.00  0.00    -0.198 NA
ATOM     12  H   UNL     1       1.685 -10.641   5.163  0.00  0.00    +0.155 HD
ENDROOT
BRANCH   1  17
ATOM     13  C   UNL     1       0.576  -6.715   3.416  0.00  0.00    +0.123 A 
ATOM     14  C   UNL     1       0.628  -6.058   4.637  0.00  0.00    +0.049 A 
ATOM     15  C   UNL     1       0.862  -6.769   5.799  0.00  0.00    +0.051 A 
ATOM     16  C   UNL     1       1.044  -8.141   5.748  0.00  0.00    +0.141 A 
ATOM     17  C   UNL     1       0.992  -8.805   4.524  0.00  0.00    +0.079 A 
ATOM     18  C   UNL     1       0.752  -8.089   3.360  0.00  0.00    +0.072 A 
BRANCH  16  19
ATOM     19  O   UNL     1       1.274  -8.841   6.892  0.00  0.00    -0.493 OA
ATOM     20  C   UNL     1       1.315  -8.095   8.111  0.00  0.00    +0.277 C 
ENDBRANCH  16  19
BRANCH  13  21
ATOM     21  O   UNL     1       0.346  -6.012   2.275  0.00  0.00    -0.489 OA
BRANCH  21  25
ATOM     22  N   UNL     1       0.819  -1.991   1.233  0.00  0.00    +0.380 N 
ATOM     23  C   UNL     1      -0.557  -2.493   1.325  0.00  0.00    -0.075 C 
ATOM     24  C   UNL     1      -0.554  -4.021   1.238  0.00  0.00    +0.026 C 
ATOM     25  C   UNL     1       0.277  -4.590   2.392  0.00  0.00    +0.170 C 
ATOM     26  C   UNL     1       1.690  -4.002   2.330  0.00  0.00    +0.026 C 
ATOM     27  C   UNL     1       1.603  -2.474   2.376  0.00  0.00    -0.075 C 
ATOM     28  H   UNL     1       1.238  -2.319   0.376  0.00  0.00    -0.082 HD
BRANCH  22  29
ATOM     29  C   UNL     1       0.804  -0.522   1.238  0.00  0.00    -0.079 C 
BRANCH  29  31
ATOM     30  C   UNL     1       0.078   1.515  -0.014  0.00  0.00    +0.002 C 
ATOM     31  C   UNL     1       0.094  -0.015  -0.019  0.00  0.00    -0.022 C 
ENDBRANCH  29  31
ENDBRANCH  22  29
ENDBRANCH  21  25
ENDBRANCH  13  21
ENDBRANCH   1  17
BRANCH  10  32
ATOM     32  N   UNL     1       0.728 -14.305   2.255  0.00  0.00    -0.298 N 
ATOM     33  H   UNL     1       0.424 -14.819   1.491  0.00  0.00    +0.154 HD
BRANCH  32  34
ATOM     34  C   UNL     1       1.469 -14.921   3.257  0.00  0.00    +0.047 A 
ATOM     35  C   UNL     1       1.323 -14.522   4.579  0.00  0.00    +0.024 A 
ATOM     36  C   UNL     1       2.058 -15.134   5.574  0.00  0.00    +0.005 A 
ATOM     37  C   UNL     1       2.947 -16.151   5.265  0.00  0.00    +0.039 A 
ATOM     38  C   UNL     1       3.107 -16.563   3.957  0.00  0.00    +0.137 A 
ATOM     39  C   UNL     1       2.364 -15.955   2.939  0.00  0.00    +0.093 A 
ATOM     40  F   UNL     1       3.975 -17.555   3.662  0.00  0.00    -0.205 F 
BRANCH  39  41
ATOM     41  C   UNL     1       2.524 -16.393   1.541  0.00  0.00    +0.246 C 
ATOM     42  O   UNL     1       3.359 -15.866   0.831  0.00  0.00    -0.270 OA
ATOM     43  N   UNL     1       1.744 -17.376   1.049  0.00  0.00    -0.325 N 
ATOM     44  H   UNL     1       1.078 -17.796   1.616  0.00  0.00    +0.145 HD
ATOM     45  H   UNL     1       1.850 -17.664   0.129  0.00  0.00    +0.145 HD
ENDBRANCH  39  41
ENDBRANCH  32  34
ENDBRANCH  10  32
TORSDOF 9
