REMARK  Name = CHEMBL514718
REMARK  10 active torsions:
REMARK  status: ('A' for Active; 'I' for Inactive)
REMARK    1  A    between atoms: C_1  and  C_2
REMARK    2  A    between atoms: C_2  and  C_3
REMARK    3  A    between atoms: C_2  and  N_4
REMARK    4  A    between atoms: N_7  and  C_10
REMARK    5  A    between atoms: C_13  and  N_18
REMARK    6  A    between atoms: C_14  and  O_16
REMARK    7  A    between atoms: O_16  and  C_17
REMARK    8  A    between atoms: C_27  and  N_29
REMARK    9  A    between atoms: N_29  and  C_30
REMARK   10  A    between atoms: C_34  and  C_35
REMARK                            x       y       z     vdW  Elec       q    Type
REMARK                         _______ _______ _______ _____ _____    ______ ____
ROOT
ATOM      1  N   UNL     1      -6.880  -5.158   4.009  0.00  0.00    -0.282 N 
ATOM      2  C   UNL     1      -6.309  -6.082   4.869  0.00  0.00    +0.200 A 
ATOM      3  N   UNL     1      -4.999  -6.056   5.051  0.00  0.00    -0.313 N 
ATOM      4  C   UNL     1      -4.409  -6.927   5.868  0.00  0.00    +0.122 A 
ATOM      5  C   UNL     1      -5.209  -7.874   6.535  0.00  0.00    +0.057 A 
ATOM      6  C   UNL     1      -4.297  -8.678   7.347  0.00  0.00    +0.032 A 
ATOM      7  C   UNL     1      -3.061  -8.197   7.137  0.00  0.00    +0.085 A 
ATOM      8  N   UNL     1      -3.115  -7.148   6.253  0.00  0.00    -0.347 N 
ATOM      9  H   UNL     1      -2.349  -6.639   5.947  0.00  0.00    +0.167 HD
ATOM     10  C   UNL     1      -6.594  -7.865   6.312  0.00  0.00    +0.137 A 
ATOM     11  N   UNL     1      -7.097  -6.956   5.482  0.00  0.00    -0.200 NA
ATOM     12  H   UNL     1      -7.845  -5.108   3.923  0.00  0.00    +0.155 HD
ATOM     13  H   UNL     1      -4.462  -5.397   4.583  0.00  0.00    +0.170 HD
ENDROOT
BRANCH   1  17
ATOM     14  C   UNL     1      -4.449  -2.589   1.789  0.00  0.00    +0.033 A 
ATOM     15  C   UNL     1      -5.153  -2.108   2.886  0.00  0.00    +0.025 A 
ATOM     16  C   UNL     1      -5.957  -2.959   3.620  0.00  0.00    +0.029 A 
ATOM     17  C   UNL     1      -6.064  -4.295   3.263  0.00  0.00    +0.076 A 
ATOM     18  C   UNL     1      -5.359  -4.779   2.163  0.00  0.00    +0.143 A 
ATOM     19  C   UNL     1      -4.558  -3.925   1.425  0.00  0.00    +0.070 A 
BRANCH  14  23
ATOM     20  N   UNL     1      -1.379  -0.265   0.313  0.00  0.00    -0.297 NA
ATOM     21  C   UNL     1      -2.142   0.148   1.498  0.00  0.00    +0.103 C 
ATOM     22  C   UNL     1      -3.603  -0.284   1.336  0.00  0.00    +0.120 C 
ATOM     23  N   UNL     1      -3.635  -1.726   1.048  0.00  0.00    -0.327 N 
ATOM     24  C   UNL     1      -2.788  -2.237  -0.041  0.00  0.00    +0.120 C 
ATOM     25  C   UNL     1      -1.359  -1.728   0.175  0.00  0.00    +0.103 C 
BRANCH  20  27
ATOM     26  C   UNL     1      -0.075   1.807   0.367  0.00  0.00    +0.024 C 
ATOM     27  C   UNL     1      -0.015   0.279   0.349  0.00  0.00    +0.051 C 
ATOM     28  C   UNL     1       0.699  -0.219   1.608  0.00  0.00    +0.024 C 
ENDBRANCH  20  27
ENDBRANCH  14  23
BRANCH  18  29
ATOM     29  O   UNL     1      -5.462  -6.089   1.812  0.00  0.00    -0.493 OA
ATOM     30  C   UNL     1      -4.712  -6.516   0.674  0.00  0.00    +0.277 C 
ENDBRANCH  18  29
ENDBRANCH   1  17
BRANCH  10  31
ATOM     31  N   UNL     1      -7.419  -8.778   6.946  0.00  0.00    -0.298 N 
ATOM     32  H   UNL     1      -7.034  -9.492   7.478  0.00  0.00    +0.154 HD
BRANCH  31  33
ATOM     33  C   UNL     1      -8.803  -8.671   6.821  0.00  0.00    +0.052 A 
ATOM     34  C   UNL     1      -9.425  -7.481   6.495  0.00  0.00    +0.031 A 
ATOM     35  C   UNL     1     -10.774  -7.451   6.390  0.00  0.00    +0.048 A 
ATOM     36  S   UNL     1     -11.254  -9.025   6.726  0.00  0.00    -0.090 S 
ATOM     37  C   UNL     1      -9.655  -9.759   7.010  0.00  0.00    +0.095 A 
BRANCH  37  38
ATOM     38  C   UNL     1      -9.333 -11.097   7.342  0.00  0.00    +0.250 C 
ATOM     39  O   UNL     1      -8.170 -11.422   7.502  0.00  0.00    -0.270 OA
ATOM     40  N   UNL     1     -10.313 -12.011   7.482  0.00  0.00    -0.325 N 
ATOM     41  H   UNL     1     -11.240 -11.752   7.354  0.00  0.00    +0.145 HD
ATOM     42  H   UNL     1     -10.093 -12.928   7.710  0.00  0.00    +0.145 HD
ENDBRANCH  37  38
ENDBRANCH  31  33
ENDBRANCH  10  31
TORSDOF 7
