REMARK  Name = CHEMBL554351
REMARK  8 active torsions:
REMARK  status: ('A' for Active; 'I' for Inactive)
REMARK    1  A    between atoms: C_1  and  N_2
REMARK    2  A    between atoms: N_2  and  C_3
REMARK    3  A    between atoms: C_4  and  C_6
REMARK    4  A    between atoms: C_10  and  C_12
REMARK    5  A    between atoms: C_15  and  C_22
REMARK    6  A    between atoms: C_26  and  N_28
REMARK    7  A    between atoms: N_31  and  C_32
REMARK    8  A    between atoms: C_37  and  C_38
REMARK                            x       y       z     vdW  Elec       q    Type
REMARK                         _______ _______ _______ _____ _____    ______ ____
ROOT
ATOM      1  C   UNL     1       0.532  -8.987  -5.803  0.00  0.00    -0.014 A 
ATOM      2  C   UNL     1       1.360  -9.353  -4.742  0.00  0.00    +0.009 A 
ATOM      3  C   UNL     1       1.234 -10.601  -4.167  0.00  0.00    +0.002 A 
ATOM      4  C   UNL     1       0.290 -11.493  -4.640  0.00  0.00    +0.023 A 
ATOM      5  C   UNL     1      -0.539 -11.137  -5.696  0.00  0.00    +0.035 A 
ATOM      6  C   UNL     1      -0.424  -9.883  -6.276  0.00  0.00    +0.032 A 
ENDROOT
BRANCH   1  10
ATOM      7  C   UNL     1       0.711  -4.614  -4.084  0.00  0.00    +0.001 A 
ATOM      8  C   UNL     1       0.639  -5.974  -4.382  0.00  0.00    +0.022 A 
ATOM      9  C   UNL     1       0.705  -6.354  -5.720  0.00  0.00    +0.027 A 
ATOM     10  C   UNL     1       0.665  -7.646  -6.422  0.00  0.00    +0.009 A 
ATOM     11  C   UNL     1       0.774  -7.372  -7.744  0.00  0.00    +0.093 A 
ATOM     12  N   UNL     1       0.878  -6.022  -7.928  0.00  0.00    -0.345 N 
ATOM     13  H   UNL     1       0.966  -5.586  -8.790  0.00  0.00    +0.167 HD
ATOM     14  C   UNL     1       0.840  -5.370  -6.718  0.00  0.00    +0.139 A 
ATOM     15  N   UNL     1       0.903  -4.088  -6.381  0.00  0.00    -0.237 NA
ATOM     16  C   UNL     1       0.839  -3.695  -5.128  0.00  0.00    +0.121 A 
BRANCH   7  21
ATOM     17  C   UNL     1       0.653  -2.359  -1.065  0.00  0.00    +0.037 A 
ATOM     18  C   UNL     1       0.526  -3.294  -0.036  0.00  0.00    +0.013 A 
ATOM     19  C   UNL     1       0.460  -4.641  -0.329  0.00  0.00    +0.001 A 
ATOM     20  C   UNL     1       0.519  -5.072  -1.640  0.00  0.00    +0.008 A 
ATOM     21  C   UNL     1       0.647  -4.148  -2.676  0.00  0.00    -0.016 A 
ATOM     22  C   UNL     1       0.709  -2.788  -2.389  0.00  0.00    +0.021 A 
BRANCH  17  26
ATOM     23  C   UNL     1       1.283   0.912   0.761  0.00  0.00    +0.132 C 
ATOM     24  N   UNL     1       1.076  -0.512   0.487  0.00  0.00    -0.304 N 
ATOM     25  C   UNL     1       1.253  -1.497   1.556  0.00  0.00    +0.132 C 
ATOM     26  C   UNL     1       0.723  -0.916  -0.750  0.00  0.00    +0.246 C 
ATOM     27  O   UNL     1       0.463  -0.093  -1.606  0.00  0.00    -0.270 OA
ENDBRANCH  17  26
ENDBRANCH   7  21
ENDBRANCH   1  10
BRANCH   5  28
ATOM     28  N   UNL     1      -1.494 -12.043  -6.172  0.00  0.00    -0.269 N 
ATOM     29  C   UNL     1      -1.793 -12.078  -7.486  0.00  0.00    +0.308 C 
ATOM     30  O   UNL     1      -1.166 -11.394  -8.271  0.00  0.00    -0.252 OA
ATOM     31  N   UNL     1      -2.788 -12.872  -7.929  0.00  0.00    -0.269 N 
ATOM     32  H   UNL     1      -1.940 -12.645  -5.557  0.00  0.00    +0.156 HD
ATOM     33  H   UNL     1      -3.307 -13.397  -7.300  0.00  0.00    +0.156 HD
BRANCH  31  34
ATOM     34  C   UNL     1      -3.073 -12.939  -9.296  0.00  0.00    +0.042 A 
ATOM     35  C   UNL     1      -2.829 -11.844 -10.112  0.00  0.00    +0.024 A 
ATOM     36  C   UNL     1      -3.111 -11.911 -11.463  0.00  0.00    +0.002 A 
ATOM     37  C   UNL     1      -3.636 -13.069 -12.010  0.00  0.00    +0.001 A 
ATOM     38  C   UNL     1      -3.884 -14.166 -11.210  0.00  0.00    +0.010 A 
ATOM     39  C   UNL     1      -3.599 -14.112  -9.848  0.00  0.00    +0.003 A 
BRANCH  39  40
ATOM     40  C   UNL     1      -3.858 -15.290  -8.985  0.00  0.00    -0.016 A 
ATOM     41  C   UNL     1      -2.868 -15.756  -8.121  0.00  0.00    +0.008 A 
ATOM     42  C   UNL     1      -3.114 -16.852  -7.321  0.00  0.00    +0.001 A 
ATOM     43  C   UNL     1      -4.341 -17.489  -7.374  0.00  0.00    +0.000 A 
ATOM     44  C   UNL     1      -5.327 -17.032  -8.230  0.00  0.00    +0.001 A 
ATOM     45  C   UNL     1      -5.094 -15.932  -9.030  0.00  0.00    +0.008 A 
ENDBRANCH  39  40
ENDBRANCH  31  34
ENDBRANCH   5  28
TORSDOF 6
