REMARK  Name = CHEMBL563463
REMARK  6 active torsions:
REMARK  status: ('A' for Active; 'I' for Inactive)
REMARK    1  A    between atoms: C_4  and  O_7
REMARK    2  A    between atoms: O_7  and  C_8
REMARK    3  A    between atoms: C_13  and  N_14
REMARK    4  A    between atoms: N_17  and  C_18
REMARK    5  A    between atoms: C_22  and  C_24
REMARK    6  A    between atoms: C_31  and  C_34
REMARK                            x       y       z     vdW  Elec       q    Type
REMARK                         _______ _______ _______ _____ _____    ______ ____
ROOT
ATOM      1  C   UNL     1       9.440  -2.727  -0.156  0.00  0.00    +0.035 A 
ATOM      2  C   UNL     1       9.350  -4.110  -0.261  0.00  0.00    +0.023 A 
ATOM      3  C   UNL     1      10.497  -4.875  -0.363  0.00  0.00    +0.002 A 
ATOM      4  C   UNL     1      11.738  -4.270  -0.361  0.00  0.00    +0.009 A 
ATOM      5  C   UNL     1      11.837  -2.883  -0.256  0.00  0.00    -0.014 A 
ATOM      6  C   UNL     1      10.681  -2.111  -0.159  0.00  0.00    +0.032 A 
ENDROOT
BRANCH   5   7
ATOM      7  C   UNL     1      13.168  -2.231  -0.254  0.00  0.00    +0.009 A 
ATOM      8  C   UNL     1      13.558  -1.181  -1.017  0.00  0.00    +0.093 A 
ATOM      9  N   UNL     1      14.855  -0.861  -0.734  0.00  0.00    -0.345 N 
ATOM     10  H   UNL     1      15.353  -0.143  -1.155  0.00  0.00    +0.167 HD
ATOM     11  C   UNL     1      15.355  -1.703   0.233  0.00  0.00    +0.139 A 
ATOM     12  C   UNL     1      14.323  -2.593   0.582  0.00  0.00    +0.027 A 
ATOM     13  C   UNL     1      14.551  -3.564   1.555  0.00  0.00    +0.022 A 
ATOM     14  C   UNL     1      15.810  -3.610   2.152  0.00  0.00    +0.004 A 
ATOM     15  C   UNL     1      16.783  -2.690   1.755  0.00  0.00    +0.121 A 
ATOM     16  N   UNL     1      16.538  -1.791   0.828  0.00  0.00    -0.237 NA
BRANCH  14  17
ATOM     17  C   UNL     1      16.111  -4.622   3.195  0.00  0.00    +0.021 A 
ATOM     18  C   UNL     1      17.375  -4.797   3.919  0.00  0.00    +0.049 A 
ATOM     19  C   UNL     1      17.182  -5.829   4.758  0.00  0.00    +0.195 A 
ATOM     20  O   UNL     1      15.930  -6.286   4.607  0.00  0.00    -0.470 OA
ATOM     21  C   UNL     1      15.273  -5.573   3.681  0.00  0.00    +0.203 A 
ENDBRANCH  14  17
ENDBRANCH   5   7
BRANCH   1  25
ATOM     22  N   UNL     1       6.050  -1.745   0.620  0.00  0.00    -0.266 N 
ATOM     23  C   UNL     1       7.208  -2.434   0.618  0.00  0.00    +0.308 C 
ATOM     24  O   UNL     1       7.290  -3.487   1.220  0.00  0.00    -0.252 OA
ATOM     25  N   UNL     1       8.276  -1.956  -0.053  0.00  0.00    -0.269 N 
ATOM     26  H   UNL     1       6.003  -0.876   0.191  0.00  0.00    +0.156 HD
ATOM     27  H   UNL     1       8.238  -1.079  -0.463  0.00  0.00    +0.156 HD
BRANCH  22  33
ATOM     28  C   UNL     1       3.649  -2.039   0.715  0.00  0.00    +0.150 A 
ATOM     29  C   UNL     1       2.531  -2.579   1.330  0.00  0.00    +0.048 A 
ATOM     30  C   UNL     1       2.673  -3.353   2.466  0.00  0.00    +0.004 A 
ATOM     31  C   UNL     1       3.929  -3.590   2.993  0.00  0.00    +0.002 A 
ATOM     32  C   UNL     1       5.050  -3.056   2.385  0.00  0.00    +0.027 A 
ATOM     33  C   UNL     1       4.915  -2.283   1.241  0.00  0.00    +0.077 A 
BRANCH  28  34
ATOM     34  O   UNL     1       3.511  -1.277  -0.403  0.00  0.00    -0.454 OA
BRANCH  34  38
ATOM     35  C   UNL     1      -0.309  -0.354  -1.659  0.00  0.00    +0.000 A 
ATOM     36  C   UNL     1       0.166   0.152  -0.463  0.00  0.00    +0.004 A 
ATOM     37  C   UNL     1       1.444  -0.156  -0.040  0.00  0.00    +0.046 A 
ATOM     38  C   UNL     1       2.253  -0.973  -0.817  0.00  0.00    +0.129 A 
ATOM     39  C   UNL     1       1.774  -1.480  -2.017  0.00  0.00    +0.046 A 
ATOM     40  C   UNL     1       0.495  -1.169  -2.435  0.00  0.00    +0.004 A 
ENDBRANCH  34  38
ENDBRANCH  28  34
ENDBRANCH  22  33
ENDBRANCH   1  25
TORSDOF 6
