REMARK  Name = CHEMBL1095439
REMARK  12 active torsions:
REMARK  status: ('A' for Active; 'I' for Inactive)
REMARK    1  A    between atoms: C_1  and  C_2
REMARK    2  A    between atoms: C_4  and  N_32
REMARK    3  A    between atoms: C_9  and  C_12
REMARK    4  A    between atoms: C_13  and  N_20
REMARK    5  A    between atoms: N_20  and  C_21
REMARK    6  A    between atoms: C_21  and  C_22
REMARK    7  A    between atoms: C_22  and  C_24
REMARK    8  A    between atoms: C_22  and  O_31
REMARK    9  A    between atoms: N_35  and  C_38
REMARK   10  A    between atoms: C_38  and  C_39
REMARK   11  A    between atoms: C_39  and  C_40
REMARK   12  A    between atoms: C_40  and  O_41
REMARK                            x       y       z     vdW  Elec       q    Type
REMARK                         _______ _______ _______ _____ _____    ______ ____
ROOT
ATOM      1  C   UNL     1       0.191   0.977   0.217  0.00  0.00    +0.046 C 
ATOM      2  C   UNL     1       0.185  -0.529   0.258  0.00  0.00    -0.021 A 
ATOM      3  C   UNL     1       0.204  -1.244  -0.906  0.00  0.00    +0.028 A 
ATOM      4  C   UNL     1       0.199  -2.637  -0.883  0.00  0.00    +0.032 A 
ATOM      5  C   UNL     1       0.173  -3.316   0.325  0.00  0.00    +0.051 A 
ATOM      6  C   UNL     1       0.153  -2.601   1.513  0.00  0.00    +0.068 A 
ATOM      7  C   UNL     1       0.164  -1.196   1.487  0.00  0.00    +0.092 A 
ATOM      8  N   UNL     1       0.147  -0.769   2.775  0.00  0.00    -0.227 NA
ATOM      9  C   UNL     1       0.131  -1.805   3.582  0.00  0.00    +0.146 A 
ATOM     10  N   UNL     1       0.125  -2.963   2.848  0.00  0.00    -0.338 N 
ATOM     11  H   UNL     1       0.114  -3.867   3.199  0.00  0.00    +0.167 HD
ENDROOT
BRANCH   9  12
ATOM     12  C   UNL     1       0.111  -1.733   5.053  0.00  0.00    +0.102 A 
ATOM     13  C   UNL     1      -0.015  -0.498   5.706  0.00  0.00    +0.045 A 
ATOM     14  C   UNL     1      -0.030  -0.475   7.113  0.00  0.00    +0.041 A 
ATOM     15  C   UNL     1       0.075  -1.629   7.808  0.00  0.00    +0.088 A 
ATOM     16  N   UNL     1       0.197  -2.825   7.175  0.00  0.00    -0.328 N 
ATOM     17  H   UNL     1       0.271  -3.636   7.702  0.00  0.00    +0.168 HD
ATOM     18  C   UNL     1       0.212  -2.907   5.832  0.00  0.00    +0.261 A 
ATOM     19  O   UNL     1       0.318  -3.994   5.288  0.00  0.00    -0.267 OA
BRANCH  13  20
ATOM     20  N   UNL     1      -0.121   0.671   4.983  0.00  0.00    -0.340 N 
ATOM     21  H   UNL     1      -0.189   0.639   4.016  0.00  0.00    +0.146 HD
BRANCH  20  22
ATOM     22  C   UNL     1      -0.130   1.962   5.675  0.00  0.00    +0.137 C 
BRANCH  22  23
ATOM     23  C   UNL     1      -0.256   3.090   4.649  0.00  0.00    +0.161 C 
BRANCH  23  24
ATOM     24  C   UNL     1      -0.141   4.420   5.349  0.00  0.00    -0.016 A 
ATOM     25  C   UNL     1      -1.232   4.945   6.017  0.00  0.00    +0.006 A 
ATOM     26  C   UNL     1      -1.128   6.165   6.659  0.00  0.00    +0.002 A 
ATOM     27  C   UNL     1       0.066   6.861   6.632  0.00  0.00    +0.020 A 
ATOM     28  C   UNL     1       1.158   6.336   5.964  0.00  0.00    +0.041 A 
ATOM     29  C   UNL     1       1.055   5.112   5.327  0.00  0.00    +0.026 A 
ATOM     30 CL   UNL     1       2.658   7.209   5.930  0.00  0.00    -0.084 Cl
ENDBRANCH  23  24
BRANCH  23  31
ATOM     31  O   UNL     1      -1.524   3.002   3.998  0.00  0.00    -0.386 OA
ATOM     32  H   UNL     1      -2.280   3.075   4.597  0.00  0.00    +0.210 HD
ENDBRANCH  23  31
ENDBRANCH  22  23
ENDBRANCH  20  22
ENDBRANCH  13  20
ENDBRANCH   9  12
BRANCH   4  33
ATOM     33  N   UNL     1       0.219  -3.353  -2.084  0.00  0.00    -0.327 N 
ATOM     34  C   UNL     1       0.337  -4.819  -2.087  0.00  0.00    +0.120 C 
ATOM     35  C   UNL     1      -0.781  -5.395  -2.963  0.00  0.00    +0.103 C 
ATOM     36  N   UNL     1      -0.732  -4.766  -4.289  0.00  0.00    -0.299 NA
ATOM     37  C   UNL     1      -0.986  -3.322  -4.203  0.00  0.00    +0.103 C 
ATOM     38  C   UNL     1       0.117  -2.661  -3.378  0.00  0.00    +0.120 C 
BRANCH  36  39
ATOM     39  C   UNL     1      -1.675  -5.412  -5.213  0.00  0.00    +0.087 C 
BRANCH  39  40
ATOM     40  C   UNL     1      -1.423  -4.905  -6.635  0.00  0.00    +0.043 C 
BRANCH  40  41
ATOM     41  C   UNL     1      -2.405  -5.577  -7.597  0.00  0.00    +0.157 C 
BRANCH  41  42
ATOM     42  O   UNL     1      -2.170  -5.104  -8.925  0.00  0.00    -0.395 OA
ATOM     43  H   UNL     1      -2.758  -5.489  -9.589  0.00  0.00    +0.209 HD
ENDBRANCH  41  42
ENDBRANCH  40  41
ENDBRANCH  39  40
ENDBRANCH  36  39
ENDBRANCH   4  33
TORSDOF 11
