REMARK  Name = CHEMBL1222710
REMARK  3 active torsions:
REMARK  status: ('A' for Active; 'I' for Inactive)
REMARK    1  A    between atoms: C_6  and  C_10
REMARK    2  A    between atoms: C_16  and  C_18
REMARK    3  A    between atoms: C_28  and  C_32
REMARK                            x       y       z     vdW  Elec       q    Type
REMARK                         _______ _______ _______ _____ _____    ______ ____
ROOT
ATOM      1  C   UNL     1      -0.086   1.338   0.057  0.00  0.00    +0.022 A 
ATOM      2  C   UNL     1       1.232   1.798   0.037  0.00  0.00    +0.033 A 
ATOM      3  C   UNL     1       2.045   0.682   0.011  0.00  0.00    +0.105 A 
ATOM      4  C   UNL     1       3.446   0.492  -0.016  0.00  0.00    +0.152 A 
ATOM      5  N   UNL     1       3.929  -0.740  -0.037  0.00  0.00    -0.211 NA
ATOM      6  C   UNL     1       3.129  -1.804  -0.033  0.00  0.00    +0.172 A 
ATOM      7  N   UNL     1       1.829  -1.698  -0.008  0.00  0.00    -0.149 NA
ATOM      8  N   UNL     1       1.228  -0.432   0.015  0.00  0.00    -0.235 N 
ATOM      9  C   UNL     1      -0.054  -0.021   0.043  0.00  0.00    +0.113 A 
ATOM     10  N   UNL     1       4.299   1.578  -0.021  0.00  0.00    -0.281 N 
ATOM     11  C   UNL     1       5.685   1.379  -0.049  0.00  0.00    +0.146 A 
ATOM     12  C   UNL     1       6.340   0.137  -0.078  0.00  0.00    +0.068 A 
ATOM     13  C   UNL     1       7.672   0.371  -0.098  0.00  0.00    +0.041 A 
ATOM     14  N   UNL     1       7.858   1.708  -0.082  0.00  0.00    -0.280 N 
ATOM     15  H   UNL     1       8.714   2.164  -0.091  0.00  0.00    +0.189 HD
ATOM     16  N   UNL     1       6.599   2.321  -0.057  0.00  0.00    -0.158 NA
ATOM     17  H   UNL     1       3.938   2.478  -0.006  0.00  0.00    +0.155 HD
ENDROOT
BRANCH   6  18
ATOM     18  C   UNL     1       3.746  -3.178  -0.057  0.00  0.00    +0.146 C 
ATOM     19  C   UNL     1       3.812  -3.698  -1.509  0.00  0.00    +0.032 C 
ATOM     20  C   UNL     1       3.473  -5.204  -1.354  0.00  0.00    +0.021 C 
ATOM     21  C   UNL     1       2.433  -5.173  -0.207  0.00  0.00    +0.109 C 
ATOM     22  N   UNL     1       2.910  -4.115   0.708  0.00  0.00    -0.287 N 
ATOM     23  C   UNL     1       2.628  -4.023   2.022  0.00  0.00    +0.249 C 
ATOM     24  O   UNL     1       3.163  -3.167   2.700  0.00  0.00    -0.270 OA
BRANCH  23  25
ATOM     25  C   UNL     1       1.669  -4.962   2.640  0.00  0.00    +0.055 A 
ATOM     26  C   UNL     1       1.722  -5.232   4.014  0.00  0.00    +0.019 A 
ATOM     27  C   UNL     1       0.802  -6.117   4.543  0.00  0.00    +0.060 A 
ATOM     28  C   UNL     1      -0.136  -6.704   3.706  0.00  0.00    +0.213 A 
ATOM     29  N   UNL     1      -0.161  -6.429   2.413  0.00  0.00    -0.227 NA
ATOM     30  C   UNL     1       0.692  -5.588   1.865  0.00  0.00    +0.127 A 
ATOM     31  F   UNL     1      -1.036  -7.570   4.219  0.00  0.00    -0.184 F 
ENDBRANCH  23  25
ENDBRANCH   6  18
BRANCH  13  32
ATOM     32  C   UNL     1       8.756  -0.675  -0.131  0.00  0.00    +0.037 C 
ATOM     33  C   UNL     1      10.062  -0.363   0.602  0.00  0.00    +0.010 C 
ATOM     34  C   UNL     1      10.023  -0.355  -0.928  0.00  0.00    +0.010 C 
ENDBRANCH  13  32
TORSDOF 3
