REMARK  Name = CHEMBL245407
REMARK  3 active torsions:
REMARK  status: ('A' for Active; 'I' for Inactive)
REMARK    1  A    between atoms: C_3  and  C_8
REMARK    2  A    between atoms: C_5  and  O_7
REMARK    3  A    between atoms: C_15  and  C_17
REMARK                            x       y       z     vdW  Elec       q    Type
REMARK                         _______ _______ _______ _____ _____    ______ ____
ROOT
ATOM      1  C   UNL     1       3.870   1.873  -0.604  0.00  0.00    +0.100 A 
ATOM      2  C   UNL     1       4.020   3.193  -1.009  0.00  0.00    +0.113 A 
ATOM      3  C   UNL     1       3.173   4.147  -1.611  0.00  0.00    +0.142 A 
ATOM      4  N   UNL     1       3.639   5.354  -1.876  0.00  0.00    -0.237 NA
ATOM      5  C   UNL     1       4.902   5.690  -1.583  0.00  0.00    +0.131 A 
ATOM      6  C   UNL     1       5.750   4.817  -1.009  0.00  0.00    +0.113 A 
ATOM      7  N   UNL     1       5.322   3.544  -0.709  0.00  0.00    -0.298 N 
ATOM      8  C   UNL     1       5.905   2.468  -0.150  0.00  0.00    +0.118 A 
ATOM      9  N   UNL     1       5.045   1.484  -0.084  0.00  0.00    -0.231 NA
ATOM     10  N   UNL     1       1.863   3.821  -1.923  0.00  0.00    -0.341 N 
ATOM     11  H   UNL     1       1.432   3.073  -1.482  0.00  0.00    +0.144 HD
ATOM     12  H   UNL     1       1.378   4.340  -2.583  0.00  0.00    +0.144 HD
ENDROOT
BRANCH   1  15
ATOM     13  C   UNL     1       0.765   0.287  -2.006  0.00  0.00    +0.004 A 
ATOM     14  C   UNL     1       1.907   1.054  -1.903  0.00  0.00    +0.010 A 
ATOM     15  C   UNL     1       2.644   1.052  -0.718  0.00  0.00    +0.006 A 
ATOM     16  C   UNL     1       2.221   0.273   0.359  0.00  0.00    +0.055 A 
ATOM     17  C   UNL     1       1.073  -0.494   0.245  0.00  0.00    +0.117 A 
ATOM     18  C   UNL     1       0.346  -0.485  -0.939  0.00  0.00    +0.045 A 
BRANCH  17  19
ATOM     19  O   UNL     1       0.658  -1.254   1.292  0.00  0.00    -0.507 OA
ATOM     20  H   UNL     1       0.056  -0.798   1.895  0.00  0.00    +0.292 HD
ENDBRANCH  17  19
ENDBRANCH   1  15
BRANCH   8  21
ATOM     21  C   UNL     1       7.332   2.407   0.332  0.00  0.00    +0.056 C 
ATOM     22  C   UNL     1       8.013   1.054   0.070  0.00  0.00    +0.011 C 
ATOM     23  C   UNL     1       8.655   1.196   1.460  0.00  0.00    +0.001 C 
ATOM     24  C   UNL     1       7.462   2.093   1.832  0.00  0.00    +0.011 C 
ENDBRANCH   8  21
TORSDOF 3
