REMARK  Name = CHEMBL475073
REMARK  10 active torsions:
REMARK  status: ('A' for Active; 'I' for Inactive)
REMARK    1  A    between atoms: C_1  and  C_2
REMARK    2  A    between atoms: C_2  and  C_3
REMARK    3  A    between atoms: C_2  and  N_4
REMARK    4  A    between atoms: N_7  and  C_10
REMARK    5  A    between atoms: C_13  and  N_18
REMARK    6  A    between atoms: C_14  and  O_16
REMARK    7  A    between atoms: O_16  and  C_17
REMARK    8  A    between atoms: C_27  and  N_29
REMARK    9  A    between atoms: N_29  and  C_30
REMARK   10  A    between atoms: C_35  and  C_36
REMARK                            x       y       z     vdW  Elec       q    Type
REMARK                         _______ _______ _______ _____ _____    ______ ____
ROOT
ATOM      1  N   UNL     1      -6.907  -5.216   3.917  0.00  0.00    -0.281 N 
ATOM      2  C   UNL     1      -8.053  -4.715   4.513  0.00  0.00    +0.223 A 
ATOM      3  N   UNL     1      -8.412  -3.469   4.253  0.00  0.00    -0.196 NA
ATOM      4  C   UNL     1      -9.507  -2.949   4.806  0.00  0.00    +0.145 A 
ATOM      5  C   UNL     1     -10.273  -3.752   5.670  0.00  0.00    +0.059 A 
ATOM      6  C   UNL     1     -11.393  -2.923   6.114  0.00  0.00    +0.032 A 
ATOM      7  C   UNL     1     -11.247  -1.726   5.523  0.00  0.00    +0.085 A 
ATOM      8  N   UNL     1     -10.122  -1.729   4.737  0.00  0.00    -0.346 N 
ATOM      9  H   UNL     1      -9.809  -0.977   4.211  0.00  0.00    +0.167 HD
ATOM     10  C   UNL     1      -9.855  -5.069   5.917  0.00  0.00    +0.137 A 
ATOM     11  N   UNL     1      -8.752  -5.506   5.317  0.00  0.00    -0.198 NA
ATOM     12  H   UNL     1      -6.676  -6.153   4.020  0.00  0.00    +0.155 HD
ENDROOT
BRANCH   1  16
ATOM     13  C   UNL     1      -4.444  -2.694   1.678  0.00  0.00    +0.033 A 
ATOM     14  C   UNL     1      -5.122  -2.203   2.787  0.00  0.00    +0.025 A 
ATOM     15  C   UNL     1      -5.936  -3.038   3.527  0.00  0.00    +0.029 A 
ATOM     16  C   UNL     1      -6.080  -4.369   3.164  0.00  0.00    +0.076 A 
ATOM     17  C   UNL     1      -5.402  -4.864   2.053  0.00  0.00    +0.143 A 
ATOM     18  C   UNL     1      -4.590  -4.024   1.309  0.00  0.00    +0.070 A 
BRANCH  13  22
ATOM     19  N   UNL     1      -1.339  -0.436   0.172  0.00  0.00    -0.297 NA
ATOM     20  C   UNL     1      -2.076  -0.012   1.370  0.00  0.00    +0.103 C 
ATOM     21  C   UNL     1      -3.549  -0.407   1.226  0.00  0.00    +0.120 C 
ATOM     22  N   UNL     1      -3.620  -1.846   0.930  0.00  0.00    -0.327 N 
ATOM     23  C   UNL     1      -2.800  -2.371  -0.173  0.00  0.00    +0.120 C 
ATOM     24  C   UNL     1      -1.356  -1.898   0.026  0.00  0.00    +0.103 C 
BRANCH  19  26
ATOM     25  C   UNL     1       0.015   1.604   0.220  0.00  0.00    +0.024 C 
ATOM     26  C   UNL     1       0.038   0.075   0.193  0.00  0.00    +0.051 C 
ATOM     27  C   UNL     1       0.757  -0.447   1.439  0.00  0.00    +0.024 C 
ENDBRANCH  19  26
ENDBRANCH  13  22
BRANCH  17  28
ATOM     28  O   UNL     1      -5.541  -6.169   1.696  0.00  0.00    -0.493 OA
ATOM     29  C   UNL     1      -4.816  -6.607   0.545  0.00  0.00    +0.277 C 
ENDBRANCH  17  28
ENDBRANCH   1  16
BRANCH  10  30
ATOM     30  N   UNL     1     -10.578  -5.896   6.760  0.00  0.00    -0.298 N 
ATOM     31  H   UNL     1     -11.349  -5.549   7.235  0.00  0.00    +0.154 HD
BRANCH  30  32
ATOM     32  C   UNL     1     -10.197  -7.224   6.928  0.00  0.00    +0.048 A 
ATOM     33  C   UNL     1      -8.852  -7.569   6.919  0.00  0.00    +0.065 A 
ATOM     34  C   UNL     1      -8.476  -8.889   7.086  0.00  0.00    +0.160 A 
ATOM     35  C   UNL     1      -9.438  -9.877   7.263  0.00  0.00    +0.159 A 
ATOM     36  C   UNL     1     -10.776  -9.550   7.273  0.00  0.00    +0.056 A 
ATOM     37  C   UNL     1     -11.170  -8.218   7.112  0.00  0.00    +0.060 A 
ATOM     38  F   UNL     1      -9.058 -11.164   7.424  0.00  0.00    -0.202 F 
ATOM     39  F   UNL     1      -7.166  -9.220   7.077  0.00  0.00    -0.202 F 
BRANCH  37  40
ATOM     40  C   UNL     1     -12.599  -7.861   7.128  0.00  0.00    +0.243 C 
ATOM     41  O   UNL     1     -12.945  -6.722   6.880  0.00  0.00    -0.270 OA
ATOM     42  N   UNL     1     -13.524  -8.797   7.419  0.00  0.00    -0.325 N 
ATOM     43  H   UNL     1     -13.249  -9.706   7.617  0.00  0.00    +0.145 HD
ATOM     44  H   UNL     1     -14.465  -8.562   7.430  0.00  0.00    +0.145 HD
ENDBRANCH  37  40
ENDBRANCH  30  32
ENDBRANCH  10  30
TORSDOF 7
