REMARK  Name = CHEMBL425819
REMARK  9 active torsions:
REMARK  status: ('A' for Active; 'I' for Inactive)
REMARK    1  A    between atoms: C_1  and  C_2
REMARK    2  A    between atoms: C_4  and  C_31
REMARK    3  A    between atoms: C_9  and  C_12
REMARK    4  A    between atoms: C_13  and  N_20
REMARK    5  A    between atoms: N_20  and  C_21
REMARK    6  A    between atoms: C_21  and  C_22
REMARK    7  A    between atoms: C_22  and  C_23
REMARK    8  A    between atoms: C_22  and  O_30
REMARK    9  A    between atoms: N_33  and  C_34
REMARK                            x       y       z     vdW  Elec       q    Type
REMARK                         _______ _______ _______ _____ _____    ______ ____
ROOT
ATOM      1  C   UNL     1       0.075  -1.349   4.755  0.00  0.00    +0.102 A 
ATOM      2  C   UNL     1       0.155  -0.128   5.442  0.00  0.00    +0.045 A 
ATOM      3  C   UNL     1       0.156  -0.141   6.849  0.00  0.00    +0.041 A 
ATOM      4  C   UNL     1       0.080  -1.315   7.513  0.00  0.00    +0.088 A 
ATOM      5  N   UNL     1       0.003  -2.498   6.848  0.00  0.00    -0.328 N 
ATOM      6  H   UNL     1      -0.050  -3.325   7.353  0.00  0.00    +0.168 HD
ATOM      7  C   UNL     1      -0.007  -2.545   5.503  0.00  0.00    +0.261 A 
ATOM      8  O   UNL     1      -0.083  -3.619   4.930  0.00  0.00    -0.267 OA
ENDROOT
BRANCH   1  17
ATOM      9  C   UNL     1      -0.048   1.498   0.009  0.00  0.00    +0.046 C 
ATOM     10  C   UNL     1       0.008  -0.008   0.001  0.00  0.00    -0.022 A 
ATOM     11  C   UNL     1       0.035  -0.682  -1.183  0.00  0.00    +0.016 A 
ATOM     12  C   UNL     1       0.087  -2.080  -1.204  0.00  0.00    +0.015 A 
ATOM     13  C   UNL     1       0.113  -2.798  -0.009  0.00  0.00    +0.039 A 
ATOM     14  C   UNL     1       0.086  -2.120   1.196  0.00  0.00    +0.067 A 
ATOM     15  C   UNL     1       0.039  -0.713   1.211  0.00  0.00    +0.092 A 
ATOM     16  N   UNL     1       0.029  -0.326   2.503  0.00  0.00    -0.227 NA
ATOM     17  C   UNL     1       0.071  -1.383   3.284  0.00  0.00    +0.146 A 
ATOM     18  N   UNL     1       0.098  -2.520   2.521  0.00  0.00    -0.338 N 
ATOM     19  H   UNL     1       0.132  -3.433   2.848  0.00  0.00    +0.167 HD
BRANCH  12  20
ATOM     20  C   UNL     1       0.115  -2.798  -2.496  0.00  0.00    +0.097 C 
ATOM     21  N   UNL     1      -0.468  -2.282  -3.541  0.00  0.00    -0.387 N 
ATOM     22  N   UNL     1       0.758  -4.014  -2.595  0.00  0.00    -0.334 N 
ATOM     23  C   UNL     1       0.786  -4.725  -3.876  0.00  0.00    +0.127 C 
ATOM     24  H   UNL     1      -0.449  -2.753  -4.389  0.00  0.00    +0.157 HD
ATOM     25  H   UNL     1       1.192  -4.398  -1.818  0.00  0.00    +0.147 HD
ATOM     26  H   UNL     1      -0.920  -1.427  -3.471  0.00  0.00    +0.157 HD
ENDBRANCH  12  20
ENDBRANCH   1  17
BRANCH   2  27
ATOM     27  N   UNL     1       0.232   1.062   4.751  0.00  0.00    -0.340 N 
ATOM     28  H   UNL     1       0.152   1.068   3.784  0.00  0.00    +0.146 HD
BRANCH  27  29
ATOM     29  C   UNL     1       0.435   2.318   5.477  0.00  0.00    +0.137 C 
BRANCH  29  30
ATOM     30  C   UNL     1       0.483   3.480   4.482  0.00  0.00    +0.161 C 
BRANCH  30  31
ATOM     31  C   UNL     1       0.814   4.755   5.214  0.00  0.00    -0.016 A 
ATOM     32  C   UNL     1      -0.173   5.429   5.909  0.00  0.00    +0.006 A 
ATOM     33  C   UNL     1       0.129   6.599   6.580  0.00  0.00    +0.002 A 
ATOM     34  C   UNL     1       1.419   7.095   6.558  0.00  0.00    +0.020 A 
ATOM     35  C   UNL     1       2.407   6.421   5.864  0.00  0.00    +0.041 A 
ATOM     36  C   UNL     1       2.105   5.247   5.196  0.00  0.00    +0.026 A 
ATOM     37 CL   UNL     1       4.027   7.044   5.835  0.00  0.00    -0.084 Cl
ENDBRANCH  30  31
BRANCH  30  38
ATOM     38  O   UNL     1      -0.788   3.614   3.843  0.00  0.00    -0.386 OA
ATOM     39  H   UNL     1      -1.518   3.790   4.452  0.00  0.00    +0.210 HD
ENDBRANCH  30  38
ENDBRANCH  29  30
ENDBRANCH  27  29
ENDBRANCH   2  27
TORSDOF 7
