REMARK  Name = CHEMBL458415
REMARK  8 active torsions:
REMARK  status: ('A' for Active; 'I' for Inactive)
REMARK    1  A    between atoms: C_1  and  N_2
REMARK    2  A    between atoms: N_2  and  C_3
REMARK    3  A    between atoms: N_2  and  C_4
REMARK    4  A    between atoms: C_4  and  C_5
REMARK    5  A    between atoms: C_13  and  N_18
REMARK    6  A    between atoms: C_14  and  O_16
REMARK    7  A    between atoms: O_16  and  C_17
REMARK    8  A    between atoms: C_27  and  N_29
REMARK                            x       y       z     vdW  Elec       q    Type
REMARK                         _______ _______ _______ _____ _____    ______ ____
ROOT
ATOM      1  N   UNL     1      -0.936  -7.269  -1.022  0.00  0.00    -0.281 N 
ATOM      2  C   UNL     1       0.396  -6.899  -0.928  0.00  0.00    +0.223 A 
ATOM      3  N   UNL     1       0.688  -5.646  -0.622  0.00  0.00    -0.196 NA
ATOM      4  C   UNL     1       1.956  -5.249  -0.521  0.00  0.00    +0.145 A 
ATOM      5  C   UNL     1       2.977  -6.190  -0.747  0.00  0.00    +0.059 A 
ATOM      6  C   UNL     1       4.239  -5.473  -0.569  0.00  0.00    +0.032 A 
ATOM      7  C   UNL     1       3.926  -4.205  -0.261  0.00  0.00    +0.085 A 
ATOM      8  N   UNL     1       2.562  -4.058  -0.229  0.00  0.00    -0.346 N 
ATOM      9  H   UNL     1       2.096  -3.231  -0.029  0.00  0.00    +0.167 HD
ATOM     10  C   UNL     1       2.621  -7.509  -1.069  0.00  0.00    +0.140 A 
ATOM     11  N   UNL     1       1.330  -7.816  -1.143  0.00  0.00    -0.198 NA
ATOM     12  H   UNL     1      -1.171  -8.192  -1.204  0.00  0.00    +0.155 HD
ENDROOT
BRANCH   1  21
ATOM     13  C   UNL     1      -1.753  -2.793   1.831  0.00  0.00    +0.203 C 
ATOM     14  O   UNL     1      -0.740  -3.458   1.884  0.00  0.00    -0.277 OA
ATOM     15  N   UNL     1      -2.762  -3.165   1.019  0.00  0.00    -0.272 N 
ATOM     16  C   UNL     1      -4.028  -2.442   0.866  0.00  0.00    +0.118 C 
ATOM     17  C   UNL     1      -4.835  -3.255  -0.159  0.00  0.00    +0.056 C 
ATOM     18  C   UNL     1      -3.935  -4.415  -0.521  0.00  0.00    -0.021 A 
ATOM     19  C   UNL     1      -2.753  -4.296   0.193  0.00  0.00    +0.041 A 
ATOM     20  C   UNL     1      -1.754  -5.255   0.021  0.00  0.00    +0.050 A 
ATOM     21  C   UNL     1      -1.943  -6.310  -0.855  0.00  0.00    +0.078 A 
ATOM     22  C   UNL     1      -3.133  -6.418  -1.570  0.00  0.00    +0.142 A 
ATOM     23  C   UNL     1      -4.128  -5.471  -1.393  0.00  0.00    +0.053 A 
BRANCH  22  24
ATOM     24  O   UNL     1      -3.321  -7.454  -2.432  0.00  0.00    -0.493 OA
ATOM     25  C   UNL     1      -4.567  -7.499  -3.130  0.00  0.00    +0.277 C 
ENDBRANCH  22  24
BRANCH  13  26
ATOM     26  C   UNL     1      -1.884  -1.551   2.675  0.00  0.00    +0.018 C 
BRANCH  26  28
ATOM     27  C   UNL     1      -0.737  -0.094   4.197  0.00  0.00    -0.096 C 
ATOM     28  N   UNL     1      -0.659  -1.366   3.466  0.00  0.00    +0.382 N 
ATOM     29  C   UNL     1      -0.521  -2.472   4.422  0.00  0.00    -0.096 C 
ATOM     30  H   UNL     1       0.140  -1.351   2.850  0.00  0.00    -0.082 HD
ENDBRANCH  26  28
ENDBRANCH  13  26
ENDBRANCH   1  21
BRANCH  10  31
ATOM     31  N   UNL     1       3.592  -8.468  -1.300  0.00  0.00    -0.284 N 
ATOM     32  C   UNL     1       5.034  -8.210  -1.343  0.00  0.00    +0.117 C 
ATOM     33  C   UNL     1       5.680  -9.576  -1.626  0.00  0.00    +0.056 C 
ATOM     34  C   UNL     1       4.515 -10.534  -1.725  0.00  0.00    -0.025 A 
ATOM     35  C   UNL     1       3.341  -9.824  -1.521  0.00  0.00    +0.038 A 
ATOM     36  C   UNL     1       2.122 -10.503  -1.562  0.00  0.00    +0.024 A 
ATOM     37  C   UNL     1       2.091 -11.861  -1.798  0.00  0.00    +0.002 A 
ATOM     38  C   UNL     1       3.267 -12.561  -1.995  0.00  0.00    +0.000 A 
ATOM     39  C   UNL     1       4.478 -11.894  -1.965  0.00  0.00    +0.005 A 
ENDBRANCH  10  31
TORSDOF 5
