REMARK  Name = CHEMBL1083527
REMARK  8 active torsions:
REMARK  status: ('A' for Active; 'I' for Inactive)
REMARK    1  A    between atoms: C_4  and  C_7
REMARK    2  A    between atoms: C_7  and  O_8
REMARK    3  A    between atoms: O_8  and  C_9
REMARK    4  A    between atoms: C_12  and  C_15
REMARK    5  A    between atoms: N_17  and  C_25
REMARK    6  A    between atoms: C_20  and  N_24
REMARK    7  A    between atoms: C_27  and  C_29
REMARK    8  A    between atoms: C_29  and  N_30
REMARK                            x       y       z     vdW  Elec       q    Type
REMARK                         _______ _______ _______ _____ _____    ______ ____
ROOT
ATOM      1  C   UNL     1       9.010  -3.659   1.963  0.00  0.00    +0.012 A 
ATOM      2  C   UNL     1       9.385  -4.810   1.354  0.00  0.00    +0.097 A 
ATOM      3  N   UNL     1      10.632  -5.175   1.787  0.00  0.00    -0.328 N 
ATOM      4  C   UNL     1      11.103  -4.265   2.695  0.00  0.00    +0.147 A 
ATOM      5  C   UNL     1      10.119  -3.273   2.845  0.00  0.00    +0.066 A 
ATOM      6  C   UNL     1      10.362  -2.210   3.725  0.00  0.00    +0.129 A 
ATOM      7  N   UNL     1      11.520  -2.185   4.380  0.00  0.00    -0.220 NA
ATOM      8  C   UNL     1      12.419  -3.136   4.208  0.00  0.00    +0.225 A 
ATOM      9  N   UNL     1      12.229  -4.156   3.399  0.00  0.00    -0.218 NA
ENDROOT
BRANCH   1  13
ATOM     10  C   UNL     1       5.347  -1.569   1.415  0.00  0.00    +0.121 A 
ATOM     11  C   UNL     1       6.091  -1.964   0.311  0.00  0.00    +0.046 A 
ATOM     12  C   UNL     1       7.279  -2.642   0.486  0.00  0.00    +0.012 A 
ATOM     13  C   UNL     1       7.733  -2.930   1.772  0.00  0.00    -0.015 A 
ATOM     14  C   UNL     1       6.984  -2.531   2.878  0.00  0.00    +0.012 A 
ATOM     15  C   UNL     1       5.799  -1.849   2.697  0.00  0.00    +0.046 A 
BRANCH  10  16
ATOM     16  O   UNL     1       4.176  -0.901   1.239  0.00  0.00    -0.487 OA
BRANCH  16  17
ATOM     17  C   UNL     1       3.770  -0.645  -0.107  0.00  0.00    +0.264 C 
BRANCH  17  21
ATOM     18  C   UNL     1       0.055   1.463  -0.101  0.00  0.00    +0.000 A 
ATOM     19  C   UNL     1       1.247   2.163  -0.081  0.00  0.00    +0.000 A 
ATOM     20  C   UNL     1       2.449   1.480  -0.083  0.00  0.00    +0.007 A 
ATOM     21  C   UNL     1       2.459   0.098  -0.104  0.00  0.00    -0.010 A 
ATOM     22  C   UNL     1       1.268  -0.602  -0.122  0.00  0.00    +0.007 A 
ATOM     23  C   UNL     1       0.065   0.081  -0.122  0.00  0.00    +0.000 A 
ENDBRANCH  17  21
ENDBRANCH  16  17
ENDBRANCH  10  16
ENDBRANCH   1  13
BRANCH   3  24
ATOM     24  C   UNL     1      11.357  -6.368   1.343  0.00  0.00    +0.089 C 
ATOM     25  C   UNL     1      11.044  -6.775  -0.106  0.00  0.00    +0.027 C 
ATOM     26  C   UNL     1       9.893  -7.622   0.464  0.00  0.00    -0.024 C 
ATOM     27  C   UNL     1      10.695  -7.687   1.774  0.00  0.00    +0.027 C 
BRANCH  26  28
ATOM     28  C   UNL     1       9.732  -8.979  -0.224  0.00  0.00    -0.075 C 
BRANCH  28  29
ATOM     29  N   UNL     1       8.541  -9.657   0.305  0.00  0.00    +0.380 N 
ATOM     30  C   UNL     1       7.297  -9.293  -0.398  0.00  0.00    -0.081 C 
ATOM     31  C   UNL     1       6.857 -10.757  -0.263  0.00  0.00    -0.037 C 
ATOM     32  C   UNL     1       8.367 -11.027  -0.215  0.00  0.00    -0.081 C 
ATOM     33  H   UNL     1       8.468  -9.597   1.309  0.00  0.00    -0.082 HD
ENDBRANCH  28  29
ENDBRANCH  26  28
ENDBRANCH   3  24
BRANCH   6  34
ATOM     34  N   UNL     1       9.422  -1.211   3.908  0.00  0.00    -0.343 N 
ATOM     35  H   UNL     1       8.582  -1.242   3.424  0.00  0.00    +0.144 HD
ATOM     36  H   UNL     1       9.603  -0.481   4.520  0.00  0.00    +0.144 HD
ENDBRANCH   6  34
TORSDOF 8
