REMARK  Name = CHEMBL458864
REMARK  10 active torsions:
REMARK  status: ('A' for Active; 'I' for Inactive)
REMARK    1  A    between atoms: C_1  and  N_2
REMARK    2  A    between atoms: N_2  and  C_3
REMARK    3  A    between atoms: N_2  and  C_4
REMARK    4  A    between atoms: C_4  and  C_5
REMARK    5  A    between atoms: C_14  and  N_19
REMARK    6  A    between atoms: C_15  and  O_17
REMARK    7  A    between atoms: O_17  and  C_18
REMARK    8  A    between atoms: C_28  and  N_30
REMARK    9  A    between atoms: N_30  and  C_31
REMARK   10  A    between atoms: C_36  and  C_37
REMARK                            x       y       z     vdW  Elec       q    Type
REMARK                         _______ _______ _______ _____ _____    ______ ____
ROOT
ATOM      1  N   UNL     1      -2.635   2.054   6.020  0.00  0.00    -0.281 N 
ATOM      2  C   UNL     1      -2.831   2.913   4.950  0.00  0.00    +0.223 A 
ATOM      3  N   UNL     1      -2.008   2.840   3.917  0.00  0.00    -0.196 NA
ATOM      4  C   UNL     1      -2.162   3.647   2.869  0.00  0.00    +0.145 A 
ATOM      5  C   UNL     1      -3.216   4.578   2.883  0.00  0.00    +0.059 A 
ATOM      6  C   UNL     1      -3.132   5.311   1.620  0.00  0.00    +0.032 A 
ATOM      7  C   UNL     1      -2.085   4.807   0.948  0.00  0.00    +0.085 A 
ATOM      8  N   UNL     1      -1.496   3.810   1.685  0.00  0.00    -0.346 N 
ATOM      9  H   UNL     1      -0.721   3.297   1.407  0.00  0.00    +0.167 HD
ATOM     10  C   UNL     1      -4.065   4.621   4.000  0.00  0.00    +0.137 A 
ATOM     11  N   UNL     1      -3.840   3.774   4.999  0.00  0.00    -0.198 NA
ATOM     12  H   UNL     1      -3.229   2.090   6.786  0.00  0.00    +0.155 HD
ENDROOT
BRANCH   1  22
ATOM     13  C   UNL     1      -0.470  -0.717   2.440  0.00  0.00    +0.203 C 
ATOM     14  O   UNL     1      -1.568  -0.208   2.529  0.00  0.00    -0.277 OA
ATOM     15  N   UNL     1       0.297  -0.861   3.538  0.00  0.00    -0.273 N 
ATOM     16  C   UNL     1       1.576  -1.581   3.467  0.00  0.00    +0.114 C 
ATOM     17  C   UNL     1       1.655  -2.517   4.681  0.00  0.00    +0.024 C 
ATOM     18  C   UNL     1       1.663  -1.673   5.955  0.00  0.00    +0.038 C 
ATOM     19  C   UNL     1       0.517  -0.695   5.949  0.00  0.00    -0.022 A 
ATOM     20  C   UNL     1      -0.111  -0.322   4.769  0.00  0.00    +0.041 A 
ATOM     21  C   UNL     1      -1.159   0.590   4.792  0.00  0.00    +0.050 A 
ATOM     22  C   UNL     1      -1.580   1.134   5.995  0.00  0.00    +0.078 A 
ATOM     23  C   UNL     1      -0.948   0.761   7.180  0.00  0.00    +0.142 A 
ATOM     24  C   UNL     1       0.091  -0.157   7.153  0.00  0.00    +0.053 A 
BRANCH  23  25
ATOM     25  O   UNL     1      -1.358   1.290   8.365  0.00  0.00    -0.493 OA
ATOM     26  C   UNL     1      -0.665   0.863   9.539  0.00  0.00    +0.277 C 
ENDBRANCH  23  25
BRANCH  13  27
ATOM     27  C   UNL     1       0.035  -1.188   1.101  0.00  0.00    +0.018 C 
BRANCH  27  29
ATOM     28  C   UNL     1      -1.009   0.622  -0.078  0.00  0.00    -0.096 C 
ATOM     29  N   UNL     1      -0.940  -0.839   0.059  0.00  0.00    +0.382 N 
ATOM     30  C   UNL     1      -0.523  -1.431  -1.220  0.00  0.00    -0.096 C 
ATOM     31  H   UNL     1      -1.848  -1.196   0.315  0.00  0.00    -0.082 HD
ENDBRANCH  27  29
ENDBRANCH  13  27
ENDBRANCH   1  22
BRANCH  10  32
ATOM     32  N   UNL     1      -5.115   5.521   4.058  0.00  0.00    -0.297 N 
ATOM     33  H   UNL     1      -5.304   6.096   3.300  0.00  0.00    +0.154 HD
BRANCH  32  34
ATOM     34  C   UNL     1      -5.901   5.601   5.203  0.00  0.00    +0.063 A 
ATOM     35  C   UNL     1      -6.038   4.498   6.047  0.00  0.00    +0.027 A 
ATOM     36  C   UNL     1      -6.829   4.627   7.173  0.00  0.00    +0.022 A 
ATOM     37  C   UNL     1      -7.459   5.836   7.431  0.00  0.00    +0.112 A 
ATOM     38  N   UNL     1      -7.316   6.862   6.623  0.00  0.00    -0.248 NA
ATOM     39  C   UNL     1      -6.562   6.791   5.531  0.00  0.00    +0.146 A 
BRANCH  39  40
ATOM     40  C   UNL     1      -6.427   7.973   4.654  0.00  0.00    +0.262 C 
ATOM     41  O   UNL     1      -5.816   7.886   3.607  0.00  0.00    -0.269 OA
ATOM     42  N   UNL     1      -6.980   9.147   5.016  0.00  0.00    -0.324 N 
ATOM     43  H   UNL     1      -7.468   9.217   5.852  0.00  0.00    +0.145 HD
ATOM     44  H   UNL     1      -6.891   9.923   4.441  0.00  0.00    +0.145 HD
ENDBRANCH  39  40
ENDBRANCH  32  34
ENDBRANCH  10  32
TORSDOF 7
