REMARK  Name = CHEMBL251732
REMARK  5 active torsions:
REMARK  status: ('A' for Active; 'I' for Inactive)
REMARK    1  A    between atoms: C_5  and  C_7
REMARK    2  A    between atoms: C_7  and  C_8
REMARK    3  A    between atoms: C_13  and  C_18
REMARK    4  A    between atoms: N_25  and  C_27
REMARK    5  A    between atoms: C_30  and  N_33
REMARK                            x       y       z     vdW  Elec       q    Type
REMARK                         _______ _______ _______ _____ _____    ______ ____
ROOT
ATOM      1  C   UNL     1       0.857  -5.809   6.388  0.00  0.00    +0.105 A 
ATOM      2  C   UNL     1       1.713  -6.332   7.453  0.00  0.00    +0.086 A 
ATOM      3  C   UNL     1       3.095  -6.337   7.704  0.00  0.00    +0.131 A 
ATOM      4  N   UNL     1       3.534  -6.928   8.811  0.00  0.00    -0.220 NA
ATOM      5  C   UNL     1       2.695  -7.497   9.658  0.00  0.00    +0.225 A 
ATOM      6  N   UNL     1       1.394  -7.518   9.465  0.00  0.00    -0.216 NA
ATOM      7  C   UNL     1       0.859  -6.952   8.383  0.00  0.00    +0.164 A 
ATOM      8  N   UNL     1      -0.412  -6.809   7.910  0.00  0.00    -0.243 N 
ATOM      9  N   UNL     1      -0.382  -6.106   6.701  0.00  0.00    -0.168 NA
ATOM     10  N   UNL     1       3.977  -5.743   6.821  0.00  0.00    -0.342 N 
ATOM     11  H   UNL     1       3.650  -5.121   6.153  0.00  0.00    +0.144 HD
ATOM     12  H   UNL     1       4.924  -5.948   6.870  0.00  0.00    +0.144 HD
ENDROOT
BRANCH   1  18
ATOM     13  C   UNL     1       3.745  -4.002   1.512  0.00  0.00    +0.113 A 
ATOM     14  N   UNL     1       3.834  -5.014   2.416  0.00  0.00    -0.342 N 
ATOM     15  H   UNL     1       4.490  -5.729   2.417  0.00  0.00    +0.167 HD
ATOM     16  C   UNL     1       2.816  -4.837   3.333  0.00  0.00    +0.067 A 
ATOM     17  C   UNL     1       2.402  -5.530   4.459  0.00  0.00    +0.038 A 
ATOM     18  C   UNL     1       1.306  -5.073   5.183  0.00  0.00    +0.005 A 
ATOM     19  C   UNL     1       0.625  -3.921   4.775  0.00  0.00    +0.012 A 
ATOM     20  C   UNL     1       1.027  -3.234   3.668  0.00  0.00    +0.030 A 
ATOM     21  C   UNL     1       2.128  -3.679   2.929  0.00  0.00    +0.089 A 
ATOM     22  N   UNL     1       2.752  -3.218   1.815  0.00  0.00    -0.232 NA
BRANCH  13  23
ATOM     23  C   UNL     1       4.668  -3.811   0.336  0.00  0.00    +0.110 C 
BRANCH  23  28
ATOM     24  C   UNL     1       2.902  -4.771  -2.860  0.00  0.00    +0.000 A 
ATOM     25  C   UNL     1       2.366  -3.559  -3.254  0.00  0.00    +0.001 A 
ATOM     26  C   UNL     1       2.574  -2.428  -2.487  0.00  0.00    +0.020 A 
ATOM     27  C   UNL     1       3.319  -2.510  -1.324  0.00  0.00    +0.045 A 
ATOM     28  C   UNL     1       3.856  -3.722  -0.930  0.00  0.00    -0.022 A 
ATOM     29  C   UNL     1       3.647  -4.852  -1.699  0.00  0.00    +0.005 A 
ATOM     30 CL   UNL     1       3.582  -1.090  -0.360  0.00  0.00    -0.083 Cl
ENDBRANCH  23  28
ENDBRANCH  13  23
ENDBRANCH   1  18
BRANCH   8  31
ATOM     31  C   UNL     1      -1.621  -7.309   8.569  0.00  0.00    +0.110 C 
ATOM     32  C   UNL     1      -2.336  -8.296   7.644  0.00  0.00    +0.028 C 
ATOM     33  C   UNL     1      -3.599  -8.817   8.332  0.00  0.00    +0.021 C 
ATOM     34  C   UNL     1      -4.531  -7.645   8.644  0.00  0.00    +0.057 C 
ATOM     35  C   UNL     1      -3.816  -6.658   9.569  0.00  0.00    +0.021 C 
ATOM     36  C   UNL     1      -2.553  -6.136   8.881  0.00  0.00    +0.028 C 
BRANCH  34  37
ATOM     37  N   UNL     1      -5.743  -8.146   9.305  0.00  0.00    -0.295 NA
ATOM     38  C   UNL     1      -6.411  -9.163   8.480  0.00  0.00    +0.113 C 
ATOM     39  C   UNL     1      -7.633  -9.700   9.230  0.00  0.00    +0.175 C 
ATOM     40  O   UNL     1      -8.502  -8.611   9.556  0.00  0.00    -0.377 OA
ATOM     41  C   UNL     1      -7.884  -7.602  10.360  0.00  0.00    +0.175 C 
ATOM     42  C   UNL     1      -6.665  -7.044   9.620  0.00  0.00    +0.113 C 
ENDBRANCH  34  37
ENDBRANCH   8  31
TORSDOF 5
