REMARK  Name = CHEMBL456252
REMARK  10 active torsions:
REMARK  status: ('A' for Active; 'I' for Inactive)
REMARK    1  A    between atoms: C_1  and  N_2
REMARK    2  A    between atoms: N_2  and  C_3
REMARK    3  A    between atoms: N_2  and  C_4
REMARK    4  A    between atoms: C_4  and  C_5
REMARK    5  A    between atoms: C_14  and  N_19
REMARK    6  A    between atoms: C_15  and  O_17
REMARK    7  A    between atoms: O_17  and  C_18
REMARK    8  A    between atoms: C_28  and  N_30
REMARK    9  A    between atoms: N_30  and  C_31
REMARK   10  A    between atoms: C_35  and  C_36
REMARK                            x       y       z     vdW  Elec       q    Type
REMARK                         _______ _______ _______ _____ _____    ______ ____
ROOT
ATOM      1  N   UNL     1       6.480   2.093  -0.592  0.00  0.00    -0.281 N 
ATOM      2  C   UNL     1       5.631   2.967   0.067  0.00  0.00    +0.223 A 
ATOM      3  N   UNL     1       4.328   2.864  -0.138  0.00  0.00    -0.196 NA
ATOM      4  C   UNL     1       3.477   3.684   0.476  0.00  0.00    +0.145 A 
ATOM      5  C   UNL     1       3.992   4.662   1.347  0.00  0.00    +0.059 A 
ATOM      6  C   UNL     1       2.839   5.399   1.862  0.00  0.00    +0.032 A 
ATOM      7  C   UNL     1       1.748   4.852   1.303  0.00  0.00    +0.085 A 
ATOM      8  N   UNL     1       2.116   3.825   0.471  0.00  0.00    -0.346 N 
ATOM      9  H   UNL     1       1.503   3.279  -0.045  0.00  0.00    +0.167 HD
ATOM     10  C   UNL     1       5.381   4.736   1.535  0.00  0.00    +0.137 A 
ATOM     11  N   UNL     1       6.155   3.872   0.884  0.00  0.00    -0.198 NA
ATOM     12  H   UNL     1       7.439   2.149  -0.451  0.00  0.00    +0.155 HD
ENDROOT
BRANCH   1  22
ATOM     13  C   UNL     1       2.333  -0.732  -0.619  0.00  0.00    +0.203 C 
ATOM     14  O   UNL     1       2.940  -0.179   0.274  0.00  0.00    -0.277 OA
ATOM     15  N   UNL     1       2.921  -0.920  -1.818  0.00  0.00    -0.273 N 
ATOM     16  C   UNL     1       2.244  -1.693  -2.868  0.00  0.00    +0.114 C 
ATOM     17  C   UNL     1       3.277  -2.643  -3.488  0.00  0.00    +0.024 C 
ATOM     18  C   UNL     1       4.376  -1.814  -4.152  0.00  0.00    +0.038 C 
ATOM     19  C   UNL     1       4.916  -0.788  -3.190  0.00  0.00    -0.022 A 
ATOM     20  C   UNL     1       4.187  -0.376  -2.084  0.00  0.00    +0.041 A 
ATOM     21  C   UNL     1       4.706   0.580  -1.220  0.00  0.00    +0.050 A 
ATOM     22  C   UNL     1       5.956   1.129  -1.462  0.00  0.00    +0.078 A 
ATOM     23  C   UNL     1       6.688   0.718  -2.574  0.00  0.00    +0.142 A 
ATOM     24  C   UNL     1       6.169  -0.244  -3.428  0.00  0.00    +0.053 A 
BRANCH  23  25
ATOM     25  O   UNL     1       7.915   1.252  -2.816  0.00  0.00    -0.493 OA
ATOM     26  C   UNL     1       8.609   0.784  -3.974  0.00  0.00    +0.277 C 
ENDBRANCH  23  25
BRANCH  13  27
ATOM     27  C   UNL     1       0.922  -1.209  -0.389  0.00  0.00    +0.018 C 
BRANCH  27  29
ATOM     28  C   UNL     1       0.380   0.656   1.019  0.00  0.00    -0.096 C 
ATOM     29  N   UNL     1       0.483  -0.808   0.954  0.00  0.00    +0.382 N 
ATOM     30  C   UNL     1      -0.830  -1.404   1.238  0.00  0.00    -0.096 C 
ATOM     31  H   UNL     1       1.153  -1.128   1.637  0.00  0.00    -0.082 HD
ENDBRANCH  27  29
ENDBRANCH  13  27
ENDBRANCH   1  22
BRANCH  10  32
ATOM     32  N   UNL     1       5.933   5.682   2.381  0.00  0.00    -0.298 N 
ATOM     33  H   UNL     1       5.355   6.266   2.897  0.00  0.00    +0.154 HD
BRANCH  32  34
ATOM     34  C   UNL     1       7.317   5.796   2.491  0.00  0.00    +0.052 A 
ATOM     35  C   UNL     1       8.169   4.747   2.205  0.00  0.00    +0.031 A 
ATOM     36  C   UNL     1       9.504   4.929   2.335  0.00  0.00    +0.048 A 
ATOM     37  S   UNL     1       9.660   6.521   2.847  0.00  0.00    -0.090 S 
ATOM     38  C   UNL     1       7.938   6.979   2.893  0.00  0.00    +0.095 A 
BRANCH  38  39
ATOM     39  C   UNL     1       7.353   8.218   3.247  0.00  0.00    +0.250 C 
ATOM     40  O   UNL     1       6.142   8.349   3.222  0.00  0.00    -0.270 OA
ATOM     41  N   UNL     1       8.135   9.253   3.611  0.00  0.00    -0.325 N 
ATOM     42  H   UNL     1       9.099   9.149   3.631  0.00  0.00    +0.145 HD
ATOM     43  H   UNL     1       7.734  10.103   3.854  0.00  0.00    +0.145 HD
ENDBRANCH  38  39
ENDBRANCH  32  34
ENDBRANCH  10  32
TORSDOF 7
