REMARK  Name = CHEMBL575681
REMARK  4 active torsions:
REMARK  status: ('A' for Active; 'I' for Inactive)
REMARK    1  A    between atoms: C_4  and  N_7
REMARK    2  A    between atoms: C_8  and  C_10
REMARK    3  A    between atoms: N_25  and  C_26
REMARK    4  A    between atoms: C_28  and  C_32
REMARK                            x       y       z     vdW  Elec       q    Type
REMARK                         _______ _______ _______ _____ _____    ______ ____
ROOT
ATOM      1  C   UNL     1       1.844  -1.913  -0.500  0.00  0.00    +0.162 C 
ATOM      2  C   UNL     1       1.796  -1.319  -1.924  0.00  0.00    +0.033 C 
ATOM      3  C   UNL     1       1.909  -2.575  -2.828  0.00  0.00    +0.021 C 
ATOM      4  C   UNL     1       1.113  -3.621  -2.009  0.00  0.00    +0.109 C 
ATOM      5  N   UNL     1       1.437  -3.323  -0.598  0.00  0.00    -0.288 N 
ATOM      6  C   UNL     1       1.370  -4.221   0.459  0.00  0.00    +0.213 A 
ATOM      7  N   UNL     1       1.591  -3.777   1.700  0.00  0.00    -0.198 NA
ATOM      8  C   UNL     1       1.540  -4.587   2.743  0.00  0.00    +0.153 A 
ATOM      9  C   UNL     1       1.244  -5.956   2.543  0.00  0.00    +0.103 A 
ATOM     10  C   UNL     1       1.117  -7.040   3.392  0.00  0.00    +0.032 A 
ATOM     11  C   UNL     1       0.811  -8.143   2.595  0.00  0.00    +0.022 A 
ATOM     12  C   UNL     1       0.757  -7.722   1.303  0.00  0.00    +0.111 A 
ATOM     13  N   UNL     1       1.017  -6.403   1.258  0.00  0.00    -0.257 N 
ATOM     14  N   UNL     1       1.087  -5.476   0.207  0.00  0.00    -0.264 N 
ATOM     15  N   UNL     1       1.773  -4.103   4.015  0.00  0.00    -0.283 N 
ATOM     16  H   UNL     1       1.614  -4.669   4.787  0.00  0.00    +0.155 HD
ATOM     17  H   UNL     1       0.928  -5.765  -0.705  0.00  0.00    +0.190 HD
ENDROOT
BRANCH  15  18
ATOM     18  C   UNL     1       2.236  -2.801   4.191  0.00  0.00    +0.120 A 
ATOM     19  C   UNL     1       2.605  -1.937   3.204  0.00  0.00    +0.068 A 
ATOM     20  C   UNL     1       3.005  -0.742   3.808  0.00  0.00    +0.068 A 
ATOM     21  N   UNL     1       2.885  -0.873   5.105  0.00  0.00    -0.177 NA
ATOM     22  H   UNL     1       2.211  -2.525   6.255  0.00  0.00    +0.190 HD
ATOM     23  N   UNL     1       2.398  -2.158   5.376  0.00  0.00    -0.264 N 
BRANCH  20  24
ATOM     24  C   UNL     1       3.492   0.489   3.089  0.00  0.00    +0.040 C 
ATOM     25  C   UNL     1       4.300   0.283   1.806  0.00  0.00    +0.010 C 
ATOM     26  C   UNL     1       4.999   0.753   3.083  0.00  0.00    +0.010 C 
ENDBRANCH  20  24
ENDBRANCH  15  18
BRANCH   1  28
ATOM     27  N   UNL     1       1.147   0.113   0.736  0.00  0.00    -0.284 N 
ATOM     28  C   UNL     1       0.892  -1.167   0.399  0.00  0.00    +0.238 C 
ATOM     29  O   UNL     1      -0.103  -1.718   0.819  0.00  0.00    -0.273 OA
ATOM     30  H   UNL     1       1.891   0.583   0.328  0.00  0.00    +0.155 HD
BRANCH  27  34
ATOM     31  C   UNL     1      -1.260   2.051   3.530  0.00  0.00    +0.000 A 
ATOM     32  C   UNL     1       0.020   2.514   3.282  0.00  0.00    +0.002 A 
ATOM     33  C   UNL     1       0.820   1.873   2.357  0.00  0.00    +0.023 A 
ATOM     34  C   UNL     1       0.339   0.763   1.675  0.00  0.00    +0.033 A 
ATOM     35  C   UNL     1      -0.946   0.301   1.926  0.00  0.00    +0.023 A 
ATOM     36  C   UNL     1      -1.742   0.946   2.852  0.00  0.00    +0.002 A 
ENDBRANCH  27  34
ENDBRANCH   1  28
TORSDOF 4
