REMARK  Name = CHEMBL400657
REMARK  6 active torsions:
REMARK  status: ('A' for Active; 'I' for Inactive)
REMARK    1  A    between atoms: C_1  and  N_2
REMARK    2  A    between atoms: C_6  and  C_18
REMARK    3  A    between atoms: C_10  and  C_11
REMARK    4  A    between atoms: C_11  and  C_12
REMARK    5  A    between atoms: N_25  and  C_27
REMARK    6  A    between atoms: C_30  and  N_33
REMARK                            x       y       z     vdW  Elec       q    Type
REMARK                         _______ _______ _______ _____ _____    ______ ____
ROOT
ATOM      1  C   UNL     1      -0.382  -4.270  -3.659  0.00  0.00    +0.105 A 
ATOM      2  C   UNL     1      -0.911  -4.229  -5.022  0.00  0.00    +0.086 A 
ATOM      3  C   UNL     1      -1.620  -3.286  -5.785  0.00  0.00    +0.131 A 
ATOM      4  N   UNL     1      -1.948  -3.602  -7.034  0.00  0.00    -0.220 NA
ATOM      5  C   UNL     1      -1.619  -4.773  -7.550  0.00  0.00    +0.225 A 
ATOM      6  N   UNL     1      -0.958  -5.687  -6.874  0.00  0.00    -0.216 NA
ATOM      7  C   UNL     1      -0.583  -5.463  -5.614  0.00  0.00    +0.164 A 
ATOM      8  N   UNL     1       0.091  -6.185  -4.676  0.00  0.00    -0.243 N 
ATOM      9  N   UNL     1       0.204  -5.433  -3.501  0.00  0.00    -0.168 NA
ATOM     10  N   UNL     1      -1.966  -2.060  -5.251  0.00  0.00    -0.342 N 
ATOM     11  H   UNL     1      -1.532  -1.742  -4.444  0.00  0.00    +0.144 HD
ATOM     12  H   UNL     1      -2.644  -1.517  -5.683  0.00  0.00    +0.144 HD
ENDROOT
BRANCH   1  18
ATOM     13  C   UNL     1      -0.190   0.523   1.085  0.00  0.00    +0.150 C 
ATOM     14  N   UNL     1      -1.031  -0.161   0.100  0.00  0.00    -0.330 N 
ATOM     15  C   UNL     1      -0.637  -1.181  -0.744  0.00  0.00    +0.069 A 
ATOM     16  C   UNL     1       0.561  -1.855  -0.948  0.00  0.00    +0.028 A 
ATOM     17  C   UNL     1       0.639  -2.846  -1.884  0.00  0.00    +0.012 A 
ATOM     18  C   UNL     1      -0.481  -3.192  -2.646  0.00  0.00    +0.005 A 
ATOM     19  C   UNL     1      -1.687  -2.530  -2.457  0.00  0.00    +0.040 A 
ATOM     20  C   UNL     1      -1.773  -1.516  -1.501  0.00  0.00    +0.090 A 
ATOM     21  N   UNL     1      -2.779  -0.703  -1.088  0.00  0.00    -0.232 NA
ATOM     22  C   UNL     1      -2.345   0.085  -0.148  0.00  0.00    +0.115 A 
BRANCH  22  23
ATOM     23  C   UNL     1      -3.177   1.123   0.560  0.00  0.00    +0.109 C 
BRANCH  23  24
ATOM     24  C   UNL     1      -3.089   2.431  -0.184  0.00  0.00    -0.040 A 
ATOM     25  C   UNL     1      -2.095   3.339   0.130  0.00  0.00    +0.004 A 
ATOM     26  C   UNL     1      -2.014   4.539  -0.553  0.00  0.00    +0.000 A 
ATOM     27  C   UNL     1      -2.927   4.829  -1.550  0.00  0.00    +0.000 A 
ATOM     28  C   UNL     1      -3.920   3.921  -1.865  0.00  0.00    +0.000 A 
ATOM     29  C   UNL     1      -3.998   2.719  -1.185  0.00  0.00    +0.004 A 
ENDBRANCH  23  24
ENDBRANCH  22  23
ENDBRANCH   1  18
BRANCH   8  30
ATOM     30  C   UNL     1       0.622  -7.537  -4.869  0.00  0.00    +0.109 C 
ATOM     31  C   UNL     1      -0.019  -8.486  -3.855  0.00  0.00    +0.025 C 
ATOM     32  C   UNL     1       0.535  -9.898  -4.056  0.00  0.00    -0.013 C 
ATOM     33  C   UNL     1       2.051  -9.885  -3.853  0.00  0.00    -0.068 C 
ATOM     34  C   UNL     1       2.693  -8.935  -4.867  0.00  0.00    -0.013 C 
ATOM     35  C   UNL     1       2.139  -7.523  -4.666  0.00  0.00    +0.025 C 
BRANCH  33  36
ATOM     36  N   UNL     1       2.583 -11.240  -4.047  0.00  0.00    +0.385 N 
ATOM     37  C   UNL     1       1.968 -12.152  -3.073  0.00  0.00    -0.050 C 
ATOM     38  C   UNL     1       2.524 -13.563  -3.277  0.00  0.00    +0.141 C 
ATOM     39  O   UNL     1       3.947 -13.534  -3.142  0.00  0.00    -0.383 OA
ATOM     40  C   UNL     1       4.592 -12.640  -4.055  0.00  0.00    +0.141 C 
ATOM     41  C   UNL     1       4.040 -11.227  -3.852  0.00  0.00    -0.050 C 
ATOM     42  H   UNL     1       2.372 -11.554  -4.982  0.00  0.00    -0.081 HD
ENDBRANCH  33  36
ENDBRANCH   8  30
TORSDOF 5
