REMARK  Name = CHEMBL591252
REMARK  2 active torsions:
REMARK  status: ('A' for Active; 'I' for Inactive)
REMARK    1  A    between atoms: C_3  and  C_8
REMARK    2  A    between atoms: C_11  and  C_13
REMARK                            x       y       z     vdW  Elec       q    Type
REMARK                         _______ _______ _______ _____ _____    ______ ____
ROOT
ATOM      1  C   UNL     1       3.690   2.247   0.783  0.00  0.00    +0.136 A 
ATOM      2  C   UNL     1       4.905   1.660   0.572  0.00  0.00    +0.050 A 
ATOM      3  C   UNL     1       5.802   2.678   0.237  0.00  0.00    +0.050 A 
ATOM      4  C   UNL     1       5.086   3.862   0.259  0.00  0.00    +0.130 A 
ATOM      5  O   UNL     1       3.809   3.572   0.587  0.00  0.00    -0.455 OA
ENDROOT
BRANCH   4   6
ATOM      6  C   UNL     1       5.599   5.147  -0.019  0.00  0.00    +0.066 C 
ATOM      7  C   UNL     1       4.755   6.216  -0.102  0.00  0.00    +0.082 C 
ATOM      8  C   UNL     1       3.327   6.249  -0.099  0.00  0.00    +0.258 C 
ATOM      9  O   UNL     1       2.677   5.223  -0.014  0.00  0.00    -0.269 OA
ATOM     10  N   UNL     1       2.733   7.426  -0.191  0.00  0.00    -0.243 N 
ATOM     11  C   UNL     1       3.456   8.564  -0.285  0.00  0.00    +0.283 C 
ATOM     12  O   UNL     1       3.062   9.712  -0.375  0.00  0.00    -0.262 OA
ATOM     13  S   UNL     1       5.135   7.958  -0.237  0.00  0.00    -0.026 S 
ATOM     14  H   UNL     1       1.764   7.473  -0.191  0.00  0.00    +0.159 HD
ENDBRANCH   4   6
BRANCH   1  17
ATOM     15  C   UNL     1       0.107   1.592   1.694  0.00  0.00    +0.002 A 
ATOM     16  C   UNL     1       1.263   2.257   1.343  0.00  0.00    +0.011 A 
ATOM     17  C   UNL     1       2.449   1.542   1.160  0.00  0.00    +0.018 A 
ATOM     18  C   UNL     1       2.455   0.155   1.334  0.00  0.00    +0.026 A 
ATOM     19  C   UNL     1       1.290  -0.497   1.685  0.00  0.00    +0.019 A 
ATOM     20  C   UNL     1       0.119   0.220   1.865  0.00  0.00    +0.015 A 
ATOM     21 BR   UNL     1       1.295  -2.373   1.922  0.00  0.00    -0.050 Br
ENDBRANCH   1  17
TORSDOF 2
