REMARK  Name = CHEMBL457322
REMARK  7 active torsions:
REMARK  status: ('A' for Active; 'I' for Inactive)
REMARK    1  A    between atoms: C_1  and  C_2
REMARK    2  A    between atoms: C_2  and  C_3
REMARK    3  A    between atoms: C_2  and  N_4
REMARK    4  A    between atoms: N_7  and  C_10
REMARK    5  A    between atoms: C_13  and  N_18
REMARK    6  A    between atoms: C_14  and  O_16
REMARK    7  A    between atoms: O_16  and  C_17
REMARK                            x       y       z     vdW  Elec       q    Type
REMARK                         _______ _______ _______ _____ _____    ______ ____
ROOT
ATOM      1  N   UNL     1       6.963  -5.047   4.028  0.00  0.00    -0.282 N 
ATOM      2  C   UNL     1       8.211  -4.488   4.154  0.00  0.00    +0.210 A 
ATOM      3  N   UNL     1       8.328  -3.186   4.067  0.00  0.00    -0.197 NA
ATOM      4  C   UNL     1       9.511  -2.564   4.178  0.00  0.00    +0.145 A 
ATOM      5  C   UNL     1      10.668  -3.323   4.395  0.00  0.00    +0.062 A 
ATOM      6  C   UNL     1      11.777  -2.378   4.471  0.00  0.00    +0.032 A 
ATOM      7  C   UNL     1      11.250  -1.152   4.302  0.00  0.00    +0.085 A 
ATOM      8  N   UNL     1       9.894  -1.254   4.126  0.00  0.00    -0.346 N 
ATOM      9  H   UNL     1       9.293  -0.505   3.986  0.00  0.00    +0.167 HD
ATOM     10  C   UNL     1      10.546  -4.776   4.493  0.00  0.00    +0.154 A 
ATOM     11  N   UNL     1       9.283  -5.314   4.370  0.00  0.00    -0.231 N 
ATOM     12  C   UNL     1       9.099  -6.650   4.456  0.00  0.00    +0.271 A 
ATOM     13  O   UNL     1       7.990  -7.140   4.343  0.00  0.00    -0.266 OA
ATOM     14  C   UNL     1      10.277  -7.489   4.688  0.00  0.00    +0.100 A 
ATOM     15  C   UNL     1      11.539  -6.856   4.809  0.00  0.00    +0.081 A 
ATOM     16  N   UNL     1      11.615  -5.519   4.697  0.00  0.00    -0.228 NA
ATOM     17  C   UNL     1      12.678  -7.638   5.030  0.00  0.00    +0.029 A 
ATOM     18  C   UNL     1      12.563  -8.995   5.127  0.00  0.00    +0.005 A 
ATOM     19  C   UNL     1      11.329  -9.620   5.008  0.00  0.00    +0.039 A 
ATOM     20  C   UNL     1      10.184  -8.880   4.790  0.00  0.00    +0.138 A 
ATOM     21  F   UNL     1       8.986  -9.493   4.676  0.00  0.00    -0.205 F 
ATOM     22  H   UNL     1       6.841  -5.998   4.175  0.00  0.00    +0.155 HD
ENDROOT
BRANCH   1  26
ATOM     23  C   UNL     1       3.695  -2.653   3.016  0.00  0.00    +0.033 A 
ATOM     24  C   UNL     1       4.986  -2.219   2.748  0.00  0.00    +0.025 A 
ATOM     25  C   UNL     1       6.067  -3.011   3.083  0.00  0.00    +0.029 A 
ATOM     26  C   UNL     1       5.865  -4.242   3.689  0.00  0.00    +0.076 A 
ATOM     27  C   UNL     1       4.570  -4.680   3.959  0.00  0.00    +0.143 A 
ATOM     28  C   UNL     1       3.488  -3.883   3.627  0.00  0.00    +0.070 A 
BRANCH  23  32
ATOM     29  N   UNL     1       0.586  -0.717   1.120  0.00  0.00    -0.297 NA
ATOM     30  C   UNL     1       1.984  -0.352   0.853  0.00  0.00    +0.103 C 
ATOM     31  C   UNL     1       2.800  -0.492   2.143  0.00  0.00    +0.120 C 
ATOM     32  N   UNL     1       2.602  -1.849   2.676  0.00  0.00    -0.327 N 
ATOM     33  C   UNL     1       1.224  -2.337   2.842  0.00  0.00    +0.120 C 
ATOM     34  C   UNL     1       0.471  -2.124   1.525  0.00  0.00    +0.103 C 
BRANCH  29  36
ATOM     35  C   UNL     1      -0.213   1.064  -0.359  0.00  0.00    +0.024 C 
ATOM     36  C   UNL     1      -0.263  -0.433  -0.045  0.00  0.00    +0.051 C 
ATOM     37  C   UNL     1       0.244  -1.225  -1.251  0.00  0.00    +0.024 C 
ENDBRANCH  29  36
ENDBRANCH  23  32
BRANCH  27  38
ATOM     38  O   UNL     1       4.370  -5.887   4.552  0.00  0.00    -0.493 OA
ATOM     39  C   UNL     1       3.016  -6.272   4.799  0.00  0.00    +0.277 C 
ENDBRANCH  27  38
ENDBRANCH   1  26
TORSDOF 4
