REMARK  Name = CHEMBL458438
REMARK  9 active torsions:
REMARK  status: ('A' for Active; 'I' for Inactive)
REMARK    1  A    between atoms: C_1  and  C_2
REMARK    2  A    between atoms: C_2  and  C_3
REMARK    3  A    between atoms: C_2  and  N_4
REMARK    4  A    between atoms: N_7  and  C_10
REMARK    5  A    between atoms: C_13  and  N_18
REMARK    6  A    between atoms: C_14  and  O_16
REMARK    7  A    between atoms: O_16  and  C_17
REMARK    8  A    between atoms: C_27  and  N_29
REMARK    9  A    between atoms: N_29  and  C_30
REMARK                            x       y       z     vdW  Elec       q    Type
REMARK                         _______ _______ _______ _____ _____    ______ ____
ROOT
ATOM      1  N   UNL     1      -0.151  -5.106   7.979  0.00  0.00    -0.281 N 
ATOM      2  C   UNL     1       0.583  -6.257   8.216  0.00  0.00    +0.223 A 
ATOM      3  N   UNL     1       1.632  -6.511   7.450  0.00  0.00    -0.196 NA
ATOM      4  C   UNL     1       2.365  -7.606   7.644  0.00  0.00    +0.145 A 
ATOM      5  C   UNL     1       2.000  -8.486   8.680  0.00  0.00    +0.059 A 
ATOM      6  C   UNL     1       2.974  -9.578   8.649  0.00  0.00    +0.032 A 
ATOM      7  C   UNL     1       3.827  -9.309   7.649  0.00  0.00    +0.085 A 
ATOM      8  N   UNL     1       3.473  -8.131   7.039  0.00  0.00    -0.346 N 
ATOM      9  H   UNL     1       3.940  -7.730   6.290  0.00  0.00    +0.167 HD
ATOM     10  C   UNL     1       0.880  -8.177   9.467  0.00  0.00    +0.137 A 
ATOM     11  N   UNL     1       0.211  -7.059   9.205  0.00  0.00    -0.198 NA
ATOM     12  H   UNL     1      -0.871  -4.858   8.580  0.00  0.00    +0.155 HD
ENDROOT
BRANCH   1  16
ATOM     13  C   UNL     1       0.732  -2.707   4.677  0.00  0.00    +0.033 A 
ATOM     14  C   UNL     1       0.878  -4.086   4.595  0.00  0.00    +0.025 A 
ATOM     15  C   UNL     1       0.586  -4.879   5.688  0.00  0.00    +0.029 A 
ATOM     16  C   UNL     1       0.146  -4.300   6.869  0.00  0.00    +0.076 A 
ATOM     17  C   UNL     1      -0.001  -2.917   6.954  0.00  0.00    +0.143 A 
ATOM     18  C   UNL     1       0.298  -2.123   5.859  0.00  0.00    +0.070 A 
BRANCH  13  22
ATOM     19  N   UNL     1       2.464  -0.255   1.830  0.00  0.00    +0.383 N 
ATOM     20  C   UNL     1       2.049   0.265   3.138  0.00  0.00    -0.059 C 
ATOM     21  C   UNL     1       0.777  -0.457   3.594  0.00  0.00    +0.086 C 
ATOM     22  N   UNL     1       1.029  -1.906   3.568  0.00  0.00    -0.333 N 
ATOM     23  C   UNL     1       1.602  -2.489   2.345  0.00  0.00    +0.086 C 
ATOM     24  C   UNL     1       2.835  -1.671   1.949  0.00  0.00    -0.059 C 
ATOM     25  H   UNL     1       1.701  -0.162   1.176  0.00  0.00    -0.081 HD
BRANCH  19  27
ATOM     26  C   UNL     1       4.046  -0.021  -0.025  0.00  0.00    -0.014 C 
ATOM     27  C   UNL     1       3.619   0.512   1.344  0.00  0.00    -0.075 C 
ATOM     28  C   UNL     1       3.235   1.988   1.219  0.00  0.00    -0.014 C 
ENDBRANCH  19  27
ENDBRANCH  13  22
BRANCH  17  29
ATOM     29  O   UNL     1      -0.431  -2.348   8.111  0.00  0.00    -0.493 OA
ATOM     30  C   UNL     1      -0.558  -0.924   8.125  0.00  0.00    +0.277 C 
ENDBRANCH  17  29
ENDBRANCH   1  16
BRANCH  10  31
ATOM     31  N   UNL     1       0.485  -9.014  10.496  0.00  0.00    -0.298 N 
ATOM     32  H   UNL     1       0.928  -9.868  10.624  0.00  0.00    +0.154 HD
BRANCH  31  33
ATOM     33  C   UNL     1      -0.548  -8.631  11.349  0.00  0.00    +0.042 A 
ATOM     34  C   UNL     1      -0.842  -7.295  11.530  0.00  0.00    +0.024 A 
ATOM     35  C   UNL     1      -1.871  -6.905  12.380  0.00  0.00    +0.004 A 
ATOM     36  C   UNL     1      -2.616  -7.825  13.053  0.00  0.00    +0.028 A 
ATOM     37  C   UNL     1      -2.351  -9.196  12.897  0.00  0.00    +0.073 A 
ATOM     38  C   UNL     1      -1.308  -9.604  12.030  0.00  0.00    +0.022 A 
ATOM     39  C   UNL     1      -1.048 -10.976  11.873  0.00  0.00    +0.013 A 
ATOM     40  C   UNL     1      -1.824 -11.863  12.565  0.00  0.00    +0.020 A 
ATOM     41  C   UNL     1      -2.838 -11.397  13.397  0.00  0.00    +0.111 A 
ATOM     42  N   UNL     1      -3.070 -10.115  13.550  0.00  0.00    -0.255 NA
ENDBRANCH  31  33
ENDBRANCH  10  31
TORSDOF 6
