REMARK  Name = CHEMBL1090355
REMARK  7 active torsions:
REMARK  status: ('A' for Active; 'I' for Inactive)
REMARK    1  A    between atoms: C_4  and  O_7
REMARK    2  A    between atoms: O_7  and  C_8
REMARK    3  A    between atoms: N_10  and  C_11
REMARK    4  A    between atoms: C_15  and  C_17
REMARK    5  A    between atoms: C_18  and  C_25
REMARK    6  A    between atoms: N_31  and  C_32
REMARK    7  A    between atoms: C_35  and  N_38
REMARK                            x       y       z     vdW  Elec       q    Type
REMARK                         _______ _______ _______ _____ _____    ______ ____
ROOT
ATOM      1  C   UNL     1       6.981  -6.953  -0.236  0.00  0.00    +0.100 A 
ATOM      2  C   UNL     1       7.183  -8.171   0.387  0.00  0.00    +0.100 A 
ATOM      3  N   UNL     1       8.504  -8.553   0.122  0.00  0.00    -0.291 N 
ATOM      4  C   UNL     1       9.344  -9.603   0.416  0.00  0.00    +0.101 A 
ATOM      5  C   UNL     1      10.599  -9.620  -0.032  0.00  0.00    +0.067 A 
ATOM      6  S   UNL     1      10.684  -8.085  -0.943  0.00  0.00    -0.058 S 
ATOM      7  C   UNL     1       9.017  -7.542  -0.645  0.00  0.00    +0.178 A 
ATOM      8  N   UNL     1       8.123  -6.616  -0.854  0.00  0.00    -0.221 NA
ENDROOT
BRANCH   2   9
ATOM      9  C   UNL     1       6.198  -8.923   1.179  0.00  0.00    +0.095 A 
ATOM     10  C   UNL     1       6.310 -10.315   1.324  0.00  0.00    +0.050 A 
ATOM     11  C   UNL     1       5.361 -10.975   2.077  0.00  0.00    +0.116 A 
ATOM     12  N   UNL     1       4.379 -10.283   2.637  0.00  0.00    -0.223 NA
ATOM     13  C   UNL     1       4.294  -8.969   2.485  0.00  0.00    +0.220 A 
ATOM     14  N   UNL     1       5.184  -8.291   1.778  0.00  0.00    -0.213 NA
ATOM     15  N   UNL     1       3.251  -8.287   3.089  0.00  0.00    -0.284 N 
ATOM     16  H   UNL     1       3.131  -7.339   2.922  0.00  0.00    +0.155 HD
BRANCH  15  17
ATOM     17  C   UNL     1       2.369  -8.965   3.940  0.00  0.00    +0.034 A 
ATOM     18  C   UNL     1       2.838  -9.992   4.750  0.00  0.00    +0.025 A 
ATOM     19  C   UNL     1       1.969 -10.660   5.589  0.00  0.00    +0.025 A 
ATOM     20  C   UNL     1       0.627 -10.306   5.623  0.00  0.00    +0.030 A 
ATOM     21  C   UNL     1       0.158  -9.279   4.814  0.00  0.00    +0.025 A 
ATOM     22  C   UNL     1       1.028  -8.607   3.979  0.00  0.00    +0.025 A 
BRANCH  20  23
ATOM     23  N   UNL     1      -0.254 -10.984   6.474  0.00  0.00    -0.326 N 
ATOM     24  C   UNL     1      -1.700 -10.713   6.439  0.00  0.00    +0.133 C 
ATOM     25  C   UNL     1      -2.440 -12.050   6.320  0.00  0.00    +0.178 C 
ATOM     26  O   UNL     1      -1.985 -12.934   7.347  0.00  0.00    -0.377 OA
ATOM     27  C   UNL     1      -0.597 -13.265   7.260  0.00  0.00    +0.178 C 
ATOM     28  C   UNL     1       0.237 -11.995   7.424  0.00  0.00    +0.133 C 
ENDBRANCH  20  23
ENDBRANCH  15  17
ENDBRANCH   2   9
BRANCH   1  33
ATOM     29  C   UNL     1       4.597  -4.042  -0.206  0.00  0.00    +0.037 A 
ATOM     30  C   UNL     1       3.372  -4.698  -0.214  0.00  0.00    +0.023 A 
ATOM     31  C   UNL     1       3.324  -6.079  -0.229  0.00  0.00    +0.002 A 
ATOM     32  C   UNL     1       4.492  -6.815  -0.236  0.00  0.00    +0.010 A 
ATOM     33  C   UNL     1       5.726  -6.165  -0.229  0.00  0.00    +0.004 A 
ATOM     34  C   UNL     1       5.775  -4.772  -0.219  0.00  0.00    +0.033 A 
BRANCH  29  37
ATOM     35  C   UNL     1       5.706  -1.997  -0.707  0.00  0.00    +0.410 C 
ATOM     36  O   UNL     1       6.574  -2.621  -1.284  0.00  0.00    -0.226 OA
ATOM     37  N   UNL     1       4.642  -2.643  -0.191  0.00  0.00    -0.251 N 
ATOM     38  H   UNL     1       3.906  -2.138   0.191  0.00  0.00    +0.158 HD
BRANCH  35  39
ATOM     39  O   UNL     1       5.807  -0.659  -0.583  0.00  0.00    -0.411 OA
BRANCH  39  43
ATOM     40  C   UNL     1       8.945   1.231  -2.481  0.00  0.00    +0.000 A 
ATOM     41  C   UNL     1       7.962   0.607  -3.227  0.00  0.00    +0.004 A 
ATOM     42  C   UNL     1       6.910  -0.026  -2.594  0.00  0.00    +0.046 A 
ATOM     43  C   UNL     1       6.841  -0.037  -1.208  0.00  0.00    +0.133 A 
ATOM     44  C   UNL     1       7.829   0.590  -0.462  0.00  0.00    +0.046 A 
ATOM     45  C   UNL     1       8.878   1.222  -1.100  0.00  0.00    +0.004 A 
ENDBRANCH  39  43
ENDBRANCH  35  39
ENDBRANCH  29  37
ENDBRANCH   1  33
TORSDOF 7
