REMARK  Name = CHEMBL575447
REMARK  4 active torsions:
REMARK  status: ('A' for Active; 'I' for Inactive)
REMARK    1  A    between atoms: C_1  and  C_2
REMARK    2  A    between atoms: C_2  and  C_26
REMARK    3  A    between atoms: N_16  and  C_17
REMARK    4  A    between atoms: C_19  and  C_23
REMARK                            x       y       z     vdW  Elec       q    Type
REMARK                         _______ _______ _______ _____ _____    ______ ____
ROOT
ATOM      1  C   UNL     1      -0.159   0.095  -0.236  0.00  0.00    +0.042 C 
ATOM      2  C   UNL     1      -0.851  -1.257  -0.055  0.00  0.00    +0.111 C 
ATOM      3  C   UNL     1      -0.847  -2.032  -1.389  0.00  0.00    +0.037 C 
ATOM      4  C   UNL     1      -0.595  -3.496  -0.941  0.00  0.00    +0.022 C 
ATOM      5  C   UNL     1       0.367  -3.293   0.256  0.00  0.00    +0.109 C 
ATOM      6  N   UNL     1      -0.113  -2.070   0.924  0.00  0.00    -0.286 N 
ATOM      7  C   UNL     1       0.096  -1.739   2.256  0.00  0.00    +0.213 A 
ATOM      8  N   UNL     1      -0.678  -0.808   2.821  0.00  0.00    -0.198 NA
ATOM      9  C   UNL     1      -0.523  -0.454   4.085  0.00  0.00    +0.153 A 
ATOM     10  C   UNL     1       0.485  -1.075   4.859  0.00  0.00    +0.103 A 
ATOM     11  C   UNL     1       0.900  -0.942   6.171  0.00  0.00    +0.032 A 
ATOM     12  C   UNL     1       1.954  -1.837   6.354  0.00  0.00    +0.022 A 
ATOM     13  C   UNL     1       2.159  -2.486   5.177  0.00  0.00    +0.111 A 
ATOM     14  N   UNL     1       1.278  -2.035   4.266  0.00  0.00    -0.257 N 
ATOM     15  N   UNL     1       1.044  -2.355   2.921  0.00  0.00    -0.264 N 
ATOM     16  N   UNL     1      -1.337   0.512   4.644  0.00  0.00    -0.283 N 
ATOM     17  H   UNL     1      -1.226   0.759   5.576  0.00  0.00    +0.155 HD
ATOM     18  H   UNL     1       1.586  -3.029   2.481  0.00  0.00    +0.190 HD
ENDROOT
BRANCH   2  19
ATOM     19  C   UNL     1      -2.267  -1.049   0.416  0.00  0.00    +0.242 C 
ATOM     20  O   UNL     1      -2.936  -0.152  -0.053  0.00  0.00    -0.273 OA
ATOM     21  N   UNL     1      -2.790  -1.858   1.358  0.00  0.00    -0.267 N 
ATOM     22  C   UNL     1      -4.131  -1.734   1.718  0.00  0.00    +0.143 A 
ATOM     23  C   UNL     1      -4.643  -2.483   2.774  0.00  0.00    +0.154 A 
ATOM     24  N   UNL     1      -5.913  -2.362   3.111  0.00  0.00    -0.258 NA
ATOM     25  C   UNL     1      -6.699  -1.530   2.448  0.00  0.00    +0.130 A 
ATOM     26  C   UNL     1      -6.194  -0.785   1.399  0.00  0.00    +0.132 A 
ATOM     27  N   UNL     1      -4.921  -0.897   1.059  0.00  0.00    -0.237 NA
ATOM     28  H   UNL     1      -2.233  -2.527   1.786  0.00  0.00    +0.156 HD
ENDBRANCH   2  19
BRANCH  16  29
ATOM     29  C   UNL     1      -2.316   1.131   3.871  0.00  0.00    +0.120 A 
ATOM     30  C   UNL     1      -2.293   1.289   2.518  0.00  0.00    +0.068 A 
ATOM     31  C   UNL     1      -3.462   1.958   2.146  0.00  0.00    +0.068 A 
ATOM     32  N   UNL     1      -4.164   2.197   3.224  0.00  0.00    -0.177 NA
ATOM     33  H   UNL     1      -3.761   1.716   5.251  0.00  0.00    +0.190 HD
ATOM     34  N   UNL     1      -3.470   1.683   4.327  0.00  0.00    -0.264 N 
BRANCH  31  35
ATOM     35  C   UNL     1      -3.848   2.341   0.740  0.00  0.00    +0.040 C 
ATOM     36  C   UNL     1      -2.838   2.053  -0.373  0.00  0.00    +0.010 C 
ATOM     37  C   UNL     1      -3.081   3.492   0.086  0.00  0.00    +0.010 C 
ENDBRANCH  31  35
ENDBRANCH  16  29
TORSDOF 3
