REMARK  Name = CHEMBL251795
REMARK  7 active torsions:
REMARK  status: ('A' for Active; 'I' for Inactive)
REMARK    1  A    between atoms: C_1  and  C_2
REMARK    2  A    between atoms: C_5  and  S_22
REMARK    3  A    between atoms: C_7  and  C_8
REMARK    4  A    between atoms: C_16  and  C_18
REMARK    5  A    between atoms: C_18  and  C_20
REMARK    6  A    between atoms: C_18  and  N_21
REMARK    7  A    between atoms: S_22  and  C_23
REMARK                            x       y       z     vdW  Elec       q    Type
REMARK                         _______ _______ _______ _____ _____    ______ ____
ROOT
ATOM      1  C   UNL     1      -0.415   1.431   0.026  0.00  0.00    +0.044 C 
ATOM      2  C   UNL     1      -0.194  -0.060   0.017  0.00  0.00    -0.038 A 
ATOM      3  C   UNL     1      -0.315  -0.768  -1.162  0.00  0.00    +0.005 A 
ATOM      4  C   UNL     1      -0.113  -2.135  -1.176  0.00  0.00    +0.015 A 
ATOM      5  C   UNL     1       0.214  -2.806  -0.003  0.00  0.00    +0.014 A 
ATOM      6  C   UNL     1       0.338  -2.103   1.187  0.00  0.00    +0.028 A 
ATOM      7  C   UNL     1       0.140  -0.723   1.199  0.00  0.00    +0.041 A 
ENDROOT
BRANCH   7   8
ATOM      8  C   UNL     1       0.277   0.035   2.461  0.00  0.00    +0.247 C 
ATOM      9  O   UNL     1      -0.637   0.734   2.853  0.00  0.00    -0.270 OA
ATOM     10  N   UNL     1       1.415  -0.049   3.178  0.00  0.00    -0.295 N 
ATOM     11  C   UNL     1       2.497  -0.951   2.759  0.00  0.00    +0.127 C 
ATOM     12  C   UNL     1       3.788  -0.135   2.616  0.00  0.00    +0.127 C 
ATOM     13  N   UNL     1       3.969   0.674   3.830  0.00  0.00    -0.297 N 
ATOM     14  C   UNL     1       2.887   1.575   4.248  0.00  0.00    +0.127 C 
ATOM     15  C   UNL     1       1.599   0.763   4.388  0.00  0.00    +0.127 C 
ATOM     16  C   UNL     1       5.108   0.589   4.546  0.00  0.00    +0.232 C 
ATOM     17  O   UNL     1       5.994  -0.159   4.191  0.00  0.00    -0.274 OA
BRANCH  16  18
ATOM     18  C   UNL     1       5.279   1.425   5.789  0.00  0.00    +0.135 C 
ATOM     19  C   UNL     1       5.678   2.848   5.395  0.00  0.00    +0.033 C 
BRANCH  18  20
ATOM     20  N   UNL     1       6.329   0.838   6.632  0.00  0.00    -0.320 NA
ATOM     21  H   UNL     1       7.210   0.803   6.141  0.00  0.00    +0.119 HD
ATOM     22  H   UNL     1       6.419   1.342   7.501  0.00  0.00    +0.119 HD
ENDBRANCH  18  20
ENDBRANCH  16  18
ENDBRANCH   7   8
BRANCH   5  23
ATOM     23  S   UNL     1       0.469  -4.550  -0.027  0.00  0.00    -0.081 S 
BRANCH  23  24
ATOM     24  C   UNL     1      -1.152  -5.220   0.146  0.00  0.00    +0.071 A 
ATOM     25  C   UNL     1      -1.546  -6.516   0.285  0.00  0.00    +0.135 A 
ATOM     26  N   UNL     1      -2.831  -6.798   0.401  0.00  0.00    -0.232 NA
ATOM     27  C   UNL     1      -3.747  -5.846   0.386  0.00  0.00    +0.164 A 
ATOM     28  S   UNL     1      -2.733  -4.386   0.196  0.00  0.00    -0.045 S 
ATOM     29  N   UNL     1      -5.129  -5.951   0.493  0.00  0.00    -0.279 N 
ATOM     30  C   UNL     1      -5.714  -7.186   0.752  0.00  0.00    +0.126 A 
ATOM     31  C   UNL     1      -7.100  -7.306   0.747  0.00  0.00    +0.044 A 
ATOM     32  C   UNL     1      -7.670  -8.540   1.006  0.00  0.00    +0.006 A 
ATOM     33  C   UNL     1      -6.832  -9.617   1.261  0.00  0.00    +0.035 A 
ATOM     34  C   UNL     1      -5.463  -9.426   1.250  0.00  0.00    +0.108 A 
ATOM     35  N   UNL     1      -4.947  -8.238   0.995  0.00  0.00    -0.225 NA
ATOM     36 BR   UNL     1      -4.314 -10.887   1.597  0.00  0.00    -0.029 Br
ATOM     37  H   UNL     1      -5.685  -5.163   0.388  0.00  0.00    +0.155 HD
ENDBRANCH  23  24
ENDBRANCH   5  23
TORSDOF 5
