REMARK  Name = CHEMBL551263
REMARK  5 active torsions:
REMARK  status: ('A' for Active; 'I' for Inactive)
REMARK    1  A    between atoms: C_1  and  N_2
REMARK    2  A    between atoms: N_5  and  C_8
REMARK    3  A    between atoms: C_10  and  C_12
REMARK    4  A    between atoms: C_13  and  C_28
REMARK    5  A    between atoms: C_19  and  C_22
REMARK                            x       y       z     vdW  Elec       q    Type
REMARK                         _______ _______ _______ _____ _____    ______ ____
ROOT
ATOM      1  C   UNL     1      -1.600  -6.058   3.785  0.00  0.00    -0.009 A 
ATOM      2  C   UNL     1      -2.256  -5.964   5.001  0.00  0.00    +0.008 A 
ATOM      3  C   UNL     1      -2.587  -7.121   5.727  0.00  0.00    +0.011 A 
ATOM      4  C   UNL     1      -2.270  -8.353   5.251  0.00  0.00    +0.011 A 
ATOM      5  C   UNL     1      -1.604  -8.481   4.020  0.00  0.00    +0.001 A 
ATOM      6  C   UNL     1      -1.270  -7.322   3.273  0.00  0.00    +0.076 A 
ATOM      7  N   UNL     1      -0.641  -7.443   2.099  0.00  0.00    -0.246 NA
ATOM      8  C   UNL     1      -0.326  -8.627   1.610  0.00  0.00    +0.072 A 
ATOM      9  C   UNL     1      -0.636  -9.810   2.298  0.00  0.00    +0.029 A 
ATOM     10  C   UNL     1      -1.265  -9.748   3.507  0.00  0.00    +0.012 A 
ENDROOT
BRANCH   2  11
ATOM     11  C   UNL     1      -2.612  -4.633   5.541  0.00  0.00    +0.100 A 
ATOM     12  C   UNL     1      -2.237  -4.116   6.775  0.00  0.00    +0.113 A 
ATOM     13  C   UNL     1      -1.470  -4.594   7.858  0.00  0.00    +0.142 A 
ATOM     14  N   UNL     1      -1.299  -3.828   8.920  0.00  0.00    -0.237 NA
ATOM     15  C   UNL     1      -1.839  -2.605   8.988  0.00  0.00    +0.131 A 
ATOM     16  C   UNL     1      -2.579  -2.103   7.982  0.00  0.00    +0.112 A 
ATOM     17  N   UNL     1      -2.792  -2.854   6.849  0.00  0.00    -0.301 N 
ATOM     18  C   UNL     1      -3.464  -2.646   5.702  0.00  0.00    +0.204 A 
ATOM     19  N   UNL     1      -3.353  -3.696   4.928  0.00  0.00    -0.235 NA
ATOM     20  N   UNL     1      -0.902  -5.856   7.809  0.00  0.00    -0.341 N 
ATOM     21  H   UNL     1      -0.927  -6.367   6.985  0.00  0.00    +0.144 HD
ATOM     22  H   UNL     1      -0.480  -6.229   8.599  0.00  0.00    +0.144 HD
ENDBRANCH   2  11
BRANCH   8  23
ATOM     23  C   UNL     1       0.371  -8.710   0.304  0.00  0.00    +0.000 A 
ATOM     24  C   UNL     1       0.708  -9.951  -0.232  0.00  0.00    +0.010 A 
ATOM     25  C   UNL     1       1.357 -10.022  -1.448  0.00  0.00    +0.001 A 
ATOM     26  C   UNL     1       1.673  -8.864  -2.135  0.00  0.00    +0.000 A 
ATOM     27  C   UNL     1       1.342  -7.628  -1.607  0.00  0.00    +0.001 A 
ATOM     28  C   UNL     1       0.688  -7.546  -0.395  0.00  0.00    +0.010 A 
ENDBRANCH   8  23
BRANCH   1  31
ATOM     29  C   UNL     1      -0.422  -4.176   1.169  0.00  0.00    -0.067 C 
ATOM     30  C   UNL     1      -1.762  -4.820   1.563  0.00  0.00    -0.007 C 
ATOM     31  C   UNL     1      -1.249  -4.812   3.013  0.00  0.00    +0.019 C 
ATOM     32  C   UNL     1       0.173  -4.830   2.427  0.00  0.00    -0.007 C 
BRANCH  29  37
ATOM     33  C   UNL     1       0.330   1.326   0.220  0.00  0.00    +0.104 C 
ATOM     34  N   UNL     1       0.313  -0.143   0.214  0.00  0.00    -0.309 NA
ATOM     35  C   UNL     1      -1.054  -0.653   0.040  0.00  0.00    +0.065 C 
ATOM     36  C   UNL     1      -1.021  -2.182  -0.021  0.00  0.00    -0.063 C 
ATOM     37  N   UNL     1      -0.437  -2.708   1.220  0.00  0.00    +0.383 N 
ATOM     38  C   UNL     1       0.936  -2.210   1.367  0.00  0.00    -0.063 C 
ATOM     39  C   UNL     1       0.919  -0.681   1.440  0.00  0.00    +0.065 C 
ATOM     40  H   UNL     1      -0.991  -2.405   2.007  0.00  0.00    -0.081 HD
ENDBRANCH  29  37
ENDBRANCH   1  31
TORSDOF 4
