REMARK  Name = CHEMBL551264
REMARK  9 active torsions:
REMARK  status: ('A' for Active; 'I' for Inactive)
REMARK    1  A    between atoms: C_3  and  O_28
REMARK    2  A    between atoms: C_4  and  O_27
REMARK    3  A    between atoms: C_6  and  C_7
REMARK    4  A    between atoms: C_7  and  N_8
REMARK    5  A    between atoms: N_8  and  C_9
REMARK    6  A    between atoms: N_8  and  C_18
REMARK    7  A    between atoms: C_9  and  C_10
REMARK    8  A    between atoms: C_13  and  O_17
REMARK    9  A    between atoms: C_14  and  O_16
REMARK                            x       y       z     vdW  Elec       q    Type
REMARK                         _______ _______ _______ _____ _____    ______ ____
ROOT
ATOM      1  N   UNL     1      -1.727  -1.016  -1.368  0.00  0.00    -0.321 N 
ENDROOT
BRANCH   1   2
ATOM      2  C   UNL     1      -2.552  -0.089  -2.015  0.00  0.00    +0.034 A 
ATOM      3  C   UNL     1      -2.956   1.062  -1.352  0.00  0.00    +0.027 A 
ATOM      4  C   UNL     1      -3.772   1.978  -1.990  0.00  0.00    +0.051 A 
ATOM      5  C   UNL     1      -4.188   1.750  -3.292  0.00  0.00    +0.166 A 
ATOM      6  C   UNL     1      -3.784   0.597  -3.959  0.00  0.00    +0.168 A 
ATOM      7  C   UNL     1      -2.963  -0.318  -3.321  0.00  0.00    +0.072 A 
ATOM      8  O   UNL     1      -4.322   0.607  -5.213  0.00  0.00    -0.453 OA
ATOM      9  C   UNL     1      -5.388   1.573  -5.167  0.00  0.00    +0.466 C 
ATOM     10  O   UNL     1      -4.980   2.484  -4.129  0.00  0.00    -0.453 OA
ENDBRANCH   1   2
BRANCH   1  11
ATOM     11  C   UNL     1      -1.294  -0.774   0.010  0.00  0.00    +0.140 C 
BRANCH  11  17
ATOM     12  C   UNL     1      -0.017   1.378   0.010  0.00  0.00    +0.009 A 
ATOM     13  C   UNL     1       1.169   2.089   0.002  0.00  0.00    +0.049 A 
ATOM     14  C   UNL     1       2.380   1.415  -0.013  0.00  0.00    +0.158 A 
ATOM     15  C   UNL     1       2.399   0.024  -0.021  0.00  0.00    +0.159 A 
ATOM     16  C   UNL     1       1.207  -0.682  -0.013  0.00  0.00    +0.054 A 
ATOM     17  C   UNL     1       0.002  -0.004   0.002  0.00  0.00    -0.027 A 
BRANCH  15  18
ATOM     18  O   UNL     1       3.585  -0.641  -0.036  0.00  0.00    -0.503 OA
ATOM     19  H   UNL     1       3.937  -0.839   0.843  0.00  0.00    +0.292 HD
ENDBRANCH  15  18
BRANCH  14  20
ATOM     20  O   UNL     1       3.548   2.113  -0.021  0.00  0.00    -0.503 OA
ATOM     21  H   UNL     1       3.894   2.310   0.860  0.00  0.00    +0.292 HD
ENDBRANCH  14  20
ENDBRANCH  11  17
ENDBRANCH   1  11
BRANCH   1  22
ATOM     22  C   UNL     1      -1.295  -2.227  -2.070  0.00  0.00    +0.140 C 
BRANCH  22  23
ATOM     23  C   UNL     1      -2.295  -3.329  -1.829  0.00  0.00    -0.027 A 
ATOM     24  C   UNL     1      -2.143  -4.174  -0.745  0.00  0.00    +0.009 A 
ATOM     25  C   UNL     1      -3.057  -5.186  -0.520  0.00  0.00    +0.049 A 
ATOM     26  C   UNL     1      -4.128  -5.357  -1.382  0.00  0.00    +0.158 A 
ATOM     27  C   UNL     1      -4.281  -4.506  -2.473  0.00  0.00    +0.159 A 
ATOM     28  C   UNL     1      -3.365  -3.490  -2.690  0.00  0.00    +0.054 A 
BRANCH  27  29
ATOM     29  O   UNL     1      -5.331  -4.669  -3.322  0.00  0.00    -0.503 OA
ATOM     30  H   UNL     1      -6.120  -4.168  -3.072  0.00  0.00    +0.292 HD
ENDBRANCH  27  29
BRANCH  26  31
ATOM     31  O   UNL     1      -5.028  -6.352  -1.163  0.00  0.00    -0.503 OA
ATOM     32  H   UNL     1      -5.773  -6.093  -0.604  0.00  0.00    +0.292 HD
ENDBRANCH  26  31
ENDBRANCH  22  23
ENDBRANCH   1  22
TORSDOF 9
