REMARK  Name = CHEMBL510646
REMARK  10 active torsions:
REMARK  status: ('A' for Active; 'I' for Inactive)
REMARK    1  A    between atoms: C_1  and  C_2
REMARK    2  A    between atoms: C_2  and  C_3
REMARK    3  A    between atoms: C_2  and  N_4
REMARK    4  A    between atoms: N_7  and  C_10
REMARK    5  A    between atoms: C_13  and  N_18
REMARK    6  A    between atoms: C_14  and  O_16
REMARK    7  A    between atoms: O_16  and  C_17
REMARK    8  A    between atoms: C_27  and  N_29
REMARK    9  A    between atoms: N_29  and  C_30
REMARK   10  A    between atoms: C_35  and  N_36
REMARK                            x       y       z     vdW  Elec       q    Type
REMARK                         _______ _______ _______ _____ _____    ______ ____
ROOT
ATOM      1  N   UNL     1      -6.756  -5.121  -4.222  0.00  0.00    -0.281 N 
ATOM      2  C   UNL     1      -6.801  -6.491  -4.023  0.00  0.00    +0.223 A 
ATOM      3  N   UNL     1      -6.174  -7.002  -2.976  0.00  0.00    -0.196 NA
ATOM      4  C   UNL     1      -6.192  -8.315  -2.748  0.00  0.00    +0.145 A 
ATOM      5  C   UNL     1      -6.891  -9.145  -3.643  0.00  0.00    +0.059 A 
ATOM      6  C   UNL     1      -6.734 -10.510  -3.141  0.00  0.00    +0.032 A 
ATOM      7  C   UNL     1      -5.987 -10.431  -2.028  0.00  0.00    +0.085 A 
ATOM      8  N   UNL     1      -5.656  -9.122  -1.782  0.00  0.00    -0.346 N 
ATOM      9  H   UNL     1      -5.122  -8.814  -1.034  0.00  0.00    +0.167 HD
ATOM     10  C   UNL     1      -7.541  -8.560  -4.741  0.00  0.00    +0.137 A 
ATOM     11  N   UNL     1      -7.475  -7.241  -4.886  0.00  0.00    -0.198 NA
ATOM     12  H   UNL     1      -7.278  -4.717  -4.934  0.00  0.00    +0.155 HD
ENDROOT
BRANCH   1  16
ATOM     13  C   UNL     1      -4.376  -2.729  -1.763  0.00  0.00    +0.033 A 
ATOM     14  C   UNL     1      -3.964  -4.013  -2.096  0.00  0.00    +0.025 A 
ATOM     15  C   UNL     1      -4.752  -4.804  -2.910  0.00  0.00    +0.029 A 
ATOM     16  C   UNL     1      -5.957  -4.317  -3.396  0.00  0.00    +0.076 A 
ATOM     17  C   UNL     1      -6.372  -3.030  -3.063  0.00  0.00    +0.143 A 
ATOM     18  C   UNL     1      -5.583  -2.240  -2.243  0.00  0.00    +0.070 A 
BRANCH  13  22
ATOM     19  N   UNL     1      -2.579  -0.708   1.369  0.00  0.00    +0.383 N 
ATOM     20  C   UNL     1      -3.893  -0.307   0.852  0.00  0.00    -0.059 C 
ATOM     21  C   UNL     1      -3.935  -0.530  -0.664  0.00  0.00    +0.086 C 
ATOM     22  N   UNL     1      -3.576  -1.929  -0.939  0.00  0.00    -0.333 N 
ATOM     23  C   UNL     1      -2.352  -2.465  -0.323  0.00  0.00    +0.086 C 
ATOM     24  C   UNL     1      -2.385  -2.151   1.176  0.00  0.00    -0.059 C 
ATOM     25  H   UNL     1      -1.858  -0.204   0.875  0.00  0.00    -0.081 HD
BRANCH  19  27
ATOM     26  C   UNL     1      -1.128  -0.799   3.339  0.00  0.00    -0.014 C 
ATOM     27  C   UNL     1      -2.501  -0.392   2.801  0.00  0.00    -0.075 C 
ATOM     28  C   UNL     1      -2.703   1.111   3.003  0.00  0.00    -0.014 C 
ENDBRANCH  19  27
ENDBRANCH  13  22
BRANCH  17  29
ATOM     29  O   UNL     1      -7.553  -2.551  -3.538  0.00  0.00    -0.493 OA
ATOM     30  C   UNL     1      -7.915  -1.223  -3.156  0.00  0.00    +0.277 C 
ENDBRANCH  17  29
ENDBRANCH   1  16
BRANCH  10  31
ATOM     31  N   UNL     1      -8.240  -9.338  -5.646  0.00  0.00    -0.297 N 
ATOM     32  H   UNL     1      -8.211 -10.306  -5.579  0.00  0.00    +0.154 HD
BRANCH  31  33
ATOM     33  C   UNL     1      -8.989  -8.730  -6.661  0.00  0.00    +0.058 A 
ATOM     34  C   UNL     1      -9.460  -7.436  -6.496  0.00  0.00    +0.025 A 
ATOM     35  C   UNL     1     -10.200  -6.837  -7.499  0.00  0.00    +0.002 A 
ATOM     36  C   UNL     1     -10.473  -7.524  -8.667  0.00  0.00    +0.002 A 
ATOM     37  C   UNL     1     -10.008  -8.814  -8.840  0.00  0.00    +0.029 A 
ATOM     38  C   UNL     1      -9.259  -9.421  -7.842  0.00  0.00    +0.085 A 
BRANCH  38  39
ATOM     39  N   UNL     1      -8.782 -10.725  -8.017  0.00  0.00    -0.250 N 
ATOM     40  C   UNL     1      -9.560 -11.826  -8.336  0.00  0.00    +0.076 A 
ATOM     41  C   UNL     1     -10.920 -11.992  -8.564  0.00  0.00    +0.028 A 
ATOM     42  C   UNL     1     -11.419 -13.242  -8.871  0.00  0.00    +0.002 A 
ATOM     43  C   UNL     1     -10.575 -14.338  -8.954  0.00  0.00    +0.001 A 
ATOM     44  C   UNL     1      -9.222 -14.192  -8.731  0.00  0.00    +0.015 A 
ATOM     45  C   UNL     1      -8.704 -12.937  -8.421  0.00  0.00    +0.066 A 
ATOM     46  C   UNL     1      -7.346 -12.443  -8.132  0.00  0.00    +0.273 A 
ATOM     47  O   UNL     1      -6.327 -13.105  -8.109  0.00  0.00    -0.266 OA
ATOM     48  N   UNL     1      -7.444 -11.117  -7.903  0.00  0.00    -0.258 N 
ATOM     49  H   UNL     1      -6.704 -10.528  -7.690  0.00  0.00    +0.191 HD
ENDBRANCH  38  39
ENDBRANCH  31  33
ENDBRANCH  10  31
TORSDOF 7
