REMARK  Name = CHEMBL502423
REMARK  16 active torsions:
REMARK  status: ('A' for Active; 'I' for Inactive)
REMARK    1  A    between atoms: C_1  and  C_2
REMARK    2  A    between atoms: C_2  and  N_3
REMARK    3  A    between atoms: C_4  and  C_41
REMARK    4  A    between atoms: C_5  and  C_40
REMARK    5  A    between atoms: C_7  and  S_8
REMARK    6  A    between atoms: S_8  and  C_9
REMARK    7  A    between atoms: C_12  and  N_16
REMARK    8  A    between atoms: N_16  and  C_17
REMARK    9  A    between atoms: C_20  and  O_38
REMARK   10  A    between atoms: C_21  and  O_29
REMARK   11  A    between atoms: C_26  and  C_27
REMARK   12  A    between atoms: O_29  and  C_30
REMARK   13  A    between atoms: C_30  and  C_31
REMARK   14  A    between atoms: C_31  and  C_32
REMARK   15  A    between atoms: C_32  and  N_33
REMARK   16  A    between atoms: O_38  and  C_39
REMARK                            x       y       z     vdW  Elec       q    Type
REMARK                         _______ _______ _______ _____ _____    ______ ____
ROOT
ATOM      1  C   UNL     1       9.641  -2.028  -1.469  0.00  0.00    +0.060 A 
ATOM      2  C   UNL     1      10.950  -2.143  -1.992  0.00  0.00    +0.026 A 
ATOM      3  C   UNL     1      11.178  -2.151  -3.376  0.00  0.00    +0.061 A 
ATOM      4  C   UNL     1      12.451  -2.263  -3.854  0.00  0.00    +0.162 A 
ATOM      5  C   UNL     1      13.537  -2.369  -2.973  0.00  0.00    +0.164 A 
ATOM      6  C   UNL     1      13.341  -2.364  -1.611  0.00  0.00    +0.077 A 
ATOM      7  C   UNL     1      12.041  -2.250  -1.095  0.00  0.00    +0.077 A 
ATOM      8  N   UNL     1      11.830  -2.243   0.229  0.00  0.00    -0.253 NA
ATOM      9  C   UNL     1      10.630  -2.138   0.740  0.00  0.00    +0.132 A 
ATOM     10  C   UNL     1       9.492  -2.021  -0.073  0.00  0.00    +0.091 A 
ENDROOT
BRANCH   1  11
ATOM     11  N   UNL     1       8.547  -1.921  -2.304  0.00  0.00    -0.313 N 
ATOM     12  H   UNL     1       8.056  -2.717  -2.564  0.00  0.00    +0.152 HD
BRANCH  11  16
ATOM     13  C   UNL     1       7.350   1.819  -3.705  0.00  0.00    +0.034 A 
ATOM     14  C   UNL     1       6.570   0.698  -3.961  0.00  0.00    +0.018 A 
ATOM     15  C   UNL     1       6.966  -0.540  -3.497  0.00  0.00    +0.024 A 
ATOM     16  C   UNL     1       8.146  -0.666  -2.774  0.00  0.00    +0.033 A 
ATOM     17  C   UNL     1       8.927   0.454  -2.517  0.00  0.00    +0.044 A 
ATOM     18  C   UNL     1       8.533   1.692  -2.986  0.00  0.00    +0.057 A 
ATOM     19 CL   UNL     1       9.512   3.091  -2.672  0.00  0.00    -0.082 Cl
BRANCH  13  20
ATOM     20  S   UNL     1       6.843   3.399  -4.296  0.00  0.00    -0.050 S 
BRANCH  20  25
ATOM     21  N   UNL     1       5.829   5.516  -2.794  0.00  0.00    -0.323 N 
ATOM     22  C   UNL     1       5.437   5.750  -1.496  0.00  0.00    +0.039 A 
ATOM     23  C   UNL     1       5.627   4.606  -0.816  0.00  0.00    +0.060 A 
ATOM     24  N   UNL     1       6.122   3.688  -1.663  0.00  0.00    -0.227 NA
ATOM     25  C   UNL     1       6.243   4.221  -2.857  0.00  0.00    +0.174 A 
ATOM     26  C   UNL     1       5.336   4.390   0.646  0.00  0.00    +0.067 C 
ATOM     27  C   UNL     1       4.897   7.043  -0.941  0.00  0.00    +0.065 C 
BRANCH  21  29
ATOM     28  C   UNL     1       4.447   6.397  -4.610  0.00  0.00    +0.027 C 
ATOM     29  C   UNL     1       5.800   6.476  -3.900  0.00  0.00    +0.120 C 
ENDBRANCH  21  29
ENDBRANCH  20  25
ENDBRANCH  13  20
ENDBRANCH  11  16
ENDBRANCH   1  11
BRANCH  10  30
ATOM     30  C   UNL     1       8.191  -1.901   0.514  0.00  0.00    +0.103 C 
ATOM     31  N   UNL     1       7.160  -1.806   0.981  0.00  0.00    -0.191 NA
ENDBRANCH  10  30
BRANCH   4  32
ATOM     32  O   UNL     1      12.669  -2.271  -5.196  0.00  0.00    -0.491 OA
ATOM     33  C   UNL     1      11.521  -2.159  -6.040  0.00  0.00    +0.277 C 
ENDBRANCH   4  32
BRANCH   5  34
ATOM     34  O   UNL     1      14.797  -2.480  -3.470  0.00  0.00    -0.488 OA
BRANCH  34  35
ATOM     35  C   UNL     1      15.861  -2.585  -2.523  0.00  0.00    +0.227 C 
BRANCH  35  36
ATOM     36  C   UNL     1      17.195  -2.700  -3.264  0.00  0.00    +0.022 C 
BRANCH  36  37
ATOM     37  C   UNL     1      18.334  -2.812  -2.250  0.00  0.00    -0.076 C 
BRANCH  37  38
ATOM     38  N   UNL     1      19.615  -2.922  -2.962  0.00  0.00    +0.380 N 
ATOM     39  C   UNL     1      19.934  -1.642  -3.643  0.00  0.00    -0.079 C 
ATOM     40  C   UNL     1      21.469  -1.716  -3.836  0.00  0.00    -0.020 C 
ATOM     41  C   UNL     1      21.948  -2.404  -2.537  0.00  0.00    -0.020 C 
ATOM     42  C   UNL     1      20.715  -3.153  -2.000  0.00  0.00    -0.079 C 
ATOM     43  H   UNL     1      19.576  -3.675  -3.633  0.00  0.00    -0.082 HD
ENDBRANCH  37  38
ENDBRANCH  36  37
ENDBRANCH  35  36
ENDBRANCH  34  35
ENDBRANCH   5  34
TORSDOF 12
