REMARK  Name = CHEMBL565235
REMARK  6 active torsions:
REMARK  status: ('A' for Active; 'I' for Inactive)
REMARK    1  A    between atoms: C_4  and  O_7
REMARK    2  A    between atoms: O_7  and  C_8
REMARK    3  A    between atoms: C_13  and  N_14
REMARK    4  A    between atoms: N_17  and  C_18
REMARK    5  A    between atoms: C_22  and  C_24
REMARK    6  A    between atoms: C_31  and  C_34
REMARK                            x       y       z     vdW  Elec       q    Type
REMARK                         _______ _______ _______ _____ _____    ______ ____
ROOT
ATOM      1  C   UNL     1       9.439  -2.727  -0.155  0.00  0.00    +0.035 A 
ATOM      2  C   UNL     1       9.350  -4.110  -0.260  0.00  0.00    +0.023 A 
ATOM      3  C   UNL     1      10.497  -4.875  -0.362  0.00  0.00    +0.002 A 
ATOM      4  C   UNL     1      11.738  -4.269  -0.359  0.00  0.00    +0.009 A 
ATOM      5  C   UNL     1      11.837  -2.882  -0.255  0.00  0.00    -0.014 A 
ATOM      6  C   UNL     1      10.681  -2.111  -0.158  0.00  0.00    +0.032 A 
ENDROOT
BRANCH   5   7
ATOM      7  C   UNL     1      13.168  -2.231  -0.251  0.00  0.00    +0.009 A 
ATOM      8  C   UNL     1      13.559  -1.181  -1.014  0.00  0.00    +0.093 A 
ATOM      9  N   UNL     1      14.856  -0.861  -0.731  0.00  0.00    -0.345 N 
ATOM     10  H   UNL     1      15.354  -0.143  -1.152  0.00  0.00    +0.167 HD
ATOM     11  C   UNL     1      15.355  -1.702   0.237  0.00  0.00    +0.139 A 
ATOM     12  C   UNL     1      14.323  -2.593   0.586  0.00  0.00    +0.027 A 
ATOM     13  C   UNL     1      14.549  -3.563   1.559  0.00  0.00    +0.023 A 
ATOM     14  C   UNL     1      15.809  -3.608   2.158  0.00  0.00    +0.017 A 
ATOM     15  C   UNL     1      16.784  -2.687   1.761  0.00  0.00    +0.123 A 
ATOM     16  N   UNL     1      16.538  -1.790   0.832  0.00  0.00    -0.237 NA
BRANCH  14  17
ATOM     17  C   UNL     1      16.109  -4.616   3.199  0.00  0.00    +0.048 A 
ATOM     18  C   UNL     1      15.252  -5.566   3.666  0.00  0.00    +0.027 A 
ATOM     19  C   UNL     1      15.940  -6.307   4.641  0.00  0.00    +0.019 A 
ATOM     20  C   UNL     1      17.185  -5.796   4.742  0.00  0.00    +0.083 A 
ATOM     21  N   UNL     1      17.302  -4.763   3.859  0.00  0.00    -0.361 N 
ATOM     22  H   UNL     1      18.095  -4.221   3.723  0.00  0.00    +0.165 HD
ENDBRANCH  14  17
ENDBRANCH   5   7
BRANCH   1  26
ATOM     23  N   UNL     1       6.050  -1.745   0.620  0.00  0.00    -0.266 N 
ATOM     24  C   UNL     1       7.208  -2.434   0.618  0.00  0.00    +0.308 C 
ATOM     25  O   UNL     1       7.290  -3.487   1.221  0.00  0.00    -0.252 OA
ATOM     26  N   UNL     1       8.276  -1.956  -0.052  0.00  0.00    -0.269 N 
ATOM     27  H   UNL     1       6.002  -0.876   0.192  0.00  0.00    +0.156 HD
ATOM     28  H   UNL     1       8.238  -1.078  -0.462  0.00  0.00    +0.156 HD
BRANCH  23  34
ATOM     29  C   UNL     1       3.649  -2.039   0.714  0.00  0.00    +0.150 A 
ATOM     30  C   UNL     1       2.530  -2.579   1.329  0.00  0.00    +0.048 A 
ATOM     31  C   UNL     1       2.672  -3.353   2.466  0.00  0.00    +0.004 A 
ATOM     32  C   UNL     1       3.929  -3.592   2.992  0.00  0.00    +0.002 A 
ATOM     33  C   UNL     1       5.049  -3.057   2.385  0.00  0.00    +0.027 A 
ATOM     34  C   UNL     1       4.915  -2.284   1.241  0.00  0.00    +0.077 A 
BRANCH  29  35
ATOM     35  O   UNL     1       3.511  -1.278  -0.404  0.00  0.00    -0.454 OA
BRANCH  35  39
ATOM     36  C   UNL     1      -0.308  -0.356  -1.661  0.00  0.00    +0.000 A 
ATOM     37  C   UNL     1       0.166   0.151  -0.465  0.00  0.00    +0.004 A 
ATOM     38  C   UNL     1       1.444  -0.157  -0.042  0.00  0.00    +0.046 A 
ATOM     39  C   UNL     1       2.253  -0.975  -0.818  0.00  0.00    +0.129 A 
ATOM     40  C   UNL     1       1.775  -1.482  -2.018  0.00  0.00    +0.046 A 
ATOM     41  C   UNL     1       0.495  -1.171  -2.437  0.00  0.00    +0.004 A 
ENDBRANCH  35  39
ENDBRANCH  29  35
ENDBRANCH  23  34
ENDBRANCH   1  26
TORSDOF 6
