REMARK  Name = CHEMBL239360
REMARK  9 active torsions:
REMARK  status: ('A' for Active; 'I' for Inactive)
REMARK    1  A    between atoms: C_1  and  N_2
REMARK    2  A    between atoms: N_2  and  C_3
REMARK    3  A    between atoms: N_2  and  N_32
REMARK    4  A    between atoms: C_3  and  C_4
REMARK    5  A    between atoms: C_6  and  C_8
REMARK    6  A    between atoms: C_10  and  C_18
REMARK    7  A    between atoms: C_22  and  O_24
REMARK    8  A    between atoms: O_24  and  C_25
REMARK    9  A    between atoms: C_25  and  C_26
REMARK                            x       y       z     vdW  Elec       q    Type
REMARK                         _______ _______ _______ _____ _____    ______ ____
ROOT
ATOM      1  C   UNL     1      -1.537  -3.421   4.034  0.00  0.00    +0.101 C 
ATOM      2  N   UNL     1      -2.225  -4.398   3.552  0.00  0.00    -0.262 NA
ATOM      3  C   UNL     1      -2.801  -5.201   4.645  0.00  0.00    +0.165 C 
ATOM      4  C   UNL     1      -2.452  -4.398   5.907  0.00  0.00    +0.169 C 
ATOM      5  N   UNL     1      -1.484  -3.401   5.383  0.00  0.00    -0.281 N 
ATOM      6  C   UNL     1      -0.649  -2.703   6.259  0.00  0.00    +0.094 C 
ATOM      7  C   UNL     1      -0.266  -3.403   7.348  0.00  0.00    +0.099 C 
ATOM      8  N   UNL     1      -0.661  -4.694   7.519  0.00  0.00    -0.351 N 
ATOM      9  C   UNL     1      -1.673  -5.228   6.897  0.00  0.00    +0.093 C 
ATOM     10  N   UNL     1      -2.017  -6.536   7.135  0.00  0.00    -0.346 N 
ATOM     11  H   UNL     1      -2.766  -6.934   6.663  0.00  0.00    +0.143 HD
ATOM     12  H   UNL     1      -1.511  -7.062   7.773  0.00  0.00    +0.143 HD
ATOM     13  H   UNL     1      -0.162  -5.244   8.143  0.00  0.00    +0.166 HD
ENDROOT
BRANCH   3  14
ATOM     14  C   UNL     1      -4.295  -5.317   4.487  0.00  0.00    -0.017 A 
ATOM     15  C   UNL     1      -5.029  -4.234   4.037  0.00  0.00    +0.006 A 
ATOM     16  C   UNL     1      -6.399  -4.337   3.891  0.00  0.00    +0.004 A 
ATOM     17  C   UNL     1      -7.040  -5.522   4.195  0.00  0.00    +0.045 A 
ATOM     18  C   UNL     1      -6.307  -6.610   4.647  0.00  0.00    +0.121 A 
ATOM     19  C   UNL     1      -4.931  -6.506   4.787  0.00  0.00    +0.051 A 
BRANCH  18  20
ATOM     20  O   UNL     1      -6.936  -7.777   4.947  0.00  0.00    -0.487 OA
BRANCH  20  21
ATOM     21  C   UNL     1      -8.354  -7.814   4.774  0.00  0.00    +0.264 C 
BRANCH  21  22
ATOM     22  C   UNL     1      -8.871  -9.177   5.153  0.00  0.00    -0.010 A 
ATOM     23  C   UNL     1      -8.955 -10.174   4.199  0.00  0.00    +0.007 A 
ATOM     24  C   UNL     1      -9.430 -11.425   4.546  0.00  0.00    +0.000 A 
ATOM     25  C   UNL     1      -9.820 -11.679   5.848  0.00  0.00    +0.000 A 
ATOM     26  C   UNL     1      -9.734 -10.683   6.802  0.00  0.00    +0.000 A 
ATOM     27  C   UNL     1      -9.256  -9.433   6.456  0.00  0.00    +0.007 A 
ENDBRANCH  21  22
ENDBRANCH  20  21
ENDBRANCH  18  20
ENDBRANCH   3  14
BRANCH   1  30
ATOM     28  C   UNL     1      -0.066  -2.124   1.219  0.00  0.00    +0.006 C 
ATOM     29  C   UNL     1      -1.493  -2.225   1.784  0.00  0.00    +0.016 C 
ATOM     30  C   UNL     1      -0.847  -2.398   3.169  0.00  0.00    +0.053 C 
ATOM     31  C   UNL     1       0.391  -2.943   2.438  0.00  0.00    +0.016 C 
BRANCH  28  32
ATOM     32  C   UNL     1       0.484  -0.696   1.198  0.00  0.00    +0.105 C 
BRANCH  32  34
ATOM     33  C   UNL     1       0.492   1.375  -0.056  0.00  0.00    +0.124 C 
ATOM     34  N   UNL     1       0.093  -0.039  -0.056  0.00  0.00    -0.243 NA
BRANCH  34  35
ATOM     35  N   UNL     1       0.648  -0.736  -1.205  0.00  0.00    -0.244 NA
ATOM     36  C   UNL     1      -0.001  -0.301  -2.449  0.00  0.00    +0.083 C 
ATOM     37  C   UNL     1       0.568  -1.099  -3.624  0.00  0.00    -0.066 C 
ATOM     38  N   UNL     1       2.018  -0.883  -3.707  0.00  0.00    +0.381 N 
ATOM     39  C   UNL     1       2.655  -1.345  -2.467  0.00  0.00    -0.066 C 
ATOM     40  C   UNL     1       2.104  -0.549  -1.282  0.00  0.00    +0.083 C 
ATOM     41  H   UNL     1       2.391  -1.399  -4.489  0.00  0.00    -0.086 HD
ATOM     42  H   UNL     1       2.205   0.101  -3.834  0.00  0.00    -0.086 HD
ENDBRANCH  34  35
ENDBRANCH  32  34
ENDBRANCH  28  32
ENDBRANCH   1  30
TORSDOF 8
