REMARK  Name = CHEMBL513227
REMARK  4 active torsions:
REMARK  status: ('A' for Active; 'I' for Inactive)
REMARK    1  A    between atoms: C_8  and  C_17
REMARK    2  A    between atoms: C_9  and  C_10
REMARK    3  A    between atoms: C_21  and  C_23
REMARK    4  A    between atoms: N_25  and  C_26
REMARK                            x       y       z     vdW  Elec       q    Type
REMARK                         _______ _______ _______ _____ _____    ______ ____
ROOT
ATOM      1  C   UNL     1       7.994   0.952   4.141  0.00  0.00    +0.005 A 
ATOM      2  C   UNL     1       8.963   1.046   3.131  0.00  0.00    +0.018 A 
ATOM      3  C   UNL     1       8.974   0.157   2.114  0.00  0.00    +0.093 A 
ATOM      4  N   UNL     1       8.047  -0.841   2.054  0.00  0.00    -0.297 N 
ATOM      5  C   UNL     1       7.088  -0.960   3.025  0.00  0.00    +0.139 A 
ATOM      6  C   UNL     1       7.063  -0.040   4.092  0.00  0.00    +0.047 A 
ATOM      7  N   UNL     1       6.316  -2.001   2.737  0.00  0.00    -0.227 NA
ATOM      8  C   UNL     1       6.737  -2.573   1.606  0.00  0.00    +0.099 A 
ATOM      9  C   UNL     1       7.837  -1.857   1.148  0.00  0.00    +0.100 A 
ENDROOT
BRANCH   9  10
ATOM     10  C   UNL     1       8.622  -2.130  -0.066  0.00  0.00    +0.095 A 
ATOM     11  C   UNL     1       9.343  -1.103  -0.696  0.00  0.00    +0.050 A 
ATOM     12  C   UNL     1      10.065  -1.409  -1.831  0.00  0.00    +0.116 A 
ATOM     13  N   UNL     1      10.057  -2.652  -2.291  0.00  0.00    -0.223 NA
ATOM     14  C   UNL     1       9.368  -3.604  -1.678  0.00  0.00    +0.213 A 
ATOM     15  N   UNL     1       8.666  -3.360  -0.584  0.00  0.00    -0.213 NA
ATOM     16  N   UNL     1       9.389  -4.889  -2.193  0.00  0.00    -0.327 N 
ATOM     17  H   UNL     1       9.903  -5.082  -2.993  0.00  0.00    +0.145 HD
ATOM     18  H   UNL     1       8.890  -5.595  -1.755  0.00  0.00    +0.145 HD
ENDBRANCH   9  10
BRANCH   8  19
ATOM     19  C   UNL     1       6.138  -3.762   0.954  0.00  0.00    +0.003 A 
ATOM     20  C   UNL     1       6.117  -3.860  -0.438  0.00  0.00    +0.010 A 
ATOM     21  C   UNL     1       5.559  -4.966  -1.047  0.00  0.00    +0.001 A 
ATOM     22  C   UNL     1       5.019  -5.983  -0.285  0.00  0.00    +0.013 A 
ATOM     23  C   UNL     1       5.033  -5.897   1.109  0.00  0.00    +0.038 A 
ATOM     24  C   UNL     1       5.600  -4.785   1.729  0.00  0.00    +0.023 A 
BRANCH  23  25
ATOM     25  C   UNL     1       4.454  -6.985   1.925  0.00  0.00    +0.248 C 
ATOM     26  O   UNL     1       4.467  -6.909   3.138  0.00  0.00    -0.270 OA
ATOM     27  N   UNL     1       3.911  -8.062   1.323  0.00  0.00    -0.277 N 
ATOM     28  H   UNL     1       3.833  -8.090   0.357  0.00  0.00    +0.155 HD
BRANCH  27  29
ATOM     29  C   UNL     1       3.459  -9.141   2.094  0.00  0.00    +0.105 A 
ATOM     30  C   UNL     1       2.141  -9.179   2.534  0.00  0.00    +0.147 A 
ATOM     31  C   UNL     1       1.698 -10.247   3.294  0.00  0.00    +0.040 A 
ATOM     32  C   UNL     1       2.564 -11.275   3.617  0.00  0.00    +0.006 A 
ATOM     33  C   UNL     1       3.876 -11.240   3.181  0.00  0.00    +0.040 A 
ATOM     34  C   UNL     1       4.325 -10.179   2.416  0.00  0.00    +0.147 A 
ATOM     35  F   UNL     1       5.606 -10.149   1.986  0.00  0.00    -0.203 F 
ATOM     36  F   UNL     1       1.293  -8.175   2.220  0.00  0.00    -0.203 F 
ENDBRANCH  27  29
ENDBRANCH  23  25
ENDBRANCH   8  19
TORSDOF 4
