REMARK  Name = CHEMBL515846
REMARK  10 active torsions:
REMARK  status: ('A' for Active; 'I' for Inactive)
REMARK    1  A    between atoms: C_1  and  C_2
REMARK    2  A    between atoms: C_2  and  C_3
REMARK    3  A    between atoms: C_3  and  N_4
REMARK    4  A    between atoms: C_7  and  C_10
REMARK    5  A    between atoms: C_13  and  N_18
REMARK    6  A    between atoms: C_14  and  O_16
REMARK    7  A    between atoms: O_16  and  C_17
REMARK    8  A    between atoms: C_27  and  N_29
REMARK    9  A    between atoms: N_29  and  C_30
REMARK   10  A    between atoms: C_34  and  C_35
REMARK                            x       y       z     vdW  Elec       q    Type
REMARK                         _______ _______ _______ _____ _____    ______ ____
ROOT
ATOM      1  N   UNL     1       0.564 -10.238   1.940  0.00  0.00    -0.281 N 
ATOM      2  C   UNL     1       1.513 -10.812   1.109  0.00  0.00    +0.223 A 
ATOM      3  N   UNL     1       2.412 -10.029   0.534  0.00  0.00    -0.196 NA
ATOM      4  C   UNL     1       3.341 -10.540  -0.271  0.00  0.00    +0.145 A 
ATOM      5  C   UNL     1       3.347 -11.929  -0.498  0.00  0.00    +0.059 A 
ATOM      6  C   UNL     1       4.462 -12.189  -1.408  0.00  0.00    +0.032 A 
ATOM      7  C   UNL     1       5.037 -11.004  -1.667  0.00  0.00    +0.085 A 
ATOM      8  N   UNL     1       4.375 -10.009  -0.991  0.00  0.00    -0.346 N 
ATOM      9  H   UNL     1       4.607  -9.067  -1.021  0.00  0.00    +0.167 HD
ATOM     10  C   UNL     1       2.375 -12.721   0.132  0.00  0.00    +0.137 A 
ATOM     11  N   UNL     1       1.488 -12.125   0.923  0.00  0.00    -0.198 NA
ATOM     12  H   UNL     1      -0.045 -10.802   2.442  0.00  0.00    +0.155 HD
ENDROOT
BRANCH   1  16
ATOM     13  C   UNL     1       0.326  -6.088   2.280  0.00  0.00    -0.041 A 
ATOM     14  C   UNL     1       0.859  -6.660   1.140  0.00  0.00    +0.006 A 
ATOM     15  C   UNL     1       0.939  -8.034   1.024  0.00  0.00    +0.027 A 
ATOM     16  C   UNL     1       0.484  -8.845   2.054  0.00  0.00    +0.076 A 
ATOM     17  C   UNL     1      -0.053  -8.268   3.203  0.00  0.00    +0.141 A 
ATOM     18  C   UNL     1      -0.125  -6.889   3.313  0.00  0.00    +0.051 A 
BRANCH  13  22
ATOM     19  N   UNL     1       0.720  -1.989   1.215  0.00  0.00    +0.380 N 
ATOM     20  C   UNL     1      -0.648  -2.504   1.352  0.00  0.00    -0.078 C 
ATOM     21  C   UNL     1      -0.631  -4.032   1.272  0.00  0.00    -0.011 C 
ATOM     22  C   UNL     1       0.242  -4.588   2.401  0.00  0.00    +0.016 C 
ATOM     23  C   UNL     1       1.645  -3.986   2.291  0.00  0.00    -0.011 C 
ATOM     24  C   UNL     1       1.545  -2.460   2.334  0.00  0.00    -0.078 C 
ATOM     25  H   UNL     1       1.115  -2.316   0.346  0.00  0.00    -0.082 HD
BRANCH  19  26
ATOM     26  C   UNL     1       0.690  -0.520   1.215  0.00  0.00    -0.079 C 
BRANCH  26  28
ATOM     27  C   UNL     1      -0.096   1.504  -0.021  0.00  0.00    +0.002 C 
ATOM     28  C   UNL     1      -0.065  -0.025  -0.021  0.00  0.00    -0.022 C 
ENDBRANCH  26  28
ENDBRANCH  19  26
ENDBRANCH  13  22
BRANCH  17  29
ATOM     29  O   UNL     1      -0.501  -9.057   4.216  0.00  0.00    -0.493 OA
ATOM     30  C   UNL     1      -1.039  -8.396   5.364  0.00  0.00    +0.277 C 
ENDBRANCH  17  29
ENDBRANCH   1  16
BRANCH  10  31
ATOM     31  N   UNL     1       2.343 -14.091  -0.063  0.00  0.00    -0.298 N 
ATOM     32  H   UNL     1       3.037 -14.524  -0.584  0.00  0.00    +0.154 HD
BRANCH  31  33
ATOM     33  C   UNL     1       1.312 -14.849   0.490  0.00  0.00    +0.052 A 
ATOM     34  C   UNL     1       0.739 -14.539   1.708  0.00  0.00    +0.031 A 
ATOM     35  C   UNL     1      -0.258 -15.320   2.183  0.00  0.00    +0.048 A 
ATOM     36  S   UNL     1      -0.460 -16.502   1.008  0.00  0.00    -0.090 S 
ATOM     37  C   UNL     1       0.785 -15.970  -0.151  0.00  0.00    +0.095 A 
BRANCH  37  38
ATOM     38  C   UNL     1       1.147 -16.538  -1.397  0.00  0.00    +0.250 C 
ATOM     39  O   UNL     1       2.035 -16.035  -2.061  0.00  0.00    -0.270 OA
ATOM     40  N   UNL     1       0.509 -17.637  -1.847  0.00  0.00    -0.325 N 
ATOM     41  H   UNL     1      -0.198 -18.038  -1.317  0.00  0.00    +0.145 HD
ATOM     42  H   UNL     1       0.756 -18.026  -2.700  0.00  0.00    +0.145 HD
ENDBRANCH  37  38
ENDBRANCH  31  33
ENDBRANCH  10  31
TORSDOF 8
