REMARK  Name = CHEMBL458437
REMARK  9 active torsions:
REMARK  status: ('A' for Active; 'I' for Inactive)
REMARK    1  A    between atoms: C_1  and  C_2
REMARK    2  A    between atoms: C_2  and  C_3
REMARK    3  A    between atoms: C_2  and  N_4
REMARK    4  A    between atoms: N_7  and  C_10
REMARK    5  A    between atoms: C_13  and  N_18
REMARK    6  A    between atoms: C_14  and  O_16
REMARK    7  A    between atoms: O_16  and  C_17
REMARK    8  A    between atoms: C_27  and  N_29
REMARK    9  A    between atoms: N_29  and  C_30
REMARK                            x       y       z     vdW  Elec       q    Type
REMARK                         _______ _______ _______ _____ _____    ______ ____
ROOT
ATOM      1  N   UNL     1      -6.917  -5.253   3.870  0.00  0.00    -0.281 N 
ATOM      2  C   UNL     1      -8.061  -4.745   4.463  0.00  0.00    +0.223 A 
ATOM      3  N   UNL     1      -8.419  -3.501   4.192  0.00  0.00    -0.196 NA
ATOM      4  C   UNL     1      -9.513  -2.974   4.741  0.00  0.00    +0.145 A 
ATOM      5  C   UNL     1     -10.278  -3.768   5.615  0.00  0.00    +0.059 A 
ATOM      6  C   UNL     1     -11.396  -2.933   6.053  0.00  0.00    +0.032 A 
ATOM      7  C   UNL     1     -11.251  -1.742   5.449  0.00  0.00    +0.085 A 
ATOM      8  N   UNL     1     -10.127  -1.754   4.661  0.00  0.00    -0.346 N 
ATOM      9  H   UNL     1      -9.815  -1.008   4.126  0.00  0.00    +0.167 HD
ATOM     10  C   UNL     1      -9.860  -5.082   5.875  0.00  0.00    +0.137 A 
ATOM     11  N   UNL     1      -8.758  -5.526   5.278  0.00  0.00    -0.198 NA
ATOM     12  H   UNL     1      -6.687  -6.189   3.981  0.00  0.00    +0.155 HD
ENDROOT
BRANCH   1  16
ATOM     13  C   UNL     1      -4.456  -2.756   1.601  0.00  0.00    +0.033 A 
ATOM     14  C   UNL     1      -5.131  -2.252   2.705  0.00  0.00    +0.025 A 
ATOM     15  C   UNL     1      -5.946  -3.079   3.455  0.00  0.00    +0.029 A 
ATOM     16  C   UNL     1      -6.090  -4.414   3.107  0.00  0.00    +0.076 A 
ATOM     17  C   UNL     1      -5.414  -4.921   2.000  0.00  0.00    +0.143 A 
ATOM     18  C   UNL     1      -4.603  -4.090   1.246  0.00  0.00    +0.070 A 
BRANCH  13  22
ATOM     19  N   UNL     1      -1.353  -0.515   0.065  0.00  0.00    -0.297 NA
ATOM     20  C   UNL     1      -2.088  -0.077   1.260  0.00  0.00    +0.103 C 
ATOM     21  C   UNL     1      -3.562  -0.474   1.122  0.00  0.00    +0.120 C 
ATOM     22  N   UNL     1      -3.633  -1.917   0.842  0.00  0.00    -0.327 N 
ATOM     23  C   UNL     1      -2.815  -2.453  -0.256  0.00  0.00    +0.120 C 
ATOM     24  C   UNL     1      -1.371  -1.978  -0.065  0.00  0.00    +0.103 C 
BRANCH  19  26
ATOM     25  C   UNL     1       0.001   1.526   0.089  0.00  0.00    +0.024 C 
ATOM     26  C   UNL     1       0.024  -0.004   0.078  0.00  0.00    +0.051 C 
ATOM     27  C   UNL     1       0.745  -0.512   1.329  0.00  0.00    +0.024 C 
ENDBRANCH  19  26
ENDBRANCH  13  22
BRANCH  17  28
ATOM     28  O   UNL     1      -5.555  -6.229   1.657  0.00  0.00    -0.493 OA
ATOM     29  C   UNL     1      -4.832  -6.681   0.509  0.00  0.00    +0.277 C 
ENDBRANCH  17  28
ENDBRANCH   1  16
BRANCH  10  30
ATOM     30  N   UNL     1     -10.581  -5.899   6.729  0.00  0.00    -0.299 N 
ATOM     31  H   UNL     1     -11.353  -5.547   7.199  0.00  0.00    +0.154 HD
BRANCH  30  32
ATOM     32  C   UNL     1     -10.198  -7.230   6.912  0.00  0.00    +0.033 A 
ATOM     33  C   UNL     1     -11.176  -8.215   7.096  0.00  0.00    +0.025 A 
ATOM     34  C   UNL     1     -10.832  -9.518   7.276  0.00  0.00    +0.030 A 
ATOM     35  C   UNL     1      -9.477  -9.893   7.279  0.00  0.00    +0.071 A 
ATOM     36  C   UNL     1      -8.482  -8.901   7.092  0.00  0.00    +0.002 A 
ATOM     37  C   UNL     1      -8.861  -7.563   6.903  0.00  0.00    +0.033 A 
ATOM     38  C   UNL     1      -7.127  -9.284   7.096  0.00  0.00    +0.011 A 
ATOM     39  C   UNL     1      -6.831 -10.605   7.281  0.00  0.00    +0.020 A 
ATOM     40  C   UNL     1      -7.858 -11.529   7.459  0.00  0.00    +0.111 A 
ATOM     41  N   UNL     1      -9.118 -11.169   7.454  0.00  0.00    -0.255 NA
ENDBRANCH  30  32
ENDBRANCH  10  30
TORSDOF 6
