REMARK  Name = CHEMBL1078991
REMARK  9 active torsions:
REMARK  status: ('A' for Active; 'I' for Inactive)
REMARK    1  A    between atoms: C_1  and  C_2
REMARK    2  A    between atoms: C_4  and  N_32
REMARK    3  A    between atoms: C_9  and  C_12
REMARK    4  A    between atoms: C_13  and  N_20
REMARK    5  A    between atoms: N_20  and  C_21
REMARK    6  A    between atoms: C_21  and  C_22
REMARK    7  A    between atoms: C_22  and  C_24
REMARK    8  A    between atoms: C_22  and  O_31
REMARK    9  A    between atoms: C_35  and  N_38
REMARK                            x       y       z     vdW  Elec       q    Type
REMARK                         _______ _______ _______ _____ _____    ______ ____
ROOT
ATOM      1  C   UNL     1       0.076  -1.362   4.756  0.00  0.00    +0.102 A 
ATOM      2  C   UNL     1       0.163  -0.147   5.449  0.00  0.00    +0.045 A 
ATOM      3  C   UNL     1       0.163  -0.168   6.857  0.00  0.00    +0.041 A 
ATOM      4  C   UNL     1       0.081  -1.345   7.513  0.00  0.00    +0.088 A 
ATOM      5  N   UNL     1      -0.003  -2.524   6.842  0.00  0.00    -0.328 N 
ATOM      6  H   UNL     1      -0.060  -3.353   7.341  0.00  0.00    +0.168 HD
ATOM      7  C   UNL     1      -0.013  -2.562   5.496  0.00  0.00    +0.261 A 
ATOM      8  O   UNL     1      -0.095  -3.632   4.917  0.00  0.00    -0.267 OA
ENDROOT
BRANCH   1  17
ATOM      9  C   UNL     1      -0.032   1.499   0.009  0.00  0.00    +0.046 C 
ATOM     10  C   UNL     1       0.016  -0.008   0.001  0.00  0.00    -0.021 A 
ATOM     11  C   UNL     1       0.040  -0.684  -1.185  0.00  0.00    +0.028 A 
ATOM     12  C   UNL     1       0.084  -2.076  -1.206  0.00  0.00    +0.032 A 
ATOM     13  C   UNL     1       0.105  -2.793  -0.020  0.00  0.00    +0.051 A 
ATOM     14  C   UNL     1       0.082  -2.118   1.190  0.00  0.00    +0.068 A 
ATOM     15  C   UNL     1       0.043  -0.712   1.208  0.00  0.00    +0.092 A 
ATOM     16  N   UNL     1       0.034  -0.327   2.510  0.00  0.00    -0.227 NA
ATOM     17  C   UNL     1       0.071  -1.387   3.284  0.00  0.00    +0.146 A 
ATOM     18  N   UNL     1       0.092  -2.522   2.513  0.00  0.00    -0.338 N 
ATOM     19  H   UNL     1       0.120  -3.436   2.836  0.00  0.00    +0.167 HD
BRANCH  12  20
ATOM     20  N   UNL     1       0.107  -2.754  -2.430  0.00  0.00    -0.331 N 
ATOM     21  C   UNL     1       0.095  -2.124  -3.758  0.00  0.00    +0.103 C 
ATOM     22  C   UNL     1       0.159  -3.258  -4.803  0.00  0.00    +0.004 C 
ATOM     23  C   UNL     1       0.773  -4.436  -4.002  0.00  0.00    -0.056 C 
ATOM     24  C   UNL     1       0.155  -4.217  -2.601  0.00  0.00    +0.089 C 
BRANCH  23  25
ATOM     25  N   UNL     1       0.363  -5.728  -4.567  0.00  0.00    +0.381 N 
ATOM     26  H   UNL     1       0.695  -5.801  -5.516  0.00  0.00    -0.090 HD
ATOM     27  H   UNL     1       0.755  -6.476  -4.015  0.00  0.00    -0.090 HD
ATOM     28  H   UNL     1      -0.644  -5.795  -4.557  0.00  0.00    -0.090 HD
ENDBRANCH  23  25
ENDBRANCH  12  20
ENDBRANCH   1  17
BRANCH   2  29
ATOM     29  N   UNL     1       0.246   1.048   4.765  0.00  0.00    -0.340 N 
ATOM     30  H   UNL     1       0.166   1.060   3.798  0.00  0.00    +0.146 HD
BRANCH  29  31
ATOM     31  C   UNL     1       0.456   2.299   5.498  0.00  0.00    +0.137 C 
BRANCH  31  32
ATOM     32  C   UNL     1       0.511   3.466   4.510  0.00  0.00    +0.161 C 
BRANCH  32  33
ATOM     33  C   UNL     1       0.849   4.734   5.249  0.00  0.00    -0.016 A 
ATOM     34  C   UNL     1      -0.135   5.410   5.948  0.00  0.00    +0.006 A 
ATOM     35  C   UNL     1       0.174   6.574   6.626  0.00  0.00    +0.002 A 
ATOM     36  C   UNL     1       1.467   7.063   6.606  0.00  0.00    +0.020 A 
ATOM     37  C   UNL     1       2.451   6.388   5.908  0.00  0.00    +0.041 A 
ATOM     38  C   UNL     1       2.143   5.220   5.234  0.00  0.00    +0.026 A 
ATOM     39 CL   UNL     1       4.075   7.002   5.883  0.00  0.00    -0.084 Cl
ENDBRANCH  32  33
BRANCH  32  40
ATOM     40  O   UNL     1      -0.760   3.610   3.872  0.00  0.00    -0.386 OA
ATOM     41  H   UNL     1      -1.488   3.787   4.482  0.00  0.00    +0.210 HD
ENDBRANCH  32  40
ENDBRANCH  31  32
ENDBRANCH  29  31
ENDBRANCH   2  29
TORSDOF 8
