REMARK  Name = CHEMBL540486
REMARK  10 active torsions:
REMARK  status: ('A' for Active; 'I' for Inactive)
REMARK    1  A    between atoms: C_1  and  N_2
REMARK    2  A    between atoms: N_2  and  C_3
REMARK    3  A    between atoms: C_4  and  C_6
REMARK    4  A    between atoms: C_10  and  C_12
REMARK    5  A    between atoms: C_15  and  C_22
REMARK    6  A    between atoms: C_26  and  N_28
REMARK    7  A    between atoms: N_31  and  C_32
REMARK    8  A    between atoms: C_37  and  O_38
REMARK    9  A    between atoms: O_38  and  C_39
REMARK   10  A    between atoms: C_39  and  C_40
REMARK                            x       y       z     vdW  Elec       q    Type
REMARK                         _______ _______ _______ _____ _____    ______ ____
ROOT
ATOM      1  C   UNL     1      -0.398  -9.251  -4.558  0.00  0.00    -0.014 A 
ATOM      2  C   UNL     1       0.368  -9.460  -3.411  0.00  0.00    +0.009 A 
ATOM      3  C   UNL     1       0.155 -10.580  -2.634  0.00  0.00    +0.002 A 
ATOM      4  C   UNL     1      -0.815 -11.499  -2.989  0.00  0.00    +0.023 A 
ATOM      5  C   UNL     1      -1.583 -11.299  -4.129  0.00  0.00    +0.035 A 
ATOM      6  C   UNL     1      -1.380 -10.173  -4.913  0.00  0.00    +0.032 A 
ENDROOT
BRANCH   1  10
ATOM      7  C   UNL     1      -0.059  -4.655  -3.622  0.00  0.00    +0.001 A 
ATOM      8  C   UNL     1      -0.190  -6.042  -3.681  0.00  0.00    +0.022 A 
ATOM      9  C   UNL     1      -0.092  -6.655  -4.928  0.00  0.00    +0.027 A 
ATOM     10  C   UNL     1      -0.172  -8.048  -5.394  0.00  0.00    +0.009 A 
ATOM     11  C   UNL     1       0.003  -8.016  -6.738  0.00  0.00    +0.093 A 
ATOM     12  N   UNL     1       0.185  -6.726  -7.149  0.00  0.00    -0.345 N 
ATOM     13  H   UNL     1       0.329  -6.453  -8.069  0.00  0.00    +0.167 HD
ATOM     14  C   UNL     1       0.133  -5.870  -6.075  0.00  0.00    +0.139 A 
ATOM     15  N   UNL     1       0.250  -4.552  -5.964  0.00  0.00    -0.237 NA
ATOM     16  C   UNL     1       0.157  -3.942  -4.803  0.00  0.00    +0.121 A 
BRANCH   7  21
ATOM     17  C   UNL     1      -0.117  -1.902  -1.048  0.00  0.00    +0.037 A 
ATOM     18  C   UNL     1      -0.333  -2.635   0.121  0.00  0.00    +0.013 A 
ATOM     19  C   UNL     1      -0.458  -4.008   0.064  0.00  0.00    +0.001 A 
ATOM     20  C   UNL     1      -0.370  -4.666  -1.148  0.00  0.00    +0.008 A 
ATOM     21  C   UNL     1      -0.154  -3.946  -2.322  0.00  0.00    -0.016 A 
ATOM     22  C   UNL     1      -0.033  -2.561  -2.274  0.00  0.00    +0.021 A 
BRANCH  17  26
ATOM     23  C   UNL     1       0.635   1.607   0.197  0.00  0.00    +0.132 C 
ATOM     24  N   UNL     1       0.620   0.148   0.070  0.00  0.00    -0.304 N 
ATOM     25  C   UNL     1       1.262  -0.683   1.092  0.00  0.00    +0.132 C 
ATOM     26  C   UNL     1       0.017  -0.431  -0.987  0.00  0.00    +0.246 C 
ATOM     27  O   UNL     1      -0.418   0.257  -1.890  0.00  0.00    -0.270 OA
ENDBRANCH  17  26
ENDBRANCH   7  21
ENDBRANCH   1  10
BRANCH   5  28
ATOM     28  N   UNL     1      -2.564 -12.231  -4.485  0.00  0.00    -0.269 N 
ATOM     29  C   UNL     1      -2.939 -12.356  -5.773  0.00  0.00    +0.308 C 
ATOM     30  O   UNL     1      -2.356 -11.734  -6.640  0.00  0.00    -0.252 OA
ATOM     31  N   UNL     1      -3.962 -13.171  -6.101  0.00  0.00    -0.266 N 
ATOM     32  H   UNL     1      -2.973 -12.788  -3.804  0.00  0.00    +0.156 HD
ATOM     33  H   UNL     1      -4.476 -13.608  -5.405  0.00  0.00    +0.156 HD
BRANCH  31  34
ATOM     34  C   UNL     1      -4.281 -13.387  -7.449  0.00  0.00    +0.077 A 
ATOM     35  C   UNL     1      -3.277 -13.422  -8.405  0.00  0.00    +0.027 A 
ATOM     36  C   UNL     1      -3.594 -13.636  -9.733  0.00  0.00    +0.002 A 
ATOM     37  C   UNL     1      -4.912 -13.814 -10.112  0.00  0.00    +0.004 A 
ATOM     38  C   UNL     1      -5.918 -13.780  -9.165  0.00  0.00    +0.047 A 
ATOM     39  C   UNL     1      -5.608 -13.572  -7.831  0.00  0.00    +0.142 A 
BRANCH  39  40
ATOM     40  O   UNL     1      -6.596 -13.544  -6.897  0.00  0.00    -0.486 OA
BRANCH  40  41
ATOM     41  C   UNL     1      -7.933 -13.742  -7.362  0.00  0.00    +0.264 C 
BRANCH  41  42
ATOM     42  C   UNL     1      -8.885 -13.679  -6.195  0.00  0.00    -0.010 A 
ATOM     43  C   UNL     1      -9.198 -14.829  -5.495  0.00  0.00    +0.007 A 
ATOM     44  C   UNL     1     -10.071 -14.771  -4.425  0.00  0.00    +0.000 A 
ATOM     45  C   UNL     1     -10.630 -13.562  -4.054  0.00  0.00    +0.000 A 
ATOM     46  C   UNL     1     -10.316 -12.412  -4.753  0.00  0.00    +0.000 A 
ATOM     47  C   UNL     1      -9.440 -12.469  -5.821  0.00  0.00    +0.007 A 
ENDBRANCH  41  42
ENDBRANCH  40  41
ENDBRANCH  39  40
ENDBRANCH  31  34
ENDBRANCH   5  28
TORSDOF 8
