REMARK  Name = CHEMBL590050
REMARK  9 active torsions:
REMARK  status: ('A' for Active; 'I' for Inactive)
REMARK    1  A    between atoms: C_1  and  C_2
REMARK    2  A    between atoms: C_2  and  C_3
REMARK    3  A    between atoms: C_3  and  C_5
REMARK    4  A    between atoms: C_9  and  N_11
REMARK    5  A    between atoms: N_11  and  C_12
REMARK    6  A    between atoms: C_19  and  N_20
REMARK    7  A    between atoms: N_20  and  C_21
REMARK    8  A    between atoms: C_24  and  N_27
REMARK    9  A    between atoms: N_30  and  C_33
REMARK                            x       y       z     vdW  Elec       q    Type
REMARK                         _______ _______ _______ _____ _____    ______ ____
ROOT
ATOM      1  C   UNL     1       2.413  -5.190  -4.504  0.00  0.00    +0.032 A 
ATOM      2  C   UNL     1       1.676  -6.043  -3.682  0.00  0.00    +0.024 A 
ATOM      3  C   UNL     1       1.734  -7.397  -3.848  0.00  0.00    +0.015 A 
ATOM      4  C   UNL     1       2.540  -7.941  -4.851  0.00  0.00    +0.045 A 
ATOM      5  C   UNL     1       3.288  -7.082  -5.687  0.00  0.00    +0.002 A 
ATOM      6  C   UNL     1       3.216  -5.708  -5.512  0.00  0.00    +0.032 A 
ATOM      7  C   UNL     1       4.130  -7.690  -6.738  0.00  0.00    +0.059 C 
ATOM      8  C   UNL     1       4.884  -6.907  -7.585  0.00  0.00    +0.085 C 
ATOM      9  C   UNL     1       4.140  -9.153  -6.853  0.00  0.00    +0.252 C 
ATOM     10  O   UNL     1       4.823  -9.686  -7.707  0.00  0.00    -0.270 OA
ATOM     11  N   UNL     1       3.403  -9.909  -6.023  0.00  0.00    -0.248 N 
ATOM     12  C   UNL     1       2.627  -9.390  -5.058  0.00  0.00    +0.251 C 
ATOM     13  O   UNL     1       1.985 -10.135  -4.341  0.00  0.00    -0.270 OA
ATOM     14  H   UNL     1       3.432 -10.873  -6.126  0.00  0.00    +0.158 HD
ENDROOT
BRANCH   1  15
ATOM     15  N   UNL     1       2.339  -3.813  -4.317  0.00  0.00    -0.314 N 
ATOM     16  H   UNL     1       2.402  -3.216  -5.079  0.00  0.00    +0.152 HD
BRANCH  15  21
ATOM     17  C   UNL     1       2.419  -3.491  -0.646  0.00  0.00    +0.019 A 
ATOM     18  C   UNL     1       1.829  -2.233  -0.485  0.00  0.00    +0.011 A 
ATOM     19  C   UNL     1       1.418  -1.519  -1.591  0.00  0.00    +0.002 A 
ATOM     20  C   UNL     1       1.586  -2.041  -2.860  0.00  0.00    +0.023 A 
ATOM     21  C   UNL     1       2.172  -3.290  -3.032  0.00  0.00    +0.032 A 
ATOM     22  C   UNL     1       2.595  -4.015  -1.929  0.00  0.00    +0.034 A 
BRANCH  17  23
ATOM     23  C   UNL     1       2.860  -4.256   0.532  0.00  0.00    +0.163 C 
ATOM     24  O   UNL     1       3.376  -5.344   0.390  0.00  0.00    -0.292 OA
BRANCH  23  26
ATOM     25  C   UNL     1       3.208  -4.675   2.951  0.00  0.00    +0.012 C 
ATOM     26  C   UNL     1       2.669  -3.687   1.915  0.00  0.00    +0.076 C 
ENDBRANCH  23  26
ENDBRANCH  17  23
ENDBRANCH  15  21
ENDBRANCH   1  15
BRANCH   8  27
ATOM     27  N   UNL     1       5.319  -5.686  -7.175  0.00  0.00    -0.320 N 
ATOM     28  H   UNL     1       5.189  -5.409  -6.254  0.00  0.00    +0.152 HD
BRANCH  27  29
ATOM     29  C   UNL     1       5.956  -4.830  -8.080  0.00  0.00    +0.031 A 
ATOM     30  C   UNL     1       6.138  -5.225  -9.399  0.00  0.00    +0.025 A 
ATOM     31  C   UNL     1       6.766  -4.380 -10.292  0.00  0.00    +0.025 A 
ATOM     32  C   UNL     1       7.215  -3.135  -9.871  0.00  0.00    +0.030 A 
ATOM     33  C   UNL     1       7.033  -2.740  -8.552  0.00  0.00    +0.025 A 
ATOM     34  C   UNL     1       6.401  -3.583  -7.660  0.00  0.00    +0.025 A 
BRANCH  32  35
ATOM     35  N   UNL     1       7.852  -2.279 -10.776  0.00  0.00    -0.333 N 
ATOM     36  C   UNL     1       8.453  -1.014 -10.326  0.00  0.00    +0.086 C 
ATOM     37  C   UNL     1       9.887  -0.940 -10.860  0.00  0.00    -0.060 C 
ATOM     38  N   UNL     1       9.875  -1.120 -12.318  0.00  0.00    +0.380 N 
ATOM     39  C   UNL     1       9.398  -2.468 -12.651  0.00  0.00    -0.060 C 
ATOM     40  C   UNL     1       7.945  -2.621 -12.204  0.00  0.00    +0.086 C 
ATOM     41  C   UNL     1      11.235  -0.940 -12.843  0.00  0.00    -0.096 C 
ATOM     42  H   UNL     1       9.262  -0.435 -12.735  0.00  0.00    -0.082 HD
ENDBRANCH  32  35
ENDBRANCH  27  29
ENDBRANCH   8  27
TORSDOF 7
