REMARK  Name = CHEMBL558869
REMARK  6 active torsions:
REMARK  status: ('A' for Active; 'I' for Inactive)
REMARK    1  A    between atoms: C_3  and  C_18
REMARK    2  A    between atoms: C_5  and  N_7
REMARK    3  A    between atoms: N_10  and  C_11
REMARK    4  A    between atoms: C_25  and  C_28
REMARK    5  A    between atoms: C_31  and  C_34
REMARK    6  A    between atoms: C_34  and  N_35
REMARK                            x       y       z     vdW  Elec       q    Type
REMARK                         _______ _______ _______ _____ _____    ______ ____
ROOT
ATOM      1  C   UNL     1       3.674   2.162   0.029  0.00  0.00    +0.009 A 
ATOM      2  C   UNL     1       4.727   1.962   0.858  0.00  0.00    +0.093 A 
ATOM      3  N   UNL     1       5.721   2.852   0.566  0.00  0.00    -0.345 N 
ATOM      4  H   UNL     1       6.573   2.901   1.026  0.00  0.00    +0.167 HD
ATOM      5  C   UNL     1       5.341   3.669  -0.473  0.00  0.00    +0.139 A 
ATOM      6  C   UNL     1       4.047   3.272  -0.861  0.00  0.00    +0.027 A 
ATOM      7  C   UNL     1       3.410   3.932  -1.909  0.00  0.00    +0.022 A 
ATOM      8  C   UNL     1       4.093   4.971  -2.541  0.00  0.00    +0.001 A 
ATOM      9  C   UNL     1       5.376   5.305  -2.102  0.00  0.00    +0.121 A 
ATOM     10  N   UNL     1       5.947   4.667  -1.104  0.00  0.00    -0.237 NA
ENDROOT
BRANCH   1  13
ATOM     11  C   UNL     1      -0.005   1.383   0.009  0.00  0.00    +0.002 A 
ATOM     12  C   UNL     1       1.182   2.089   0.021  0.00  0.00    +0.009 A 
ATOM     13  C   UNL     1       2.399   1.407   0.017  0.00  0.00    -0.014 A 
ATOM     14  C   UNL     1       2.412   0.014   0.002  0.00  0.00    +0.032 A 
ATOM     15  C   UNL     1       1.216  -0.686  -0.010  0.00  0.00    +0.035 A 
ATOM     16  C   UNL     1       0.008   0.002  -0.006  0.00  0.00    +0.023 A 
BRANCH  15  17
ATOM     17  N   UNL     1       1.224  -2.086  -0.026  0.00  0.00    -0.269 N 
ATOM     18  C   UNL     1       2.184  -2.746  -0.702  0.00  0.00    +0.308 C 
ATOM     19  O   UNL     1       3.091  -2.130  -1.228  0.00  0.00    -0.252 OA
ATOM     20  N   UNL     1       2.140  -4.090  -0.795  0.00  0.00    -0.269 N 
ATOM     21  H   UNL     1       0.538  -2.580   0.449  0.00  0.00    +0.156 HD
ATOM     22  H   UNL     1       1.383  -4.577  -0.434  0.00  0.00    +0.156 HD
BRANCH  20  23
ATOM     23  C   UNL     1       3.187  -4.783  -1.413  0.00  0.00    +0.036 A 
ATOM     24  C   UNL     1       3.565  -6.035  -0.944  0.00  0.00    +0.023 A 
ATOM     25  C   UNL     1       4.598  -6.717  -1.556  0.00  0.00    +0.003 A 
ATOM     26  C   UNL     1       5.256  -6.156  -2.635  0.00  0.00    +0.020 A 
ATOM     27  C   UNL     1       4.882  -4.910  -3.106  0.00  0.00    +0.043 A 
ATOM     28  C   UNL     1       3.845  -4.224  -2.500  0.00  0.00    +0.043 A 
ATOM     29 CL   UNL     1       5.711  -4.209  -4.461  0.00  0.00    -0.083 Cl
ENDBRANCH  20  23
ENDBRANCH  15  17
ENDBRANCH   1  13
BRANCH   8  30
ATOM     30  C   UNL     1       3.466   5.710  -3.664  0.00  0.00    -0.016 A 
ATOM     31  C   UNL     1       2.183   5.374  -4.092  0.00  0.00    +0.009 A 
ATOM     32  C   UNL     1       1.604   6.066  -5.137  0.00  0.00    +0.002 A 
ATOM     33  C   UNL     1       2.295   7.091  -5.759  0.00  0.00    -0.065 A 
ATOM     34  C   UNL     1       3.568   7.428  -5.337  0.00  0.00    +0.002 A 
ATOM     35  C   UNL     1       4.155   6.747  -4.290  0.00  0.00    +0.009 A 
BRANCH  33  36
ATOM     36  C   UNL     1       1.658   7.841  -6.899  0.00  0.00    -0.051 C 
BRANCH  36  37
ATOM     37  N   UNL     1       0.913   8.993  -6.373  0.00  0.00    +0.381 N 
ATOM     38  H   UNL     1       0.487   9.495  -7.136  0.00  0.00    -0.090 HD
ATOM     39  H   UNL     1       0.196   8.669  -5.741  0.00  0.00    -0.090 HD
ATOM     40  H   UNL     1       1.545   9.605  -5.878  0.00  0.00    -0.090 HD
ENDBRANCH  36  37
ENDBRANCH  33  36
ENDBRANCH   8  30
TORSDOF 6
