REMARK  Name = CHEMBL457105
REMARK  9 active torsions:
REMARK  status: ('A' for Active; 'I' for Inactive)
REMARK    1  A    between atoms: C_1  and  N_2
REMARK    2  A    between atoms: N_2  and  C_3
REMARK    3  A    between atoms: N_2  and  C_4
REMARK    4  A    between atoms: C_4  and  C_5
REMARK    5  A    between atoms: C_14  and  N_19
REMARK    6  A    between atoms: C_15  and  O_17
REMARK    7  A    between atoms: O_17  and  C_18
REMARK    8  A    between atoms: N_19  and  C_20
REMARK    9  A    between atoms: C_28  and  N_30
REMARK                            x       y       z     vdW  Elec       q    Type
REMARK                         _______ _______ _______ _____ _____    ______ ____
ROOT
ATOM      1  N   UNL     1      -3.343  -2.940   2.661  0.00  0.00    -0.175 NA
ENDROOT
BRANCH   1  11
ATOM      2  C   UNL     1      -1.942  -0.138  -1.259  0.00  0.00    +0.203 C 
ATOM      3  O   UNL     1      -1.490  -0.260  -0.140  0.00  0.00    -0.277 OA
ATOM      4  N   UNL     1      -3.191  -0.563  -1.532  0.00  0.00    -0.273 N 
ATOM      5  C   UNL     1      -3.797  -0.307  -2.846  0.00  0.00    +0.114 C 
ATOM      6  C   UNL     1      -5.235   0.173  -2.612  0.00  0.00    +0.024 C 
ATOM      7  C   UNL     1      -6.028  -0.948  -1.942  0.00  0.00    +0.038 C 
ATOM      8  C   UNL     1      -5.297  -1.459  -0.728  0.00  0.00    -0.022 A 
ATOM      9  C   UNL     1      -3.933  -1.263  -0.567  0.00  0.00    +0.041 A 
ATOM     10  C   UNL     1      -3.284  -1.753   0.559  0.00  0.00    +0.052 A 
ATOM     11  C   UNL     1      -3.996  -2.444   1.526  0.00  0.00    +0.100 A 
ATOM     12  C   UNL     1      -5.366  -2.643   1.364  0.00  0.00    +0.143 A 
ATOM     13  C   UNL     1      -6.011  -2.144   0.243  0.00  0.00    +0.053 A 
BRANCH  12  14
ATOM     14  O   UNL     1      -6.072  -3.320   2.310  0.00  0.00    -0.493 OA
ATOM     15  C   UNL     1      -7.472  -3.487   2.079  0.00  0.00    +0.277 C 
ENDBRANCH  12  14
BRANCH   2  16
ATOM     16  C   UNL     1      -1.105   0.489  -2.345  0.00  0.00    +0.018 C 
BRANCH  16  18
ATOM     17  C   UNL     1       0.907  -0.579  -1.595  0.00  0.00    -0.096 C 
ATOM     18  N   UNL     1       0.257   0.715  -1.844  0.00  0.00    +0.382 N 
ATOM     19  C   UNL     1       1.028   1.465  -2.845  0.00  0.00    -0.096 C 
ATOM     20  H   UNL     1       0.217   1.242  -0.985  0.00  0.00    -0.082 HD
ENDBRANCH  16  18
ENDBRANCH   2  16
ENDBRANCH   1  11
BRANCH   1  21
ATOM     21  C   UNL     1      -2.281  -2.239   3.211  0.00  0.00    +0.243 A 
ATOM     22  N   UNL     1      -2.010  -1.030   2.749  0.00  0.00    -0.195 NA
ATOM     23  C   UNL     1      -0.998  -0.323   3.250  0.00  0.00    +0.145 A 
ATOM     24  C   UNL     1      -0.225  -0.889   4.280  0.00  0.00    +0.059 A 
ATOM     25  C   UNL     1       0.794   0.104   4.619  0.00  0.00    +0.032 A 
ATOM     26  C   UNL     1       0.589   1.161   3.816  0.00  0.00    +0.085 A 
ATOM     27  N   UNL     1      -0.481   0.917   2.992  0.00  0.00    -0.346 N 
ATOM     28  H   UNL     1      -0.821   1.533   2.324  0.00  0.00    +0.167 HD
ATOM     29  C   UNL     1      -0.548  -2.175   4.739  0.00  0.00    +0.140 A 
ATOM     30  N   UNL     1      -1.578  -2.805   4.184  0.00  0.00    -0.197 NA
BRANCH  29  31
ATOM     31  N   UNL     1       0.185  -2.772   5.750  0.00  0.00    -0.284 N 
ATOM     32  C   UNL     1       1.257  -2.119   6.507  0.00  0.00    +0.117 C 
ATOM     33  C   UNL     1       1.752  -3.181   7.502  0.00  0.00    +0.056 C 
ATOM     34  C   UNL     1       0.893  -4.394   7.223  0.00  0.00    -0.025 A 
ATOM     35  C   UNL     1       0.008  -4.081   6.202  0.00  0.00    +0.038 A 
ATOM     36  C   UNL     1      -0.898  -5.052   5.770  0.00  0.00    +0.024 A 
ATOM     37  C   UNL     1      -0.911  -6.300   6.355  0.00  0.00    +0.002 A 
ATOM     38  C   UNL     1      -0.027  -6.601   7.375  0.00  0.00    +0.000 A 
ATOM     39  C   UNL     1       0.879  -5.648   7.802  0.00  0.00    +0.005 A 
ENDBRANCH  29  31
ENDBRANCH   1  21
TORSDOF 6
