REMARK  Name = CHEMBL1222792
REMARK  4 active torsions:
REMARK  status: ('A' for Active; 'I' for Inactive)
REMARK    1  A    between atoms: C_6  and  C_10
REMARK    2  A    between atoms: C_11  and  C_15
REMARK    3  A    between atoms: N_17  and  C_18
REMARK    4  A    between atoms: C_28  and  C_32
REMARK                            x       y       z     vdW  Elec       q    Type
REMARK                         _______ _______ _______ _____ _____    ______ ____
ROOT
ATOM      1  C   UNL     1       3.531   2.589   0.930  0.00  0.00    +0.022 A 
ATOM      2  C   UNL     1       4.840   2.287   1.314  0.00  0.00    +0.033 A 
ATOM      3  C   UNL     1       5.059   0.964   0.994  0.00  0.00    +0.105 A 
ATOM      4  C   UNL     1       6.168   0.095   1.133  0.00  0.00    +0.152 A 
ATOM      5  N   UNL     1       6.067  -1.155   0.718  0.00  0.00    -0.209 NA
ATOM      6  C   UNL     1       4.936  -1.622   0.165  0.00  0.00    +0.178 A 
ATOM      7  N   UNL     1       3.873  -0.866   0.007  0.00  0.00    -0.146 NA
ATOM      8  N   UNL     1       3.898   0.473   0.423  0.00  0.00    -0.235 N 
ATOM      9  C   UNL     1       2.983   1.470   0.392  0.00  0.00    +0.113 A 
ATOM     10  N   UNL     1       7.344   0.549   1.698  0.00  0.00    -0.281 N 
ATOM     11  C   UNL     1       8.393  -0.344   1.945  0.00  0.00    +0.146 A 
ATOM     12  C   UNL     1       8.439  -1.692   1.552  0.00  0.00    +0.068 A 
ATOM     13  C   UNL     1       9.614  -2.209   1.978  0.00  0.00    +0.041 A 
ATOM     14  N   UNL     1      10.290  -1.230   2.617  0.00  0.00    -0.280 N 
ATOM     15  H   UNL     1      11.165  -1.315   3.027  0.00  0.00    +0.189 HD
ATOM     16  N   UNL     1       9.508  -0.068   2.580  0.00  0.00    -0.158 NA
ATOM     17  H   UNL     1       7.442   1.488   1.923  0.00  0.00    +0.155 HD
ENDROOT
BRANCH   6  18
ATOM     18  C   UNL     1       4.886  -3.026  -0.279  0.00  0.00    +0.007 C 
ATOM     19  C   UNL     1       4.160  -3.991   0.312  0.00  0.00    +0.021 C 
ATOM     20  C   UNL     1       4.347  -5.307  -0.407  0.00  0.00    +0.041 C 
ATOM     21  C   UNL     1       4.954  -4.930  -1.777  0.00  0.00    +0.010 C 
ATOM     22  C   UNL     1       5.639  -3.582  -1.465  0.00  0.00    +0.040 C 
BRANCH  19  23
ATOM     23  C   UNL     1       3.308  -3.795   1.488  0.00  0.00    +0.245 C 
ATOM     24  O   UNL     1       3.154  -2.679   1.949  0.00  0.00    -0.270 OA
ATOM     25  N   UNL     1       2.694  -4.850   2.059  0.00  0.00    -0.280 N 
ATOM     26  H   UNL     1       2.802  -5.737   1.681  0.00  0.00    +0.155 HD
BRANCH  25  27
ATOM     27  C   UNL     1       1.901  -4.667   3.197  0.00  0.00    +0.052 A 
ATOM     28  C   UNL     1       1.838  -5.652   4.181  0.00  0.00    +0.029 A 
ATOM     29  C   UNL     1       1.040  -5.425   5.289  0.00  0.00    +0.061 A 
ATOM     30  C   UNL     1       0.335  -4.236   5.383  0.00  0.00    +0.213 A 
ATOM     31  N   UNL     1       0.417  -3.323   4.433  0.00  0.00    -0.226 NA
ATOM     32  C   UNL     1       1.171  -3.498   3.365  0.00  0.00    +0.137 A 
ATOM     33  F   UNL     1      -0.447  -4.007   6.461  0.00  0.00    -0.184 F 
ENDBRANCH  25  27
ENDBRANCH  19  23
ENDBRANCH   6  18
BRANCH  13  34
ATOM     34  C   UNL     1      10.085  -3.626   1.777  0.00  0.00    +0.037 C 
ATOM     35  C   UNL     1      11.019  -4.217   2.834  0.00  0.00    +0.010 C 
ATOM     36  C   UNL     1      11.566  -3.839   1.457  0.00  0.00    +0.010 C 
ENDBRANCH  13  34
TORSDOF 4
