REMARK  Name = CHEMBL457322
REMARK  7 active torsions:
REMARK  status: ('A' for Active; 'I' for Inactive)
REMARK    1  A    between atoms: C_1  and  C_2
REMARK    2  A    between atoms: C_2  and  C_3
REMARK    3  A    between atoms: C_2  and  N_4
REMARK    4  A    between atoms: N_7  and  C_10
REMARK    5  A    between atoms: C_13  and  N_18
REMARK    6  A    between atoms: C_14  and  O_16
REMARK    7  A    between atoms: O_16  and  C_17
REMARK                            x       y       z     vdW  Elec       q    Type
REMARK                         _______ _______ _______ _____ _____    ______ ____
ROOT
ATOM      1  N   UNL     1      -6.767  -5.119  -4.218  0.00  0.00    -0.282 N 
ATOM      2  C   UNL     1      -6.798  -6.478  -4.027  0.00  0.00    +0.210 A 
ATOM      3  N   UNL     1      -6.153  -6.985  -3.006  0.00  0.00    -0.197 NA
ATOM      4  C   UNL     1      -6.135  -8.301  -2.752  0.00  0.00    +0.145 A 
ATOM      5  C   UNL     1      -6.826  -9.175  -3.602  0.00  0.00    +0.062 A 
ATOM      6  C   UNL     1      -6.620 -10.518  -3.072  0.00  0.00    +0.032 A 
ATOM      7  C   UNL     1      -5.848 -10.388  -1.978  0.00  0.00    +0.085 A 
ATOM      8  N   UNL     1      -5.553  -9.064  -1.779  0.00  0.00    -0.346 N 
ATOM      9  H   UNL     1      -5.010  -8.719  -1.053  0.00  0.00    +0.167 HD
ATOM     10  C   UNL     1      -7.548  -8.617  -4.743  0.00  0.00    +0.154 A 
ATOM     11  N   UNL     1      -7.507  -7.250  -4.910  0.00  0.00    -0.231 N 
ATOM     12  C   UNL     1      -8.157  -6.669  -5.943  0.00  0.00    +0.271 A 
ATOM     13  O   UNL     1      -8.126  -5.463  -6.107  0.00  0.00    -0.266 OA
ATOM     14  C   UNL     1      -8.901  -7.539  -6.859  0.00  0.00    +0.100 A 
ATOM     15  C   UNL     1      -8.896  -8.933  -6.612  0.00  0.00    +0.081 A 
ATOM     16  N   UNL     1      -8.208  -9.412  -5.561  0.00  0.00    -0.228 NA
ATOM     17  C   UNL     1      -9.599  -9.783  -7.474  0.00  0.00    +0.029 A 
ATOM     18  C   UNL     1     -10.278  -9.262  -8.538  0.00  0.00    +0.005 A 
ATOM     19  C   UNL     1     -10.285  -7.895  -8.784  0.00  0.00    +0.039 A 
ATOM     20  C   UNL     1      -9.603  -7.028  -7.954  0.00  0.00    +0.138 A 
ATOM     21  F   UNL     1      -9.614  -5.700  -8.198  0.00  0.00    -0.205 F 
ATOM     22  H   UNL     1      -7.307  -4.714  -4.915  0.00  0.00    +0.155 HD
ENDROOT
BRANCH   1  26
ATOM     23  C   UNL     1      -4.350  -2.726  -1.795  0.00  0.00    +0.033 A 
ATOM     24  C   UNL     1      -4.096  -4.087  -1.906  0.00  0.00    +0.025 A 
ATOM     25  C   UNL     1      -4.896  -4.878  -2.708  0.00  0.00    +0.029 A 
ATOM     26  C   UNL     1      -5.955  -4.315  -3.403  0.00  0.00    +0.076 A 
ATOM     27  C   UNL     1      -6.213  -2.950  -3.294  0.00  0.00    +0.143 A 
ATOM     28  C   UNL     1      -5.413  -2.159  -2.486  0.00  0.00    +0.070 A 
BRANCH  23  32
ATOM     29  N   UNL     1      -2.639  -0.522   1.260  0.00  0.00    +0.383 N 
ATOM     30  C   UNL     1      -3.812  -0.032   0.526  0.00  0.00    -0.059 C 
ATOM     31  C   UNL     1      -3.715  -0.467  -0.940  0.00  0.00    +0.086 C 
ATOM     32  N   UNL     1      -3.539  -1.927  -0.982  0.00  0.00    -0.333 N 
ATOM     33  C   UNL     1      -2.486  -2.523  -0.146  0.00  0.00    +0.086 C 
ATOM     34  C   UNL     1      -2.641  -1.990   1.283  0.00  0.00    -0.059 C 
ATOM     35  H   UNL     1      -1.800  -0.195   0.805  0.00  0.00    -0.081 HD
BRANCH  29  37
ATOM     36  C   UNL     1      -1.450  -0.514   3.401  0.00  0.00    -0.014 C 
ATOM     37  C   UNL     1      -2.677  -0.013   2.638  0.00  0.00    -0.075 C 
ATOM     38  C   UNL     1      -2.675   1.517   2.616  0.00  0.00    -0.014 C 
ENDBRANCH  29  37
ENDBRANCH  23  32
BRANCH  27  39
ATOM     39  O   UNL     1      -7.251  -2.396  -3.975  0.00  0.00    -0.493 OA
ATOM     40  C   UNL     1      -7.456  -0.991  -3.815  0.00  0.00    +0.277 C 
ENDBRANCH  27  39
ENDBRANCH   1  26
TORSDOF 4
