REMARK  Name = CHEMBL1222790
REMARK  3 active torsions:
REMARK  status: ('A' for Active; 'I' for Inactive)
REMARK    1  A    between atoms: C_6  and  C_10
REMARK    2  A    between atoms: C_17  and  C_19
REMARK    3  A    between atoms: C_29  and  C_33
REMARK                            x       y       z     vdW  Elec       q    Type
REMARK                         _______ _______ _______ _____ _____    ______ ____
ROOT
ATOM      1  C   UNL     1       0.792   1.192  -1.113  0.00  0.00    +0.022 A 
ATOM      2  C   UNL     1       2.143   1.528  -1.014  0.00  0.00    +0.033 A 
ATOM      3  C   UNL     1       2.830   0.355  -0.765  0.00  0.00    +0.105 A 
ATOM      4  C   UNL     1       4.194   0.043  -0.568  0.00  0.00    +0.152 A 
ATOM      5  N   UNL     1       4.543  -1.214  -0.344  0.00  0.00    -0.211 NA
ATOM      6  C   UNL     1       3.639  -2.191  -0.299  0.00  0.00    +0.172 A 
ATOM      7  N   UNL     1       2.365  -1.971  -0.472  0.00  0.00    -0.149 NA
ATOM      8  N   UNL     1       1.904  -0.669  -0.715  0.00  0.00    -0.235 N 
ATOM      9  C   UNL     1       0.680  -0.150  -0.927  0.00  0.00    +0.113 A 
ATOM     10  N   UNL     1       5.152   1.037  -0.610  0.00  0.00    -0.281 N 
ATOM     11  C   UNL     1       6.502   0.717  -0.414  0.00  0.00    +0.146 A 
ATOM     12  C   UNL     1       7.019  -0.566  -0.172  0.00  0.00    +0.068 A 
ATOM     13  C   UNL     1       8.360  -0.454  -0.039  0.00  0.00    +0.041 A 
ATOM     14  N   UNL     1       8.684   0.848  -0.190  0.00  0.00    -0.280 N 
ATOM     15  H   UNL     1       9.578   1.222  -0.144  0.00  0.00    +0.189 HD
ATOM     16  N   UNL     1       7.504   1.564  -0.430  0.00  0.00    -0.158 NA
ATOM     17  H   UNL     1       4.891   1.956  -0.775  0.00  0.00    +0.155 HD
ENDROOT
BRANCH   6  18
ATOM     18  C   UNL     1       4.104  -3.600  -0.039  0.00  0.00    +0.154 C 
ATOM     19  C   UNL     1       4.277  -4.361  -1.372  0.00  0.00    +0.040 C 
ATOM     20  C   UNL     1       2.903  -5.054  -1.520  0.00  0.00    +0.099 C 
ATOM     21  C   UNL     1       2.388  -5.163  -0.102  0.00  0.00    +0.223 C 
ATOM     22  O   UNL     1       1.482  -5.886   0.254  0.00  0.00    -0.275 OA
ATOM     23  N   UNL     1       3.082  -4.343   0.708  0.00  0.00    -0.227 N 
ATOM     24  C   UNL     1       2.869  -4.219   2.033  0.00  0.00    +0.255 C 
ATOM     25  O   UNL     1       1.917  -4.771   2.549  0.00  0.00    -0.269 OA
BRANCH  24  26
ATOM     26  C   UNL     1       3.791  -3.413   2.858  0.00  0.00    +0.056 A 
ATOM     27  C   UNL     1       3.827  -3.573   4.250  0.00  0.00    +0.019 A 
ATOM     28  C   UNL     1       4.707  -2.796   4.977  0.00  0.00    +0.060 A 
ATOM     29  C   UNL     1       5.520  -1.889   4.312  0.00  0.00    +0.213 A 
ATOM     30  N   UNL     1       5.464  -1.760   2.998  0.00  0.00    -0.227 NA
ATOM     31  C   UNL     1       4.645  -2.484   2.263  0.00  0.00    +0.127 A 
ATOM     32  F   UNL     1       6.383  -1.126   5.018  0.00  0.00    -0.184 F 
ENDBRANCH  24  26
ENDBRANCH   6  18
BRANCH  13  33
ATOM     33  C   UNL     1       9.322  -1.582   0.230  0.00  0.00    +0.037 C 
ATOM     34  C   UNL     1      10.552  -1.272   1.087  0.00  0.00    +0.010 C 
ATOM     35  C   UNL     1      10.706  -1.501  -0.418  0.00  0.00    +0.010 C 
ENDBRANCH  13  33
TORSDOF 3
