REMARK  Name = CHEMBL575888
REMARK  3 active torsions:
REMARK  status: ('A' for Active; 'I' for Inactive)
REMARK    1  A    between atoms: C_14  and  C_16
REMARK    2  A    between atoms: N_19  and  C_20
REMARK    3  A    between atoms: C_22  and  C_26
REMARK                            x       y       z     vdW  Elec       q    Type
REMARK                         _______ _______ _______ _____ _____    ______ ____
ROOT
ATOM      1  C   UNL     1       1.522   3.047   0.890  0.00  0.00    +0.022 A 
ATOM      2  C   UNL     1       2.809   3.127   1.424  0.00  0.00    +0.032 A 
ATOM      3  C   UNL     1       3.478   1.984   1.026  0.00  0.00    +0.103 A 
ATOM      4  C   UNL     1       4.786   1.492   1.242  0.00  0.00    +0.153 A 
ATOM      5  N   UNL     1       5.138   0.333   0.713  0.00  0.00    -0.198 NA
ATOM      6  C   UNL     1       4.284  -0.387  -0.022  0.00  0.00    +0.213 A 
ATOM      7  N   UNL     1       3.058   0.013  -0.259  0.00  0.00    -0.264 N 
ATOM      8  N   UNL     1       2.606   1.232   0.265  0.00  0.00    -0.257 N 
ATOM      9  C   UNL     1       1.431   1.884   0.192  0.00  0.00    +0.111 A 
ATOM     10  N   UNL     1       4.710  -1.598  -0.552  0.00  0.00    -0.288 N 
ATOM     11  C   UNL     1       3.860  -2.572  -1.261  0.00  0.00    +0.109 C 
ATOM     12  C   UNL     1       4.837  -3.375  -2.155  0.00  0.00    +0.021 C 
ATOM     13  C   UNL     1       6.085  -3.476  -1.239  0.00  0.00    +0.033 C 
ATOM     14  C   UNL     1       6.084  -2.118  -0.506  0.00  0.00    +0.162 C 
ATOM     15  N   UNL     1       5.688   2.217   1.997  0.00  0.00    -0.283 N 
ATOM     16  H   UNL     1       5.432   3.077   2.364  0.00  0.00    +0.155 HD
ATOM     17  H   UNL     1       2.465  -0.533  -0.798  0.00  0.00    +0.190 HD
ENDROOT
BRANCH  15  18
ATOM     18  C   UNL     1       6.965   1.712   2.231  0.00  0.00    +0.120 A 
ATOM     19  C   UNL     1       7.390   0.444   1.972  0.00  0.00    +0.068 A 
ATOM     20  C   UNL     1       8.731   0.355   2.353  0.00  0.00    +0.068 A 
ATOM     21  N   UNL     1       9.106   1.517   2.823  0.00  0.00    -0.177 NA
ATOM     22  H   UNL     1       8.012   3.324   3.031  0.00  0.00    +0.190 HD
ATOM     23  N   UNL     1       8.016   2.395   2.753  0.00  0.00    -0.264 N 
BRANCH  20  24
ATOM     24  C   UNL     1       9.599  -0.872   2.242  0.00  0.00    +0.040 C 
ATOM     25  C   UNL     1       8.899  -2.216   2.031  0.00  0.00    +0.010 C 
ATOM     26  C   UNL     1       9.535  -1.888   3.384  0.00  0.00    +0.010 C 
ENDBRANCH  20  24
ENDBRANCH  15  18
BRANCH  14  27
ATOM     27  C   UNL     1       7.019  -1.159  -1.197  0.00  0.00    +0.231 C 
ATOM     28  O   UNL     1       6.574  -0.296  -1.923  0.00  0.00    -0.274 OA
ATOM     29  N   UNL     1       8.350  -1.261  -1.008  0.00  0.00    -0.328 N 
ATOM     30  H   UNL     1       8.701  -1.894  -0.362  0.00  0.00    +0.145 HD
ATOM     31  H   UNL     1       8.956  -0.701  -1.518  0.00  0.00    +0.145 HD
ENDBRANCH  14  27
TORSDOF 3
