REMARK  Name = CHEMBL465577
REMARK  8 active torsions:
REMARK  status: ('A' for Active; 'I' for Inactive)
REMARK    1  A    between atoms: C_1  and  O_2
REMARK    2  A    between atoms: O_2  and  C_3
REMARK    3  A    between atoms: C_8  and  N_9
REMARK    4  A    between atoms: C_18  and  N_20
REMARK    5  A    between atoms: N_20  and  C_21
REMARK    6  A    between atoms: C_26  and  C_27
REMARK    7  A    between atoms: C_34  and  C_36
REMARK    8  A    between atoms: C_36  and  N_37
REMARK                            x       y       z     vdW  Elec       q    Type
REMARK                         _______ _______ _______ _____ _____    ______ ____
ROOT
ATOM      1  N   UNL     1       0.091  -2.776   0.091  0.00  0.00    -0.281 N 
ATOM      2  C   UNL     1      -0.306  -4.078   0.350  0.00  0.00    +0.223 A 
ATOM      3  N   UNL     1      -0.213  -4.537   1.587  0.00  0.00    -0.196 NA
ATOM      4  C   UNL     1      -0.584  -5.782   1.879  0.00  0.00    +0.145 A 
ATOM      5  C   UNL     1      -1.076  -6.599   0.844  0.00  0.00    +0.059 A 
ATOM      6  C   UNL     1      -1.397  -7.887   1.458  0.00  0.00    +0.032 A 
ATOM      7  C   UNL     1      -1.095  -7.782   2.762  0.00  0.00    +0.085 A 
ATOM      8  N   UNL     1      -0.608  -6.526   3.026  0.00  0.00    -0.346 N 
ATOM      9  H   UNL     1      -0.323  -6.213   3.899  0.00  0.00    +0.167 HD
ATOM     10  C   UNL     1      -1.157  -6.071  -0.454  0.00  0.00    +0.137 A 
ATOM     11  N   UNL     1      -0.769  -4.815  -0.651  0.00  0.00    -0.198 NA
ATOM     12  H   UNL     1      -0.053  -2.390  -0.788  0.00  0.00    +0.155 HD
ENDROOT
BRANCH   1  18
ATOM     13  C   UNL     1       0.637  -0.625   1.055  0.00  0.00    +0.142 A 
ATOM     14  C   UNL     1       1.238   0.119   2.056  0.00  0.00    +0.053 A 
ATOM     15  C   UNL     1       1.904  -0.515   3.089  0.00  0.00    -0.021 A 
ATOM     16  C   UNL     1       1.978  -1.898   3.138  0.00  0.00    +0.042 A 
ATOM     17  C   UNL     1       1.372  -2.648   2.130  0.00  0.00    +0.050 A 
ATOM     18  C   UNL     1       0.701  -2.016   1.097  0.00  0.00    +0.078 A 
ATOM     19  N   UNL     1       2.693  -2.336   4.260  0.00  0.00    -0.269 N 
ATOM     20  C   UNL     1       3.147  -1.186   5.046  0.00  0.00    +0.118 C 
ATOM     21  C   UNL     1       2.634   0.049   4.288  0.00  0.00    +0.056 C 
ATOM     22  C   UNL     1       2.928  -3.626   4.571  0.00  0.00    +0.240 C 
ATOM     23  O   UNL     1       2.508  -4.509   3.853  0.00  0.00    -0.273 OA
BRANCH  13  25
ATOM     24  C   UNL     1      -0.042   1.427   0.062  0.00  0.00    +0.277 C 
ATOM     25  O   UNL     1      -0.018  -0.002   0.038  0.00  0.00    -0.493 OA
ENDBRANCH  13  25
BRANCH  22  26
ATOM     26  C   UNL     1       3.713  -3.971   5.810  0.00  0.00    +0.218 C 
BRANCH  26  27
ATOM     27  N   UNL     1       3.830  -5.427   5.924  0.00  0.00    -0.330 N 
ATOM     28  C   UNL     1       2.958  -6.265   6.566  0.00  0.00    +0.105 A 
ATOM     29  C   UNL     1       3.443  -7.513   6.426  0.00  0.00    +0.101 A 
ATOM     30  N   UNL     1       4.581  -7.440   5.720  0.00  0.00    -0.352 N 
ATOM     31  C   UNL     1       4.816  -6.194   5.411  0.00  0.00    +0.174 A 
ATOM     32  H   UNL     1       5.138  -8.194   5.473  0.00  0.00    +0.166 HD
ENDBRANCH  26  27
ENDBRANCH  22  26
ENDBRANCH   1  18
BRANCH  10  33
ATOM     33  N   UNL     1      -1.634  -6.839  -1.503  0.00  0.00    -0.298 N 
ATOM     34  H   UNL     1      -1.996  -7.722  -1.332  0.00  0.00    +0.154 HD
BRANCH  33  35
ATOM     35  C   UNL     1      -1.595  -6.343  -2.801  0.00  0.00    +0.047 A 
ATOM     36  C   UNL     1      -0.667  -5.370  -3.149  0.00  0.00    +0.024 A 
ATOM     37  C   UNL     1      -0.629  -4.878  -4.438  0.00  0.00    +0.005 A 
ATOM     38  C   UNL     1      -1.513  -5.347  -5.395  0.00  0.00    +0.039 A 
ATOM     39  C   UNL     1      -2.444  -6.314  -5.070  0.00  0.00    +0.137 A 
ATOM     40  C   UNL     1      -2.490  -6.827  -3.768  0.00  0.00    +0.093 A 
ATOM     41  F   UNL     1      -3.304  -6.768  -6.007  0.00  0.00    -0.205 F 
BRANCH  40  42
ATOM     42  C   UNL     1      -3.476  -7.863  -3.414  0.00  0.00    +0.246 C 
ATOM     43  O   UNL     1      -4.574  -7.542  -3.003  0.00  0.00    -0.270 OA
ATOM     44  N   UNL     1      -3.160  -9.167  -3.546  0.00  0.00    -0.325 N 
ATOM     45  H   UNL     1      -2.284  -9.423  -3.874  0.00  0.00    +0.145 HD
ATOM     46  H   UNL     1      -3.809  -9.849  -3.313  0.00  0.00    +0.145 HD
ENDBRANCH  40  42
ENDBRANCH  33  35
ENDBRANCH  10  33
TORSDOF 7
