REMARK  Name = CHEMBL399021
REMARK  8 active torsions:
REMARK  status: ('A' for Active; 'I' for Inactive)
REMARK    1  A    between atoms: C_4  and  C_7
REMARK    2  A    between atoms: C_7  and  O_8
REMARK    3  A    between atoms: O_8  and  C_9
REMARK    4  A    between atoms: C_13  and  C_15
REMARK    5  A    between atoms: N_17  and  C_25
REMARK    6  A    between atoms: C_20  and  N_24
REMARK    7  A    between atoms: C_27  and  C_29
REMARK    8  A    between atoms: C_29  and  N_30
REMARK                            x       y       z     vdW  Elec       q    Type
REMARK                         _______ _______ _______ _____ _____    ______ ____
ROOT
ATOM      1  C   UNL     1       7.496  -2.846   4.268  0.00  0.00    +0.012 A 
ATOM      2  C   UNL     1       7.610  -1.970   5.297  0.00  0.00    +0.097 A 
ATOM      3  N   UNL     1       8.142  -2.607   6.385  0.00  0.00    -0.328 N 
ATOM      4  C   UNL     1       8.389  -3.921   6.092  0.00  0.00    +0.147 A 
ATOM      5  C   UNL     1       7.994  -4.136   4.761  0.00  0.00    +0.066 A 
ATOM      6  C   UNL     1       8.140  -5.418   4.213  0.00  0.00    +0.129 A 
ATOM      7  N   UNL     1       8.645  -6.379   4.982  0.00  0.00    -0.220 NA
ATOM      8  C   UNL     1       9.001  -6.135   6.230  0.00  0.00    +0.225 A 
ATOM      9  N   UNL     1       8.890  -4.945   6.781  0.00  0.00    -0.218 NA
ENDROOT
BRANCH   1  14
ATOM     10  C   UNL     1       5.257  -1.638   1.496  0.00  0.00    +0.122 A 
ATOM     11  C   UNL     1       5.984  -2.023   0.377  0.00  0.00    +0.046 A 
ATOM     12  C   UNL     1       7.195  -2.672   0.524  0.00  0.00    +0.004 A 
ATOM     13  C   UNL     1       7.690  -2.942   1.784  0.00  0.00    +0.009 A 
ATOM     14  C   UNL     1       6.967  -2.558   2.913  0.00  0.00    -0.012 A 
ATOM     15  C   UNL     1       5.748  -1.899   2.764  0.00  0.00    +0.054 A 
BRANCH  10  16
ATOM     16  O   UNL     1       4.066  -1.001   1.346  0.00  0.00    -0.487 OA
BRANCH  16  17
ATOM     17  C   UNL     1       3.620  -0.764   0.009  0.00  0.00    +0.264 C 
BRANCH  17  21
ATOM     18  C   UNL     1      -0.144   1.252   0.098  0.00  0.00    +0.000 A 
ATOM     19  C   UNL     1       1.030   1.981   0.082  0.00  0.00    +0.000 A 
ATOM     20  C   UNL     1       2.248   1.329   0.054  0.00  0.00    +0.007 A 
ATOM     21  C   UNL     1       2.292  -0.053   0.041  0.00  0.00    -0.010 A 
ATOM     22  C   UNL     1       1.118  -0.782   0.058  0.00  0.00    +0.007 A 
ATOM     23  C   UNL     1      -0.101  -0.129   0.085  0.00  0.00    +0.000 A 
ENDBRANCH  17  21
ENDBRANCH  16  17
ENDBRANCH  10  16
ENDBRANCH   1  14
BRANCH   3  24
ATOM     24  C   UNL     1       8.408  -1.972   7.678  0.00  0.00    +0.089 C 
ATOM     25  C   UNL     1       7.429  -0.837   8.021  0.00  0.00    +0.027 C 
ATOM     26  C   UNL     1       8.398   0.112   7.295  0.00  0.00    -0.024 C 
ATOM     27  C   UNL     1       9.509  -0.900   7.623  0.00  0.00    +0.027 C 
BRANCH  26  28
ATOM     28  C   UNL     1       8.572   1.461   7.995  0.00  0.00    -0.075 C 
BRANCH  28  29
ATOM     29  N   UNL     1       9.416   2.335   7.168  0.00  0.00    +0.380 N 
ATOM     30  C   UNL     1       8.694   2.721   5.929  0.00  0.00    -0.079 C 
ATOM     31  C   UNL     1       9.421   4.015   5.484  0.00  0.00    -0.020 C 
ATOM     32  C   UNL     1       9.727   4.719   6.825  0.00  0.00    -0.020 C 
ATOM     33  C   UNL     1       9.694   3.600   7.883  0.00  0.00    -0.079 C 
ATOM     34  H   UNL     1      10.280   1.869   6.938  0.00  0.00    -0.082 HD
ENDBRANCH  28  29
ENDBRANCH  26  28
ENDBRANCH   3  24
BRANCH   6  35
ATOM     35  N   UNL     1       7.767  -5.678   2.907  0.00  0.00    -0.343 N 
ATOM     36  H   UNL     1       7.399  -4.968   2.357  0.00  0.00    +0.144 HD
ATOM     37  H   UNL     1       7.873  -6.569   2.540  0.00  0.00    +0.144 HD
ENDBRANCH   6  35
TORSDOF 8
