REMARK  Name = CHEMBL590050
REMARK  9 active torsions:
REMARK  status: ('A' for Active; 'I' for Inactive)
REMARK    1  A    between atoms: C_1  and  C_2
REMARK    2  A    between atoms: C_2  and  C_3
REMARK    3  A    between atoms: C_3  and  C_5
REMARK    4  A    between atoms: C_9  and  N_11
REMARK    5  A    between atoms: N_11  and  C_12
REMARK    6  A    between atoms: C_19  and  N_20
REMARK    7  A    between atoms: N_20  and  C_21
REMARK    8  A    between atoms: C_24  and  N_27
REMARK    9  A    between atoms: N_30  and  C_33
REMARK                            x       y       z     vdW  Elec       q    Type
REMARK                         _______ _______ _______ _____ _____    ______ ____
ROOT
ATOM      1  C   UNL     1       2.406  -5.579  -4.311  0.00  0.00    +0.032 A 
ATOM      2  C   UNL     1       1.895  -6.531  -3.429  0.00  0.00    +0.024 A 
ATOM      3  C   UNL     1       2.162  -7.858  -3.602  0.00  0.00    +0.015 A 
ATOM      4  C   UNL     1       2.957  -8.275  -4.673  0.00  0.00    +0.045 A 
ATOM      5  C   UNL     1       3.478  -7.315  -5.569  0.00  0.00    +0.002 A 
ATOM      6  C   UNL     1       3.194  -5.969  -5.386  0.00  0.00    +0.032 A 
ATOM      7  C   UNL     1       4.315  -7.788  -6.690  0.00  0.00    +0.059 C 
ATOM      8  C   UNL     1       4.853  -6.902  -7.598  0.00  0.00    +0.085 C 
ATOM      9  C   UNL     1       4.557  -9.231  -6.808  0.00  0.00    +0.252 C 
ATOM     10  O   UNL     1       5.243  -9.655  -7.720  0.00  0.00    -0.270 OA
ATOM     11  N   UNL     1       4.030 -10.088  -5.918  0.00  0.00    -0.248 N 
ATOM     12  C   UNL     1       3.265  -9.692  -4.888  0.00  0.00    +0.251 C 
ATOM     13  O   UNL     1       2.820 -10.524  -4.120  0.00  0.00    -0.270 OA
ATOM     14  H   UNL     1       4.210 -11.035  -6.025  0.00  0.00    +0.158 HD
ENDROOT
BRANCH   1  15
ATOM     15  N   UNL     1       2.121  -4.230  -4.116  0.00  0.00    -0.314 N 
ATOM     16  H   UNL     1       2.011  -3.642  -4.880  0.00  0.00    +0.152 HD
BRANCH  15  21
ATOM     17  C   UNL     1       2.493  -3.847  -0.468  0.00  0.00    +0.019 A 
ATOM     18  C   UNL     1       1.721  -2.701  -0.250  0.00  0.00    +0.011 A 
ATOM     19  C   UNL     1       1.096  -2.079  -1.311  0.00  0.00    +0.002 A 
ATOM     20  C   UNL     1       1.228  -2.585  -2.591  0.00  0.00    +0.023 A 
ATOM     21  C   UNL     1       1.992  -3.724  -2.820  0.00  0.00    +0.032 A 
ATOM     22  C   UNL     1       2.631  -4.354  -1.763  0.00  0.00    +0.034 A 
BRANCH  17  23
ATOM     23  C   UNL     1       3.162  -4.513   0.661  0.00  0.00    +0.163 C 
ATOM     24  O   UNL     1       3.835  -5.503   0.469  0.00  0.00    -0.292 OA
BRANCH  23  26
ATOM     25  C   UNL     1       3.801  -4.835   3.036  0.00  0.00    +0.012 C 
ATOM     26  C   UNL     1       3.011  -3.963   2.056  0.00  0.00    +0.076 C 
ENDBRANCH  23  26
ENDBRANCH  17  23
ENDBRANCH  15  21
ENDBRANCH   1  15
BRANCH   8  27
ATOM     27  N   UNL     1       5.507  -7.367  -8.695  0.00  0.00    -0.320 N 
ATOM     28  H   UNL     1       5.662  -8.318  -8.801  0.00  0.00    +0.152 HD
BRANCH  27  29
ATOM     29  C   UNL     1       5.957  -6.472  -9.673  0.00  0.00    +0.031 A 
ATOM     30  C   UNL     1       5.740  -5.108  -9.518  0.00  0.00    +0.025 A 
ATOM     31  C   UNL     1       6.184  -4.225 -10.482  0.00  0.00    +0.025 A 
ATOM     32  C   UNL     1       6.848  -4.700 -11.606  0.00  0.00    +0.030 A 
ATOM     33  C   UNL     1       7.064  -6.064 -11.761  0.00  0.00    +0.025 A 
ATOM     34  C   UNL     1       6.625  -6.946 -10.794  0.00  0.00    +0.025 A 
BRANCH  32  35
ATOM     35  N   UNL     1       7.297  -3.806 -12.583  0.00  0.00    -0.333 N 
ATOM     36  C   UNL     1       7.880  -4.292 -13.843  0.00  0.00    +0.086 C 
ATOM     37  C   UNL     1       7.182  -3.581 -15.007  0.00  0.00    -0.060 C 
ATOM     38  N   UNL     1       7.274  -2.128 -14.818  0.00  0.00    +0.380 N 
ATOM     39  C   UNL     1       6.535  -1.732 -13.613  0.00  0.00    -0.060 C 
ATOM     40  C   UNL     1       7.195  -2.352 -12.382  0.00  0.00    +0.086 C 
ATOM     41  C   UNL     1       6.703  -1.446 -15.987  0.00  0.00    -0.096 C 
ATOM     42  H   UNL     1       8.243  -1.864 -14.718  0.00  0.00    -0.082 HD
ENDBRANCH  32  35
ENDBRANCH  27  29
ENDBRANCH   8  27
TORSDOF 7
