REMARK  Name = CHEMBL482101
REMARK  8 active torsions:
REMARK  status: ('A' for Active; 'I' for Inactive)
REMARK    1  A    between atoms: C_1  and  C_2
REMARK    2  A    between atoms: C_4  and  N_32
REMARK    3  A    between atoms: C_9  and  C_12
REMARK    4  A    between atoms: C_13  and  N_20
REMARK    5  A    between atoms: N_20  and  C_21
REMARK    6  A    between atoms: C_21  and  C_22
REMARK    7  A    between atoms: C_22  and  C_24
REMARK    8  A    between atoms: C_22  and  O_31
REMARK                            x       y       z     vdW  Elec       q    Type
REMARK                         _______ _______ _______ _____ _____    ______ ____
ROOT
ATOM      1  C   UNL     1       0.169   1.080   0.177  0.00  0.00    +0.046 C 
ATOM      2  C   UNL     1       0.161  -0.427   0.208  0.00  0.00    -0.021 A 
ATOM      3  C   UNL     1       0.178  -1.134  -0.961  0.00  0.00    +0.028 A 
ATOM      4  C   UNL     1       0.170  -2.526  -0.947  0.00  0.00    +0.032 A 
ATOM      5  C   UNL     1       0.145  -3.213   0.257  0.00  0.00    +0.051 A 
ATOM      6  C   UNL     1       0.127  -2.507   1.450  0.00  0.00    +0.068 A 
ATOM      7  C   UNL     1       0.141  -1.101   1.433  0.00  0.00    +0.092 A 
ATOM      8  N   UNL     1       0.126  -0.683   2.724  0.00  0.00    -0.227 NA
ATOM      9  C   UNL     1       0.110  -1.724   3.524  0.00  0.00    +0.146 A 
ATOM     10  N   UNL     1       0.101  -2.878   2.782  0.00  0.00    -0.338 N 
ATOM     11  H   UNL     1       0.090  -3.784   3.128  0.00  0.00    +0.167 HD
ENDROOT
BRANCH   4  12
ATOM     12  N   UNL     1       0.188  -3.235  -2.152  0.00  0.00    -0.329 N 
ATOM     13  C   UNL     1       0.089  -2.529  -3.437  0.00  0.00    +0.110 C 
ATOM     14  C   UNL     1      -1.064  -3.134  -4.245  0.00  0.00    +0.084 C 
ATOM     15  C   UNL     1      -0.859  -4.645  -4.368  0.00  0.00    +0.173 C 
ATOM     16  C   UNL     1      -0.849  -5.284  -2.978  0.00  0.00    +0.084 C 
ATOM     17  C   UNL     1       0.312  -4.699  -2.159  0.00  0.00    +0.110 C 
ATOM     18  O   UNL     1       0.385  -4.909  -5.029  0.00  0.00    -0.346 OA
ATOM     19  C   UNL     1       0.082  -5.633  -6.239  0.00  0.00    +0.191 C 
ATOM     20  C   UNL     1      -1.405  -5.280  -6.494  0.00  0.00    +0.191 C 
ATOM     21  O   UNL     1      -1.927  -5.210  -5.145  0.00  0.00    -0.346 OA
ENDBRANCH   4  12
BRANCH   9  22
ATOM     22  C   UNL     1       0.092  -1.662   4.995  0.00  0.00    +0.102 A 
ATOM     23  C   UNL     1      -0.030  -0.431   5.656  0.00  0.00    +0.045 A 
ATOM     24  C   UNL     1      -0.043  -0.417   7.064  0.00  0.00    +0.041 A 
ATOM     25  C   UNL     1       0.060  -1.575   7.751  0.00  0.00    +0.088 A 
ATOM     26  N   UNL     1       0.178  -2.768   7.110  0.00  0.00    -0.328 N 
ATOM     27  H   UNL     1       0.250  -3.583   7.632  0.00  0.00    +0.168 HD
ATOM     28  C   UNL     1       0.191  -2.841   5.766  0.00  0.00    +0.261 A 
ATOM     29  O   UNL     1       0.292  -3.925   5.215  0.00  0.00    -0.267 OA
BRANCH  23  30
ATOM     30  N   UNL     1      -0.133   0.743   4.941  0.00  0.00    -0.340 N 
ATOM     31  H   UNL     1      -0.203   0.718   3.974  0.00  0.00    +0.146 HD
BRANCH  30  32
ATOM     32  C   UNL     1      -0.139   2.030   5.642  0.00  0.00    +0.137 C 
BRANCH  32  33
ATOM     33  C   UNL     1      -0.263   3.165   4.624  0.00  0.00    +0.161 C 
BRANCH  33  34
ATOM     34  C   UNL     1      -0.145   4.490   5.332  0.00  0.00    -0.016 A 
ATOM     35  C   UNL     1      -1.234   5.013   6.004  0.00  0.00    +0.006 A 
ATOM     36  C   UNL     1      -1.127   6.228   6.654  0.00  0.00    +0.002 A 
ATOM     37  C   UNL     1       0.069   6.921   6.632  0.00  0.00    +0.020 A 
ATOM     38  C   UNL     1       1.159   6.398   5.959  0.00  0.00    +0.041 A 
ATOM     39  C   UNL     1       1.052   5.179   5.314  0.00  0.00    +0.026 A 
ATOM     40 CL   UNL     1       2.661   7.268   5.930  0.00  0.00    -0.084 Cl
ENDBRANCH  33  34
BRANCH  33  41
ATOM     41  O   UNL     1      -1.532   3.084   3.973  0.00  0.00    -0.386 OA
ATOM     42  H   UNL     1      -2.287   3.155   4.572  0.00  0.00    +0.210 HD
ENDBRANCH  33  41
ENDBRANCH  32  33
ENDBRANCH  30  32
ENDBRANCH  23  30
ENDBRANCH   9  22
TORSDOF 7
