REMARK  Name = CHEMBL458414
REMARK  10 active torsions:
REMARK  status: ('A' for Active; 'I' for Inactive)
REMARK    1  A    between atoms: C_1  and  N_2
REMARK    2  A    between atoms: N_2  and  C_3
REMARK    3  A    between atoms: N_2  and  C_4
REMARK    4  A    between atoms: C_4  and  C_5
REMARK    5  A    between atoms: C_14  and  N_19
REMARK    6  A    between atoms: C_15  and  O_17
REMARK    7  A    between atoms: O_17  and  C_18
REMARK    8  A    between atoms: C_28  and  N_30
REMARK    9  A    between atoms: N_30  and  C_31
REMARK   10  A    between atoms: C_35  and  C_36
REMARK                            x       y       z     vdW  Elec       q    Type
REMARK                         _______ _______ _______ _____ _____    ______ ____
ROOT
ATOM      1  N   UNL     1      -2.738   1.945   5.957  0.00  0.00    -0.281 N 
ATOM      2  C   UNL     1      -2.896   2.842   4.912  0.00  0.00    +0.223 A 
ATOM      3  N   UNL     1      -2.054   2.786   3.893  0.00  0.00    -0.196 NA
ATOM      4  C   UNL     1      -2.171   3.629   2.868  0.00  0.00    +0.145 A 
ATOM      5  C   UNL     1      -3.208   4.580   2.893  0.00  0.00    +0.059 A 
ATOM      6  C   UNL     1      -3.084   5.351   1.656  0.00  0.00    +0.032 A 
ATOM      7  C   UNL     1      -2.033   4.848   0.989  0.00  0.00    +0.085 A 
ATOM      8  N   UNL     1      -1.478   3.817   1.704  0.00  0.00    -0.346 N 
ATOM      9  H   UNL     1      -0.708   3.297   1.425  0.00  0.00    +0.167 HD
ATOM     10  C   UNL     1      -4.078   4.604   3.994  0.00  0.00    +0.137 A 
ATOM     11  N   UNL     1      -3.889   3.721   4.969  0.00  0.00    -0.198 NA
ATOM     12  H   UNL     1      -3.350   1.965   6.709  0.00  0.00    +0.155 HD
ENDROOT
BRANCH   1  22
ATOM     13  C   UNL     1      -0.512  -0.720   2.334  0.00  0.00    +0.203 C 
ATOM     14  O   UNL     1      -1.605  -0.202   2.412  0.00  0.00    -0.277 OA
ATOM     15  N   UNL     1       0.221  -0.918   3.447  0.00  0.00    -0.273 N 
ATOM     16  C   UNL     1       1.492  -1.654   3.385  0.00  0.00    +0.114 C 
ATOM     17  C   UNL     1       1.522  -2.636   4.562  0.00  0.00    +0.024 C 
ATOM     18  C   UNL     1       1.506  -1.842   5.868  0.00  0.00    +0.038 C 
ATOM     19  C   UNL     1       0.375  -0.848   5.867  0.00  0.00    -0.022 A 
ATOM     20  C   UNL     1      -0.213  -0.419   4.686  0.00  0.00    +0.041 A 
ATOM     21  C   UNL     1      -1.248   0.507   4.715  0.00  0.00    +0.050 A 
ATOM     22  C   UNL     1      -1.696   1.011   5.926  0.00  0.00    +0.078 A 
ATOM     23  C   UNL     1      -1.104   0.584   7.112  0.00  0.00    +0.142 A 
ATOM     24  C   UNL     1      -0.078  -0.349   7.079  0.00  0.00    +0.053 A 
BRANCH  23  25
ATOM     25  O   UNL     1      -1.540   1.073   8.305  0.00  0.00    -0.493 OA
ATOM     26  C   UNL     1      -0.887   0.591   9.481  0.00  0.00    +0.277 C 
ENDBRANCH  23  25
BRANCH  13  27
ATOM     27  C   UNL     1       0.028  -1.142   0.992  0.00  0.00    +0.018 C 
BRANCH  27  29
ATOM     28  C   UNL     1      -0.958   0.727  -0.143  0.00  0.00    -0.096 C 
ATOM     29  N   UNL     1      -0.912  -0.739  -0.063  0.00  0.00    +0.382 N 
ATOM     30  C   UNL     1      -0.467  -1.286  -1.351  0.00  0.00    -0.096 C 
ATOM     31  H   UNL     1      -1.832  -1.093   0.153  0.00  0.00    -0.082 HD
ENDBRANCH  27  29
ENDBRANCH  13  27
ENDBRANCH   1  22
BRANCH  10  32
ATOM     32  N   UNL     1      -5.112   5.522   4.061  0.00  0.00    -0.296 N 
ATOM     33  H   UNL     1      -5.241   6.160   3.341  0.00  0.00    +0.154 HD
BRANCH  32  34
ATOM     34  C   UNL     1      -5.964   5.531   5.159  0.00  0.00    +0.083 A 
ATOM     35  C   UNL     1      -5.906   4.679   6.283  0.00  0.00    +0.065 A 
ATOM     36  C   UNL     1      -6.916   5.031   7.103  0.00  0.00    +0.198 A 
ATOM     37  O   UNL     1      -7.596   6.048   6.557  0.00  0.00    -0.456 OA
ATOM     38  C   UNL     1      -7.037   6.382   5.372  0.00  0.00    +0.210 A 
BRANCH  38  39
ATOM     39  C   UNL     1      -7.471   7.412   4.503  0.00  0.00    +0.279 C 
ATOM     40  O   UNL     1      -6.883   7.614   3.456  0.00  0.00    -0.267 OA
ATOM     41  N   UNL     1      -8.536   8.169   4.835  0.00  0.00    -0.323 N 
ATOM     42  H   UNL     1      -9.004   8.008   5.669  0.00  0.00    +0.145 HD
ATOM     43  H   UNL     1      -8.834   8.875   4.240  0.00  0.00    +0.145 HD
ENDBRANCH  38  39
ENDBRANCH  32  34
ENDBRANCH  10  32
TORSDOF 7
