REMARK  Name = CHEMBL477950
REMARK  7 active torsions:
REMARK  status: ('A' for Active; 'I' for Inactive)
REMARK    1  A    between atoms: C_1  and  O_2
REMARK    2  A    between atoms: O_2  and  C_3
REMARK    3  A    between atoms: C_5  and  N_31
REMARK    4  A    between atoms: C_8  and  N_9
REMARK    5  A    between atoms: C_18  and  N_20
REMARK    6  A    between atoms: N_20  and  C_21
REMARK    7  A    between atoms: C_26  and  C_27
REMARK                            x       y       z     vdW  Elec       q    Type
REMARK                         _______ _______ _______ _____ _____    ______ ____
ROOT
ATOM      1  N   UNL     1      -0.111  -2.838   0.082  0.00  0.00    -0.281 N 
ATOM      2  C   UNL     1      -0.279  -4.210  -0.013  0.00  0.00    +0.223 A 
ATOM      3  N   UNL     1      -1.503  -4.693  -0.144  0.00  0.00    -0.196 NA
ATOM      4  C   UNL     1      -1.708  -6.005  -0.239  0.00  0.00    +0.145 A 
ATOM      5  C   UNL     1      -0.597  -6.867  -0.196  0.00  0.00    +0.059 A 
ATOM      6  C   UNL     1      -1.126  -8.224  -0.320  0.00  0.00    +0.032 A 
ATOM      7  C   UNL     1      -2.460  -8.113  -0.425  0.00  0.00    +0.085 A 
ATOM      8  N   UNL     1      -2.821  -6.789  -0.378  0.00  0.00    -0.346 N 
ATOM      9  H   UNL     1      -3.731  -6.458  -0.435  0.00  0.00    +0.167 HD
ATOM     10  C   UNL     1       0.684  -6.310  -0.055  0.00  0.00    +0.137 A 
ATOM     11  N   UNL     1       0.795  -4.989   0.027  0.00  0.00    -0.198 NA
ATOM     12  H   UNL     1       0.781  -2.458   0.086  0.00  0.00    +0.155 HD
ENDROOT
BRANCH   1  18
ATOM     13  C   UNL     1      -1.200  -0.730  -0.405  0.00  0.00    +0.143 A 
ATOM     14  C   UNL     1      -2.309   0.095  -0.320  0.00  0.00    +0.070 A 
ATOM     15  C   UNL     1      -3.449  -0.342   0.342  0.00  0.00    +0.033 A 
ATOM     16  C   UNL     1      -3.476  -1.604   0.919  0.00  0.00    +0.025 A 
ATOM     17  C   UNL     1      -2.370  -2.428   0.837  0.00  0.00    +0.029 A 
ATOM     18  C   UNL     1      -1.232  -1.998   0.171  0.00  0.00    +0.076 A 
BRANCH  15  19
ATOM     19  N   UNL     1      -4.570   0.491   0.428  0.00  0.00    -0.325 N 
ATOM     20  C   UNL     1      -4.525   1.875  -0.070  0.00  0.00    +0.133 C 
ATOM     21  C   UNL     1      -5.731   2.097  -0.990  0.00  0.00    +0.178 C 
ATOM     22  O   UNL     1      -6.924   1.707  -0.306  0.00  0.00    -0.377 OA
ATOM     23  C   UNL     1      -6.970   0.322   0.045  0.00  0.00    +0.178 C 
ATOM     24  C   UNL     1      -5.830   0.007   1.013  0.00  0.00    +0.133 C 
ENDBRANCH  15  19
BRANCH  13  26
ATOM     25  C   UNL     1      -0.121   1.007  -1.619  0.00  0.00    +0.277 C 
ATOM     26  O   UNL     1      -0.083  -0.304  -1.053  0.00  0.00    -0.493 OA
ENDBRANCH  13  26
ENDBRANCH   1  18
BRANCH  10  27
ATOM     27  N   UNL     1       1.807  -7.120  -0.008  0.00  0.00    -0.298 N 
ATOM     28  H   UNL     1       1.710  -8.085  -0.013  0.00  0.00    +0.154 HD
BRANCH  27  29
ATOM     29  C   UNL     1       3.074  -6.549   0.047  0.00  0.00    +0.047 A 
ATOM     30  C   UNL     1       3.277  -5.369   0.750  0.00  0.00    +0.062 A 
ATOM     31  C   UNL     1       4.538  -4.804   0.803  0.00  0.00    +0.125 A 
ATOM     32  C   UNL     1       5.607  -5.409   0.155  0.00  0.00    +0.039 A 
ATOM     33  C   UNL     1       5.422  -6.579  -0.546  0.00  0.00    +0.018 A 
ATOM     34  C   UNL     1       4.154  -7.165  -0.604  0.00  0.00    +0.058 A 
ATOM     35  F   UNL     1       4.731  -3.655   1.488  0.00  0.00    -0.205 F 
BRANCH  34  36
ATOM     36  C   UNL     1       3.951  -8.420  -1.349  0.00  0.00    +0.243 C 
ATOM     37  O   UNL     1       2.830  -8.870  -1.489  0.00  0.00    -0.270 OA
ATOM     38  N   UNL     1       5.009  -9.069  -1.876  0.00  0.00    -0.325 N 
ATOM     39  H   UNL     1       5.903  -8.710  -1.764  0.00  0.00    +0.145 HD
ATOM     40  H   UNL     1       4.875  -9.896  -2.366  0.00  0.00    +0.145 HD
ENDBRANCH  34  36
ENDBRANCH  27  29
ENDBRANCH  10  27
TORSDOF 6
