REMARK  Name = CHEMBL522785
REMARK  9 active torsions:
REMARK  status: ('A' for Active; 'I' for Inactive)
REMARK    1  A    between atoms: C_1  and  C_2
REMARK    2  A    between atoms: C_4  and  N_8
REMARK    3  A    between atoms: C_13  and  O_37
REMARK    4  A    between atoms: C_14  and  O_35
REMARK    5  A    between atoms: C_17  and  N_19
REMARK    6  A    between atoms: N_19  and  C_20
REMARK    7  A    between atoms: C_24  and  C_26
REMARK    8  A    between atoms: O_35  and  C_36
REMARK    9  A    between atoms: O_37  and  C_38
REMARK                            x       y       z     vdW  Elec       q    Type
REMARK                         _______ _______ _______ _____ _____    ______ ____
ROOT
ATOM      1  N   UNL     1      -0.536  -3.345   1.584  0.00  0.00    -0.269 N 
ATOM      2  C   UNL     1      -0.268  -3.188   2.933  0.00  0.00    +0.223 A 
ATOM      3  N   UNL     1      -0.293  -1.972   3.445  0.00  0.00    -0.214 NA
ATOM      4  C   UNL     1      -0.039  -1.778   4.749  0.00  0.00    +0.082 A 
ATOM      5  C   UNL     1      -0.058  -0.500   5.322  0.00  0.00    +0.078 A 
ATOM      6  C   UNL     1       0.209  -0.355   6.665  0.00  0.00    +0.164 A 
ATOM      7  C   UNL     1       0.501  -1.470   7.462  0.00  0.00    +0.162 A 
ATOM      8  C   UNL     1       0.526  -2.725   6.923  0.00  0.00    +0.062 A 
ATOM      9  C   UNL     1       0.256  -2.901   5.560  0.00  0.00    +0.044 A 
ATOM     10  C   UNL     1       0.269  -4.181   4.955  0.00  0.00    +0.136 A 
ATOM     11  N   UNL     1      -0.001  -4.268   3.661  0.00  0.00    -0.198 NA
ATOM     12  H   UNL     1      -0.602  -4.235   1.203  0.00  0.00    +0.156 HD
ENDROOT
BRANCH   1  16
ATOM     13  C   UNL     1      -1.079   1.376   0.062  0.00  0.00    +0.067 C 
ATOM     14  C   UNL     1      -0.957  -0.126   0.062  0.00  0.00    +0.062 A 
ATOM     15  C   UNL     1      -0.773  -0.931   1.189  0.00  0.00    +0.068 A 
ATOM     16  C   UNL     1      -0.713  -2.226   0.773  0.00  0.00    +0.121 A 
ATOM     17  N   UNL     1      -0.854  -2.227  -0.578  0.00  0.00    -0.264 N 
ATOM     18  N   UNL     1      -1.011  -0.898  -0.993  0.00  0.00    -0.178 NA
ATOM     19  H   UNL     1      -0.851  -3.008  -1.152  0.00  0.00    +0.190 HD
ENDBRANCH   1  16
BRANCH  10  20
ATOM     20  N   UNL     1       0.550  -5.311   5.697  0.00  0.00    -0.299 N 
ATOM     21  H   UNL     1       0.667  -5.244   6.658  0.00  0.00    +0.154 HD
BRANCH  20  22
ATOM     22  C   UNL     1       0.667  -6.552   5.063  0.00  0.00    +0.033 A 
ATOM     23  C   UNL     1       1.170  -6.627   3.769  0.00  0.00    +0.023 A 
ATOM     24  C   UNL     1       1.287  -7.851   3.139  0.00  0.00    +0.002 A 
ATOM     25  C   UNL     1       0.906  -9.007   3.790  0.00  0.00    +0.010 A 
ATOM     26  C   UNL     1       0.401  -8.942   5.089  0.00  0.00    +0.009 A 
ATOM     27  C   UNL     1       0.287  -7.708   5.728  0.00  0.00    +0.033 A 
BRANCH  26  28
ATOM     28  C   UNL     1      -0.009 -10.180   5.788  0.00  0.00    +0.109 A 
ATOM     29  N   UNL     1      -0.507 -10.317   6.997  0.00  0.00    -0.239 NA
ATOM     30  C   UNL     1      -0.839 -11.517   7.511  0.00  0.00    +0.079 A 
ATOM     31  C   UNL     1      -1.379 -11.803   8.788  0.00  0.00    +0.029 A 
ATOM     32  C   UNL     1      -1.661 -13.081   9.156  0.00  0.00    +0.002 A 
ATOM     33  C   UNL     1      -1.432 -14.152   8.304  0.00  0.00    +0.001 A 
ATOM     34  C   UNL     1      -0.905 -13.918   7.047  0.00  0.00    +0.017 A 
ATOM     35  C   UNL     1      -0.618 -12.630   6.665  0.00  0.00    +0.040 A 
ATOM     36  S   UNL     1       0.040 -11.867   5.202  0.00  0.00    -0.067 S 
ENDBRANCH  26  28
ENDBRANCH  20  22
ENDBRANCH  10  20
BRANCH   7  37
ATOM     37  O   UNL     1       0.763  -1.301   8.786  0.00  0.00    -0.491 OA
ATOM     38  C   UNL     1       1.053  -2.477   9.545  0.00  0.00    +0.277 C 
ENDBRANCH   7  37
BRANCH   6  39
ATOM     39  O   UNL     1       0.191   0.884   7.223  0.00  0.00    -0.491 OA
ATOM     40  C   UNL     1      -0.112   1.981   6.359  0.00  0.00    +0.277 C 
ENDBRANCH   6  39
TORSDOF 6
