REMARK  Name = CHEMBL1222791
REMARK  5 active torsions:
REMARK  status: ('A' for Active; 'I' for Inactive)
REMARK    1  A    between atoms: C_6  and  C_10
REMARK    2  A    between atoms: C_15  and  C_17
REMARK    3  A    between atoms: N_19  and  C_20
REMARK    4  A    between atoms: N_27  and  C_28
REMARK    5  A    between atoms: C_30  and  C_34
REMARK                            x       y       z     vdW  Elec       q    Type
REMARK                         _______ _______ _______ _____ _____    ______ ____
ROOT
ATOM      1  C   UNL     1      -0.010   1.368   0.043  0.00  0.00    +0.022 A 
ATOM      2  C   UNL     1       1.313   1.813   0.029  0.00  0.00    +0.033 A 
ATOM      3  C   UNL     1       2.114   0.688   0.009  0.00  0.00    +0.105 A 
ATOM      4  C   UNL     1       3.512   0.481  -0.011  0.00  0.00    +0.152 A 
ATOM      5  N   UNL     1       3.981  -0.756  -0.028  0.00  0.00    -0.213 NA
ATOM      6  C   UNL     1       3.168  -1.811  -0.027  0.00  0.00    +0.156 A 
ATOM      7  N   UNL     1       1.869  -1.690  -0.009  0.00  0.00    -0.151 NA
ATOM      8  N   UNL     1       1.283  -0.416   0.010  0.00  0.00    -0.235 N 
ATOM      9  C   UNL     1       0.006   0.009   0.030  0.00  0.00    +0.113 A 
ATOM     10  N   UNL     1       4.378   1.557  -0.013  0.00  0.00    -0.283 N 
ATOM     11  H   UNL     1       4.027   2.462  -0.001  0.00  0.00    +0.155 HD
ENDROOT
BRANCH  10  12
ATOM     12  C   UNL     1       5.754   1.343  -0.033  0.00  0.00    +0.120 A 
ATOM     13  C   UNL     1       6.382   0.135  -0.051  0.00  0.00    +0.068 A 
ATOM     14  C   UNL     1       7.760   0.368  -0.068  0.00  0.00    +0.068 A 
ATOM     15  N   UNL     1       7.961   1.661  -0.059  0.00  0.00    -0.177 NA
ATOM     16  H   UNL     1       6.567   3.261  -0.038  0.00  0.00    +0.190 HD
ATOM     17  N   UNL     1       6.716   2.302  -0.043  0.00  0.00    -0.264 N 
BRANCH  14  18
ATOM     18  C   UNL     1       8.832  -0.691  -0.090  0.00  0.00    +0.040 C 
ATOM     19  C   UNL     1       8.425  -2.117   0.286  0.00  0.00    +0.010 C 
ATOM     20  C   UNL     1       9.269  -1.282   1.251  0.00  0.00    +0.010 C 
ENDBRANCH  14  18
ENDBRANCH  10  12
BRANCH   6  21
ATOM     21  C   UNL     1       3.769  -3.192  -0.048  0.00  0.00    +0.071 C 
ATOM     22  C   UNL     1       4.028  -3.634  -1.503  0.00  0.00    +0.012 C 
ATOM     23  C   UNL     1       3.697  -5.147  -1.505  0.00  0.00    +0.001 C 
ATOM     24  C   UNL     1       2.471  -5.230  -0.562  0.00  0.00    +0.013 C 
ATOM     25  C   UNL     1       2.780  -4.207   0.551  0.00  0.00    +0.086 C 
BRANCH  25  26
ATOM     26  C   UNL     1       3.405  -4.902   1.733  0.00  0.00    +0.221 C 
ATOM     27  O   UNL     1       4.535  -4.621   2.074  0.00  0.00    -0.275 OA
ATOM     28  N   UNL     1       2.709  -5.836   2.412  0.00  0.00    -0.284 N 
ATOM     29  H   UNL     1       1.783  -6.012   2.183  0.00  0.00    +0.155 HD
BRANCH  28  30
ATOM     30  C   UNL     1       3.323  -6.551   3.448  0.00  0.00    +0.052 A 
ATOM     31  C   UNL     1       4.261  -5.935   4.272  0.00  0.00    +0.029 A 
ATOM     32  C   UNL     1       4.841  -6.682   5.283  0.00  0.00    +0.061 A 
ATOM     33  C   UNL     1       4.472  -8.009   5.440  0.00  0.00    +0.213 A 
ATOM     34  N   UNL     1       3.579  -8.562   4.641  0.00  0.00    -0.226 NA
ATOM     35  C   UNL     1       3.000  -7.882   3.670  0.00  0.00    +0.137 A 
ATOM     36  F   UNL     1       5.034  -8.745   6.424  0.00  0.00    -0.184 F 
ENDBRANCH  28  30
ENDBRANCH  25  26
ENDBRANCH   6  21
TORSDOF 5
