REMARK  Name = CHEMBL575681
REMARK  3 active torsions:
REMARK  status: ('A' for Active; 'I' for Inactive)
REMARK    1  A    between atoms: C_4  and  N_7
REMARK    2  A    between atoms: C_8  and  C_10
REMARK    3  A    between atoms: C_28  and  C_32
REMARK                            x       y       z     vdW  Elec       q    Type
REMARK                         _______ _______ _______ _____ _____    ______ ____
ROOT
ATOM      1  C   UNL     1       4.962  -2.721   0.153  0.00  0.00    +0.162 C 
ATOM      2  C   UNL     1       5.798  -2.462  -1.118  0.00  0.00    +0.033 C 
ATOM      3  C   UNL     1       6.470  -3.836  -1.378  0.00  0.00    +0.021 C 
ATOM      4  C   UNL     1       5.356  -4.816  -0.934  0.00  0.00    +0.109 C 
ATOM      5  N   UNL     1       4.729  -4.170   0.238  0.00  0.00    -0.288 N 
ATOM      6  C   UNL     1       4.036  -4.820   1.250  0.00  0.00    +0.213 A 
ATOM      7  N   UNL     1       3.517  -4.096   2.247  0.00  0.00    -0.198 NA
ATOM      8  C   UNL     1       2.848  -4.663   3.237  0.00  0.00    +0.153 A 
ATOM      9  C   UNL     1       2.675  -6.066   3.242  0.00  0.00    +0.103 A 
ATOM     10  C   UNL     1       2.046  -6.949   4.101  0.00  0.00    +0.032 A 
ATOM     11  C   UNL     1       2.217  -8.225   3.565  0.00  0.00    +0.022 A 
ATOM     12  C   UNL     1       2.932  -8.102   2.414  0.00  0.00    +0.111 A 
ATOM     13  N   UNL     1       3.214  -6.803   2.207  0.00  0.00    -0.257 N 
ATOM     14  N   UNL     1       3.906  -6.124   1.195  0.00  0.00    -0.264 N 
ATOM     15  N   UNL     1       2.323  -3.892   4.255  0.00  0.00    -0.281 N 
ATOM     16  C   UNL     1       2.498  -2.502   4.243  0.00  0.00    +0.146 A 
ATOM     17  C   UNL     1       3.178  -1.765   3.260  0.00  0.00    +0.068 A 
ATOM     18  C   UNL     1       3.126  -0.460   3.611  0.00  0.00    +0.041 A 
ATOM     19  N   UNL     1       2.441  -0.369   4.770  0.00  0.00    -0.280 N 
ATOM     20  H   UNL     1       2.248   0.448   5.255  0.00  0.00    +0.189 HD
ATOM     21  N   UNL     1       2.052  -1.661   5.146  0.00  0.00    -0.158 NA
ATOM     22  H   UNL     1       1.832  -4.312   4.979  0.00  0.00    +0.155 HD
ATOM     23  H   UNL     1       4.292  -6.619   0.455  0.00  0.00    +0.190 HD
ENDROOT
BRANCH   1  25
ATOM     24  N   UNL     1       3.622  -0.651  -0.037  0.00  0.00    -0.284 N 
ATOM     25  C   UNL     1       3.645  -1.995   0.057  0.00  0.00    +0.238 C 
ATOM     26  O   UNL     1       2.606  -2.620   0.064  0.00  0.00    -0.273 OA
ATOM     27  H   UNL     1       4.452  -0.155  -0.116  0.00  0.00    +0.155 HD
BRANCH  24  31
ATOM     28  C   UNL     1      -0.016   1.379   0.009  0.00  0.00    +0.000 A 
ATOM     29  C   UNL     1       0.128   0.205   0.726  0.00  0.00    +0.002 A 
ATOM     30  C   UNL     1       1.333  -0.470   0.712  0.00  0.00    +0.023 A 
ATOM     31  C   UNL     1       2.400   0.031  -0.022  0.00  0.00    +0.033 A 
ATOM     32  C   UNL     1       2.251   1.210  -0.741  0.00  0.00    +0.023 A 
ATOM     33  C   UNL     1       1.044   1.881  -0.723  0.00  0.00    +0.002 A 
ENDBRANCH  24  31
ENDBRANCH   1  25
BRANCH  18  34
ATOM     34  C   UNL     1       3.728   0.689   2.843  0.00  0.00    +0.037 C 
ATOM     35  C   UNL     1       4.268   1.872   3.649  0.00  0.00    +0.010 C 
ATOM     36  C   UNL     1       2.970   2.018   2.853  0.00  0.00    +0.010 C 
ENDBRANCH  18  34
TORSDOF 3
