REMARK  Name = CHEMBL249296
REMARK  4 active torsions:
REMARK  status: ('A' for Active; 'I' for Inactive)
REMARK    1  A    between atoms: C_4  and  C_7
REMARK    2  A    between atoms: C_12  and  C_16
REMARK    3  A    between atoms: N_23  and  C_25
REMARK    4  A    between atoms: C_28  and  N_31
REMARK                            x       y       z     vdW  Elec       q    Type
REMARK                         _______ _______ _______ _____ _____    ______ ____
ROOT
ATOM      1  C   UNL     1       7.900  -4.819  -0.541  0.00  0.00    +0.105 A 
ATOM      2  C   UNL     1       9.255  -4.951  -1.077  0.00  0.00    +0.086 A 
ATOM      3  C   UNL     1      10.138  -4.104  -1.767  0.00  0.00    +0.131 A 
ATOM      4  N   UNL     1      11.332  -4.579  -2.107  0.00  0.00    -0.220 NA
ATOM      5  C   UNL     1      11.685  -5.816  -1.807  0.00  0.00    +0.225 A 
ATOM      6  N   UNL     1      10.893  -6.644  -1.163  0.00  0.00    -0.216 NA
ATOM      7  C   UNL     1       9.675  -6.261  -0.779  0.00  0.00    +0.164 A 
ATOM      8  N   UNL     1       8.649  -6.865  -0.116  0.00  0.00    -0.243 N 
ATOM      9  N   UNL     1       7.587  -5.964   0.018  0.00  0.00    -0.168 NA
ATOM     10  N   UNL     1       9.774  -2.809  -2.084  0.00  0.00    -0.342 N 
ATOM     11  H   UNL     1       9.018  -2.395  -1.639  0.00  0.00    +0.144 HD
ATOM     12  H   UNL     1      10.274  -2.315  -2.752  0.00  0.00    +0.144 HD
ENDROOT
BRANCH   1  18
ATOM     13  C   UNL     1       4.970   0.048  -2.323  0.00  0.00    +0.139 A 
ATOM     14  N   UNL     1       4.739  -0.243  -1.066  0.00  0.00    -0.228 NA
ATOM     15  C   UNL     1       5.430  -1.356  -0.721  0.00  0.00    +0.089 A 
ATOM     16  C   UNL     1       5.543  -2.084   0.469  0.00  0.00    +0.030 A 
ATOM     17  C   UNL     1       6.336  -3.192   0.520  0.00  0.00    +0.012 A 
ATOM     18  C   UNL     1       7.043  -3.613  -0.612  0.00  0.00    +0.005 A 
ATOM     19  C   UNL     1       6.943  -2.902  -1.804  0.00  0.00    +0.038 A 
ATOM     20  C   UNL     1       6.139  -1.775  -1.863  0.00  0.00    +0.067 A 
ATOM     21  N   UNL     1       5.826  -0.874  -2.863  0.00  0.00    -0.338 N 
ATOM     22  H   UNL     1       6.153  -0.891  -3.776  0.00  0.00    +0.167 HD
BRANCH  13  26
ATOM     23  C   UNL     1       3.298   3.347  -4.413  0.00  0.00    +0.000 A 
ATOM     24  C   UNL     1       2.984   3.144  -3.081  0.00  0.00    +0.001 A 
ATOM     25  C   UNL     1       3.523   2.075  -2.397  0.00  0.00    +0.011 A 
ATOM     26  C   UNL     1       4.387   1.196  -3.051  0.00  0.00    +0.017 A 
ATOM     27  C   UNL     1       4.700   1.406  -4.394  0.00  0.00    +0.011 A 
ATOM     28  C   UNL     1       4.154   2.479  -5.067  0.00  0.00    +0.001 A 
ENDBRANCH  13  26
ENDBRANCH   1  18
BRANCH   8  29
ATOM     29  C   UNL     1       8.658  -8.242   0.384  0.00  0.00    +0.110 C 
ATOM     30  C   UNL     1       7.524  -9.031  -0.274  0.00  0.00    +0.028 C 
ATOM     31  C   UNL     1       7.533 -10.469   0.247  0.00  0.00    +0.021 C 
ATOM     32  C   UNL     1       7.337 -10.463   1.765  0.00  0.00    +0.057 C 
ATOM     33  C   UNL     1       8.471  -9.674   2.422  0.00  0.00    +0.021 C 
ATOM     34  C   UNL     1       8.461  -8.236   1.901  0.00  0.00    +0.028 C 
BRANCH  32  35
ATOM     35  N   UNL     1       7.346 -11.844   2.265  0.00  0.00    -0.295 NA
ATOM     36  C   UNL     1       6.323 -12.656   1.590  0.00  0.00    +0.113 C 
ATOM     37  C   UNL     1       6.407 -14.098   2.098  0.00  0.00    +0.175 C 
ATOM     38  O   UNL     1       6.254 -14.107   3.520  0.00  0.00    -0.377 OA
ATOM     39  C   UNL     1       7.235 -13.327   4.209  0.00  0.00    +0.175 C 
ATOM     40  C   UNL     1       7.159 -11.877   3.723  0.00  0.00    +0.113 C 
ENDBRANCH  32  35
ENDBRANCH   8  29
TORSDOF 4
