REMARK  Name = CHEMBL575447
REMARK  3 active torsions:
REMARK  status: ('A' for Active; 'I' for Inactive)
REMARK    1  A    between atoms: C_1  and  C_2
REMARK    2  A    between atoms: C_2  and  C_26
REMARK    3  A    between atoms: C_19  and  C_23
REMARK                            x       y       z     vdW  Elec       q    Type
REMARK                         _______ _______ _______ _____ _____    ______ ____
ROOT
ATOM      1  C   UNL     1       1.729  -2.584   1.704  0.00  0.00    +0.042 C 
ATOM      2  C   UNL     1       1.975  -1.346   0.840  0.00  0.00    +0.111 C 
ATOM      3  C   UNL     1       1.885  -1.722  -0.654  0.00  0.00    +0.037 C 
ATOM      4  C   UNL     1       1.172  -0.494  -1.279  0.00  0.00    +0.022 C 
ATOM      5  C   UNL     1       0.191  -0.095  -0.148  0.00  0.00    +0.109 C 
ATOM      6  N   UNL     1       0.935  -0.340   1.101  0.00  0.00    -0.286 N 
ATOM      7  C   UNL     1       0.693   0.276   2.321  0.00  0.00    +0.213 A 
ATOM      8  N   UNL     1      -0.360   1.093   2.436  0.00  0.00    -0.198 NA
ATOM      9  C   UNL     1      -0.638   1.706   3.574  0.00  0.00    +0.153 A 
ATOM     10  C   UNL     1       0.196   1.494   4.696  0.00  0.00    +0.103 A 
ATOM     11  C   UNL     1       0.187   1.966   5.995  0.00  0.00    +0.032 A 
ATOM     12  C   UNL     1       1.282   1.391   6.641  0.00  0.00    +0.022 A 
ATOM     13  C   UNL     1       1.925   0.596   5.745  0.00  0.00    +0.111 A 
ATOM     14  N   UNL     1       1.279   0.649   4.566  0.00  0.00    -0.257 N 
ATOM     15  N   UNL     1       1.500   0.035   3.325  0.00  0.00    -0.264 N 
ATOM     16  N   UNL     1      -1.731   2.545   3.665  0.00  0.00    -0.281 N 
ATOM     17  C   UNL     1      -2.615   2.664   2.585  0.00  0.00    +0.146 A 
ATOM     18  C   UNL     1      -2.459   2.069   1.322  0.00  0.00    +0.068 A 
ATOM     19  C   UNL     1      -3.520   2.424   0.563  0.00  0.00    +0.041 A 
ATOM     20  N   UNL     1      -4.320   3.212   1.312  0.00  0.00    -0.280 N 
ATOM     21  H   UNL     1      -5.155   3.613   1.024  0.00  0.00    +0.189 HD
ATOM     22  N   UNL     1      -3.736   3.345   2.578  0.00  0.00    -0.158 NA
ATOM     23  H   UNL     1      -1.887   3.052   4.477  0.00  0.00    +0.155 HD
ATOM     24  H   UNL     1       2.253  -0.566   3.209  0.00  0.00    +0.190 HD
ENDROOT
BRANCH   2  25
ATOM     25  C   UNL     1       3.333  -0.769   1.146  0.00  0.00    +0.242 C 
ATOM     26  O   UNL     1       4.203  -1.478   1.607  0.00  0.00    -0.273 OA
ATOM     27  N   UNL     1       3.582   0.533   0.907  0.00  0.00    -0.267 N 
ATOM     28  C   UNL     1       4.867   1.042   1.085  0.00  0.00    +0.143 A 
ATOM     29  C   UNL     1       5.103   2.407   0.946  0.00  0.00    +0.154 A 
ATOM     30  N   UNL     1       6.322   2.885   1.116  0.00  0.00    -0.258 NA
ATOM     31  C   UNL     1       7.317   2.068   1.418  0.00  0.00    +0.130 A 
ATOM     32  C   UNL     1       7.086   0.713   1.557  0.00  0.00    +0.132 A 
ATOM     33  N   UNL     1       5.867   0.228   1.393  0.00  0.00    -0.237 NA
ATOM     34  H   UNL     1       2.866   1.117   0.611  0.00  0.00    +0.156 HD
ENDBRANCH   2  25
BRANCH  19  35
ATOM     35  C   UNL     1      -3.766   2.012  -0.866  0.00  0.00    +0.037 C 
ATOM     36  C   UNL     1      -4.471   3.017  -1.779  0.00  0.00    +0.010 C 
ATOM     37  C   UNL     1      -5.216   1.773  -1.292  0.00  0.00    +0.010 C 
ENDBRANCH  19  35
TORSDOF 2
