REMARK  Name = CHEMBL256072
REMARK  8 active torsions:
REMARK  status: ('A' for Active; 'I' for Inactive)
REMARK    1  A    between atoms: C_1  and  C_2
REMARK    2  A    between atoms: C_4  and  N_30
REMARK    3  A    between atoms: C_9  and  C_12
REMARK    4  A    between atoms: C_13  and  N_20
REMARK    5  A    between atoms: N_20  and  C_21
REMARK    6  A    between atoms: C_21  and  C_22
REMARK    7  A    between atoms: C_22  and  C_23
REMARK    8  A    between atoms: N_25  and  C_28
REMARK                            x       y       z     vdW  Elec       q    Type
REMARK                         _______ _______ _______ _____ _____    ______ ____
ROOT
ATOM      1  C   UNL     1       0.120  -1.758   5.073  0.00  0.00    +0.102 A 
ATOM      2  C   UNL     1      -0.014  -0.523   5.723  0.00  0.00    +0.045 A 
ATOM      3  C   UNL     1      -0.030  -0.497   7.131  0.00  0.00    +0.041 A 
ATOM      4  C   UNL     1       0.082  -1.648   7.829  0.00  0.00    +0.088 A 
ATOM      5  N   UNL     1       0.212  -2.845   7.199  0.00  0.00    -0.328 N 
ATOM      6  H   UNL     1       0.291  -3.655   7.727  0.00  0.00    +0.168 HD
ATOM      7  C   UNL     1       0.228  -2.930   5.855  0.00  0.00    +0.261 A 
ATOM      8  O   UNL     1       0.340  -4.017   5.314  0.00  0.00    -0.267 OA
ENDROOT
BRANCH   1  17
ATOM      9  C   UNL     1       0.186   0.941   0.232  0.00  0.00    +0.046 C 
ATOM     10  C   UNL     1       0.188  -0.565   0.276  0.00  0.00    -0.021 A 
ATOM     11  C   UNL     1       0.213  -1.282  -0.887  0.00  0.00    +0.028 A 
ATOM     12  C   UNL     1       0.215  -2.675  -0.860  0.00  0.00    +0.032 A 
ATOM     13  C   UNL     1       0.193  -3.352   0.349  0.00  0.00    +0.051 A 
ATOM     14  C   UNL     1       0.168  -2.635   1.536  0.00  0.00    +0.068 A 
ATOM     15  C   UNL     1       0.171  -1.229   1.506  0.00  0.00    +0.092 A 
ATOM     16  N   UNL     1       0.151  -0.800   2.794  0.00  0.00    -0.227 NA
ATOM     17  C   UNL     1       0.141  -1.833   3.603  0.00  0.00    +0.146 A 
ATOM     18  N   UNL     1       0.142  -2.994   2.872  0.00  0.00    -0.338 N 
ATOM     19  H   UNL     1       0.136  -3.897   3.225  0.00  0.00    +0.167 HD
BRANCH  12  20
ATOM     20  N   UNL     1       0.240  -3.394  -2.060  0.00  0.00    -0.325 N 
ATOM     21  C   UNL     1       0.365  -4.860  -2.062  0.00  0.00    +0.133 C 
ATOM     22  C   UNL     1      -0.741  -5.439  -2.952  0.00  0.00    +0.178 C 
ATOM     23  O   UNL     1      -0.702  -4.797  -4.228  0.00  0.00    -0.377 OA
ATOM     24  C   UNL     1      -0.954  -3.390  -4.184  0.00  0.00    +0.178 C 
ATOM     25  C   UNL     1       0.135  -2.707  -3.357  0.00  0.00    +0.133 C 
ENDBRANCH  12  20
ENDBRANCH   1  17
BRANCH   2  26
ATOM     26  N   UNL     1      -0.127   0.644   4.998  0.00  0.00    -0.343 N 
ATOM     27  H   UNL     1      -0.195   0.609   4.031  0.00  0.00    +0.146 HD
BRANCH  26  28
ATOM     28  C   UNL     1      -0.143   1.936   5.687  0.00  0.00    +0.108 C 
BRANCH  28  29
ATOM     29  C   UNL     1      -0.276   3.061   4.659  0.00  0.00    +0.075 C 
BRANCH  29  30
ATOM     30  C   UNL     1      -0.293   4.391   5.368  0.00  0.00    +0.054 A 
ATOM     31  C   UNL     1       0.788   5.104   5.741  0.00  0.00    +0.129 A 
ATOM     32  N   UNL     1       0.323   6.239   6.348  0.00  0.00    -0.326 N 
ATOM     33  C   UNL     1      -1.027   6.180   6.326  0.00  0.00    +0.174 A 
ATOM     34  N   UNL     1      -1.388   5.075   5.734  0.00  0.00    -0.348 N 
ATOM     35  C   UNL     1       1.137   7.316   6.917  0.00  0.00    +0.151 C 
ATOM     36 CL   UNL     1       2.450   4.666   5.498  0.00  0.00    -0.062 Cl
ATOM     37  H   UNL     1      -2.303   4.792   5.583  0.00  0.00    +0.166 HD
ENDBRANCH  29  30
ENDBRANCH  28  29
ENDBRANCH  26  28
ENDBRANCH   2  26
TORSDOF 6
