REMARK  Name = CHEMBL1094835
REMARK  17 active torsions:
REMARK  status: ('A' for Active; 'I' for Inactive)
REMARK    1  A    between atoms: C_1  and  O_2
REMARK    2  A    between atoms: O_2  and  C_3
REMARK    3  A    between atoms: C_6  and  C_9
REMARK    4  A    between atoms: C_9  and  C_10
REMARK    5  A    between atoms: C_10  and  O_11
REMARK    6  A    between atoms: O_11  and  C_12
REMARK    7  A    between atoms: C_18  and  C_34
REMARK    8  A    between atoms: N_20  and  C_21
REMARK    9  A    between atoms: C_21  and  C_22
REMARK   10  A    between atoms: C_22  and  C_23
REMARK   11  A    between atoms: C_23  and  C_24
REMARK   12  A    between atoms: C_24  and  C_25
REMARK   13  A    between atoms: C_25  and  C_26
REMARK   14  A    between atoms: C_29  and  S_32
REMARK   15  A    between atoms: S_32  and  C_33
REMARK   16  A    between atoms: C_34  and  C_35
REMARK   17  A    between atoms: C_35  and  N_36
REMARK                            x       y       z     vdW  Elec       q    Type
REMARK                         _______ _______ _______ _____ _____    ______ ____
ROOT
ATOM      1  C   UNL     1       5.949  -3.625  -5.061  0.00  0.00    +0.121 A 
ATOM      2  C   UNL     1       6.623  -3.287  -3.890  0.00  0.00    +0.048 A 
ATOM      3  C   UNL     1       7.968  -3.551  -3.755  0.00  0.00    +0.030 A 
ATOM      4  C   UNL     1       8.664  -4.162  -4.792  0.00  0.00    +0.050 A 
ATOM      5  C   UNL     1       7.986  -4.505  -5.975  0.00  0.00    +0.006 A 
ATOM      6  C   UNL     1       6.621  -4.236  -6.100  0.00  0.00    +0.056 A 
ATOM      7  C   UNL     1       8.985  -5.120  -6.852  0.00  0.00    -0.024 A 
ATOM      8  C   UNL     1      10.150  -5.114  -6.185  0.00  0.00    +0.090 A 
ATOM      9  N   UNL     1       9.979  -4.546  -4.952  0.00  0.00    -0.346 N 
ENDROOT
BRANCH   1  10
ATOM     10  O   UNL     1       4.620  -3.357  -5.178  0.00  0.00    -0.492 OA
BRANCH  10  11
ATOM     11  C   UNL     1       3.986  -2.723  -4.066  0.00  0.00    +0.233 C 
BRANCH  11  12
ATOM     12  C   UNL     1       2.505  -2.503  -4.381  0.00  0.00    +0.076 C 
BRANCH  12  16
ATOM     13  C   UNL     1       0.606  -0.607  -1.056  0.00  0.00    +0.120 A 
ATOM     14  C   UNL     1       1.173   0.161  -2.062  0.00  0.00    +0.046 A 
ATOM     15  C   UNL     1       1.786  -0.455  -3.136  0.00  0.00    +0.007 A 
ATOM     16  C   UNL     1       1.835  -1.835  -3.209  0.00  0.00    -0.044 A 
ATOM     17  C   UNL     1       1.270  -2.602  -2.207  0.00  0.00    +0.007 A 
ATOM     18  C   UNL     1       0.661  -1.992  -1.128  0.00  0.00    +0.046 A 
BRANCH  13  20
ATOM     19  C   UNL     1      -0.017   1.425   0.010  0.00  0.00    +0.277 C 
ATOM     20  O   UNL     1       0.002  -0.004   0.002  0.00  0.00    -0.495 OA
ENDBRANCH  13  20
ENDBRANCH  12  16
ENDBRANCH  11  12
ENDBRANCH  10  11
ENDBRANCH   1  10
BRANCH   9  21
ATOM     21  C   UNL     1      11.035  -4.372  -3.952  0.00  0.00    +0.122 C 
BRANCH  21  22
ATOM     22  C   UNL     1      11.010  -5.548  -2.973  0.00  0.00    +0.022 C 
BRANCH  22  23
ATOM     23  C   UNL     1      12.113  -5.365  -1.928  0.00  0.00    +0.002 C 
BRANCH  23  24
ATOM     24  C   UNL     1      12.088  -6.541  -0.950  0.00  0.00    +0.005 C 
BRANCH  24  25
ATOM     25  C   UNL     1      13.191  -6.358   0.095  0.00  0.00    +0.035 C 
BRANCH  25  26
ATOM     26  C   UNL     1      13.166  -7.516   1.059  0.00  0.00    -0.047 A 
ATOM     27  C   UNL     1      12.386  -7.449   2.199  0.00  0.00    +0.005 A 
ATOM     28  C   UNL     1      12.362  -8.508   3.085  0.00  0.00    +0.015 A 
ATOM     29  C   UNL     1      13.121  -9.643   2.829  0.00  0.00    +0.008 A 
ATOM     30  C   UNL     1      13.903  -9.708   1.682  0.00  0.00    +0.015 A 
ATOM     31  C   UNL     1      13.919  -8.647   0.798  0.00  0.00    +0.005 A 
BRANCH  29  32
ATOM     32  S   UNL     1      13.094 -10.997   3.957  0.00  0.00    -0.129 S 
ATOM     33  C   UNL     1      14.215 -12.212   3.211  0.00  0.00    +0.090 C 
ENDBRANCH  29  32
ENDBRANCH  25  26
ENDBRANCH  24  25
ENDBRANCH  23  24
ENDBRANCH  22  23
ENDBRANCH  21  22
ENDBRANCH   9  21
BRANCH   7  34
ATOM     34  C   UNL     1       8.750  -5.657  -8.240  0.00  0.00    +0.018 C 
BRANCH  34  35
ATOM     35  C   UNL     1       8.859  -4.517  -9.254  0.00  0.00    -0.082 C 
BRANCH  35  36
ATOM     36  N   UNL     1       8.629  -5.041 -10.607  0.00  0.00    +0.378 N 
ATOM     37  H   UNL     1       8.701  -4.288 -11.276  0.00  0.00    -0.090 HD
ATOM     38  H   UNL     1       9.322  -5.744 -10.817  0.00  0.00    -0.090 HD
ATOM     39  H   UNL     1       7.708  -5.449 -10.658  0.00  0.00    -0.090 HD
ENDBRANCH  35  36
ENDBRANCH  34  35
ENDBRANCH   7  34
TORSDOF 15
