REMARK  Name = CHEMBL248877
REMARK  5 active torsions:
REMARK  status: ('A' for Active; 'I' for Inactive)
REMARK    1  A    between atoms: C_3  and  C_6
REMARK    2  A    between atoms: C_6  and  C_7
REMARK    3  A    between atoms: C_12  and  C_17
REMARK    4  A    between atoms: N_24  and  C_26
REMARK    5  A    between atoms: C_29  and  N_32
REMARK                            x       y       z     vdW  Elec       q    Type
REMARK                         _______ _______ _______ _____ _____    ______ ____
ROOT
ATOM      1  C   UNL     1       7.545   2.043   6.300  0.00  0.00    +0.105 A 
ATOM      2  C   UNL     1       7.803   2.913   7.447  0.00  0.00    +0.086 A 
ATOM      3  C   UNL     1       7.370   4.190   7.841  0.00  0.00    +0.131 A 
ATOM      4  N   UNL     1       7.828   4.685   8.987  0.00  0.00    -0.220 NA
ATOM      5  C   UNL     1       8.669   3.998   9.739  0.00  0.00    +0.225 A 
ATOM      6  N   UNL     1       9.101   2.801   9.410  0.00  0.00    -0.216 NA
ATOM      7  C   UNL     1       8.699   2.219   8.280  0.00  0.00    +0.164 A 
ATOM      8  N   UNL     1       8.957   1.024   7.677  0.00  0.00    -0.243 N 
ATOM      9  N   UNL     1       8.238   0.943   6.480  0.00  0.00    -0.168 NA
ATOM     10  N   UNL     1       6.491   4.913   7.059  0.00  0.00    -0.342 N 
ATOM     11  H   UNL     1       5.984   4.469   6.362  0.00  0.00    +0.144 HD
ATOM     12  H   UNL     1       6.381   5.866   7.206  0.00  0.00    +0.144 HD
ENDROOT
BRANCH   1  18
ATOM     13  C   UNL     1       4.722   4.652   1.760  0.00  0.00    +0.113 A 
ATOM     14  N   UNL     1       5.685   4.975   2.665  0.00  0.00    -0.342 N 
ATOM     15  H   UNL     1       6.148   5.825   2.733  0.00  0.00    +0.167 HD
ATOM     16  C   UNL     1       5.880   3.869   3.470  0.00  0.00    +0.067 A 
ATOM     17  C   UNL     1       6.711   3.595   4.545  0.00  0.00    +0.038 A 
ATOM     18  C   UNL     1       6.659   2.344   5.150  0.00  0.00    +0.005 A 
ATOM     19  C   UNL     1       5.774   1.369   4.677  0.00  0.00    +0.012 A 
ATOM     20  C   UNL     1       4.954   1.633   3.620  0.00  0.00    +0.030 A 
ATOM     21  C   UNL     1       4.992   2.886   2.999  0.00  0.00    +0.089 A 
ATOM     22  N   UNL     1       4.313   3.433   1.959  0.00  0.00    -0.232 NA
BRANCH  13  23
ATOM     23  C   UNL     1       4.201   5.573   0.688  0.00  0.00    +0.116 C 
BRANCH  23  26
ATOM     24  C   UNL     1       3.782   3.604  -2.546  0.00  0.00    +0.008 A 
ATOM     25  C   UNL     1       3.444   4.113  -1.306  0.00  0.00    +0.011 A 
ATOM     26  C   UNL     1       4.332   4.905  -0.656  0.00  0.00    -0.003 A 
ATOM     27  S   UNL     1       5.696   4.952  -1.807  0.00  0.00    -0.101 S 
ATOM     28  C   UNL     1       4.991   3.912  -3.075  0.00  0.00    +0.045 A 
ENDBRANCH  23  26
ENDBRANCH  13  23
ENDBRANCH   1  18
BRANCH   8  29
ATOM     29  C   UNL     1       9.844  -0.016   8.204  0.00  0.00    +0.109 C 
ATOM     30  C   UNL     1      10.974  -0.276   7.205  0.00  0.00    +0.025 C 
ATOM     31  C   UNL     1      11.900  -1.362   7.755  0.00  0.00    -0.013 C 
ATOM     32  C   UNL     1      11.104  -2.650   7.971  0.00  0.00    -0.068 C 
ATOM     33  C   UNL     1       9.974  -2.390   8.970  0.00  0.00    -0.013 C 
ATOM     34  C   UNL     1       9.048  -1.304   8.419  0.00  0.00    +0.025 C 
BRANCH  32  35
ATOM     35  N   UNL     1      11.994  -3.693   8.499  0.00  0.00    +0.385 N 
ATOM     36  C   UNL     1      13.079  -3.943   7.540  0.00  0.00    -0.050 C 
ATOM     37  C   UNL     1      14.004  -5.030   8.093  0.00  0.00    +0.141 C 
ATOM     38  O   UNL     1      13.243  -6.214   8.346  0.00  0.00    -0.383 OA
ATOM     39  C   UNL     1      12.159  -6.015   9.257  0.00  0.00    +0.141 C 
ATOM     40  C   UNL     1      11.229  -4.931   8.707  0.00  0.00    -0.050 C 
ATOM     41  H   UNL     1      12.385  -3.388   9.378  0.00  0.00    -0.081 HD
ENDBRANCH  32  35
ENDBRANCH   8  29
TORSDOF 5
