REMARK  Name = CHEMBL231620
REMARK  9 active torsions:
REMARK  status: ('A' for Active; 'I' for Inactive)
REMARK    1  A    between atoms: C_1  and  C_2
REMARK    2  A    between atoms: C_4  and  C_31
REMARK    3  A    between atoms: C_9  and  C_12
REMARK    4  A    between atoms: C_13  and  N_20
REMARK    5  A    between atoms: N_20  and  C_21
REMARK    6  A    between atoms: C_21  and  C_22
REMARK    7  A    between atoms: C_22  and  C_23
REMARK    8  A    between atoms: C_22  and  O_30
REMARK    9  A    between atoms: C_34  and  C_37
REMARK                            x       y       z     vdW  Elec       q    Type
REMARK                         _______ _______ _______ _____ _____    ______ ____
ROOT
ATOM      1  C   UNL     1       0.074  -1.353   4.758  0.00  0.00    +0.102 A 
ATOM      2  C   UNL     1       0.152  -0.134   5.448  0.00  0.00    +0.045 A 
ATOM      3  C   UNL     1       0.151  -0.150   6.855  0.00  0.00    +0.041 A 
ATOM      4  C   UNL     1       0.075  -1.326   7.516  0.00  0.00    +0.088 A 
ATOM      5  N   UNL     1      -0.000  -2.507   6.848  0.00  0.00    -0.328 N 
ATOM      6  H   UNL     1      -0.053  -3.335   7.351  0.00  0.00    +0.168 HD
ATOM      7  C   UNL     1      -0.009  -2.551   5.503  0.00  0.00    +0.261 A 
ATOM      8  O   UNL     1      -0.083  -3.624   4.928  0.00  0.00    -0.267 OA
ENDROOT
BRANCH   1  17
ATOM      9  C   UNL     1      -0.050   1.498   0.009  0.00  0.00    +0.046 C 
ATOM     10  C   UNL     1       0.010  -0.008   0.001  0.00  0.00    -0.022 A 
ATOM     11  C   UNL     1       0.040  -0.682  -1.183  0.00  0.00    +0.017 A 
ATOM     12  C   UNL     1       0.095  -2.081  -1.204  0.00  0.00    +0.020 A 
ATOM     13  C   UNL     1       0.121  -2.798  -0.009  0.00  0.00    +0.039 A 
ATOM     14  C   UNL     1       0.091  -2.119   1.196  0.00  0.00    +0.067 A 
ATOM     15  C   UNL     1       0.042  -0.713   1.211  0.00  0.00    +0.092 A 
ATOM     16  N   UNL     1       0.029  -0.325   2.509  0.00  0.00    -0.227 NA
ATOM     17  C   UNL     1       0.072  -1.383   3.287  0.00  0.00    +0.146 A 
ATOM     18  N   UNL     1       0.104  -2.520   2.522  0.00  0.00    -0.338 N 
ATOM     19  H   UNL     1       0.139  -3.433   2.847  0.00  0.00    +0.167 HD
BRANCH  12  20
ATOM     20  C   UNL     1       0.126  -2.799  -2.495  0.00  0.00    +0.139 A 
ATOM     21  N   UNL     1       0.107  -2.242  -3.687  0.00  0.00    -0.233 NA
ATOM     22  H   UNL     1       0.215  -4.817  -1.949  0.00  0.00    +0.167 HD
ATOM     23  C   UNL     1       0.147  -3.199  -4.622  0.00  0.00    +0.056 A 
ATOM     24  C   UNL     1       0.193  -4.396  -4.004  0.00  0.00    +0.107 A 
ATOM     25  N   UNL     1       0.186  -4.153  -2.656  0.00  0.00    -0.344 N 
ATOM     26  C   UNL     1       0.142  -2.975  -6.112  0.00  0.00    +0.067 C 
ENDBRANCH  12  20
ENDBRANCH   1  17
BRANCH   2  27
ATOM     27  N   UNL     1       0.229   1.058   4.760  0.00  0.00    -0.340 N 
ATOM     28  H   UNL     1       0.149   1.066   3.793  0.00  0.00    +0.146 HD
BRANCH  27  29
ATOM     29  C   UNL     1       0.431   2.313   5.488  0.00  0.00    +0.137 C 
BRANCH  29  30
ATOM     30  C   UNL     1       0.480   3.477   4.496  0.00  0.00    +0.161 C 
BRANCH  30  31
ATOM     31  C   UNL     1       0.688   4.768   5.246  0.00  0.00    -0.016 A 
ATOM     32  C   UNL     1       1.966   5.177   5.577  0.00  0.00    +0.006 A 
ATOM     33  C   UNL     1       2.158   6.360   6.264  0.00  0.00    +0.002 A 
ATOM     34  C   UNL     1       1.071   7.136   6.622  0.00  0.00    +0.020 A 
ATOM     35  C   UNL     1      -0.209   6.727   6.292  0.00  0.00    +0.041 A 
ATOM     36  C   UNL     1      -0.400   5.545   5.598  0.00  0.00    +0.026 A 
ATOM     37 CL   UNL     1      -1.575   7.700   6.741  0.00  0.00    -0.084 Cl
ENDBRANCH  30  31
BRANCH  30  38
ATOM     38  O   UNL     1       1.559   3.278   3.582  0.00  0.00    -0.386 OA
ATOM     39  H   UNL     1       2.428   3.227   4.003  0.00  0.00    +0.210 HD
ENDBRANCH  30  38
ENDBRANCH  29  30
ENDBRANCH  27  29
ENDBRANCH   2  27
TORSDOF 7
