REMARK  Name = CHEMBL429832
REMARK  6 active torsions:
REMARK  status: ('A' for Active; 'I' for Inactive)
REMARK    1  A    between atoms: C_4  and  C_7
REMARK    2  A    between atoms: C_7  and  C_8
REMARK    3  A    between atoms: C_8  and  C_9
REMARK    4  A    between atoms: C_14  and  C_18
REMARK    5  A    between atoms: N_25  and  C_27
REMARK    6  A    between atoms: C_30  and  N_33
REMARK                            x       y       z     vdW  Elec       q    Type
REMARK                         _______ _______ _______ _____ _____    ______ ____
ROOT
ATOM      1  C   UNL     1      10.967  -3.570   2.573  0.00  0.00    +0.105 A 
ATOM      2  C   UNL     1      11.701  -4.830   2.675  0.00  0.00    +0.086 A 
ATOM      3  C   UNL     1      11.363  -6.189   2.563  0.00  0.00    +0.131 A 
ATOM      4  N   UNL     1      12.324  -7.094   2.722  0.00  0.00    -0.220 NA
ATOM      5  C   UNL     1      13.568  -6.730   2.979  0.00  0.00    +0.225 A 
ATOM      6  N   UNL     1      13.931  -5.471   3.092  0.00  0.00    -0.216 NA
ATOM      7  C   UNL     1      13.039  -4.491   2.950  0.00  0.00    +0.164 A 
ATOM      8  N   UNL     1      13.099  -3.130   3.007  0.00  0.00    -0.243 N 
ATOM      9  N   UNL     1      11.827  -2.598   2.768  0.00  0.00    -0.168 NA
ATOM     10  N   UNL     1      10.064  -6.576   2.295  0.00  0.00    -0.342 N 
ATOM     11  H   UNL     1       9.427  -5.930   1.952  0.00  0.00    +0.144 HD
ATOM     12  H   UNL     1       9.789  -7.493   2.451  0.00  0.00    +0.144 HD
ENDROOT
BRANCH   1  18
ATOM     13  C   UNL     1       5.045  -4.122   2.513  0.00  0.00    +0.108 A 
ATOM     14  N   UNL     1       5.461  -3.197   1.698  0.00  0.00    -0.232 NA
ATOM     15  C   UNL     1       6.814  -3.114   1.753  0.00  0.00    +0.089 A 
ATOM     16  C   UNL     1       7.756  -2.311   1.101  0.00  0.00    +0.030 A 
ATOM     17  C   UNL     1       9.084  -2.462   1.368  0.00  0.00    +0.012 A 
ATOM     18  C   UNL     1       9.520  -3.417   2.293  0.00  0.00    +0.005 A 
ATOM     19  C   UNL     1       8.597  -4.225   2.950  0.00  0.00    +0.038 A 
ATOM     20  C   UNL     1       7.245  -4.076   2.684  0.00  0.00    +0.067 A 
ATOM     21  N   UNL     1       6.102  -4.694   3.151  0.00  0.00    -0.342 N 
ATOM     22  H   UNL     1       6.060  -5.404   3.809  0.00  0.00    +0.167 HD
BRANCH  13  23
ATOM     23  C   UNL     1       3.601  -4.501   2.724  0.00  0.00    +0.079 C 
BRANCH  23  24
ATOM     24  C   UNL     1       2.797  -3.256   3.103  0.00  0.00    +0.043 C 
BRANCH  24  28
ATOM     25  C   UNL     1      -1.294  -4.327   3.702  0.00  0.00    +0.000 A 
ATOM     26  C   UNL     1      -0.408  -4.362   4.762  0.00  0.00    +0.000 A 
ATOM     27  C   UNL     1       0.916  -4.016   4.569  0.00  0.00    +0.003 A 
ATOM     28  C   UNL     1       1.354  -3.635   3.314  0.00  0.00    -0.047 A 
ATOM     29  C   UNL     1       0.468  -3.600   2.253  0.00  0.00    +0.003 A 
ATOM     30  C   UNL     1      -0.856  -3.946   2.448  0.00  0.00    +0.000 A 
ENDBRANCH  24  28
ENDBRANCH  23  24
ENDBRANCH  13  23
ENDBRANCH   1  18
BRANCH   8  31
ATOM     31  C   UNL     1      14.308  -2.347   3.271  0.00  0.00    +0.110 C 
ATOM     32  C   UNL     1      14.106  -1.506   4.533  0.00  0.00    +0.028 C 
ATOM     33  C   UNL     1      15.368  -0.687   4.808  0.00  0.00    +0.021 C 
ATOM     34  C   UNL     1      15.648   0.235   3.620  0.00  0.00    +0.057 C 
ATOM     35  C   UNL     1      15.851  -0.606   2.358  0.00  0.00    +0.021 C 
ATOM     36  C   UNL     1      14.588  -1.424   2.082  0.00  0.00    +0.028 C 
BRANCH  34  37
ATOM     37  N   UNL     1      16.860   1.021   3.885  0.00  0.00    -0.295 NA
ATOM     38  C   UNL     1      16.735   1.778   5.139  0.00  0.00    +0.113 C 
ATOM     39  C   UNL     1      18.039   2.533   5.406  0.00  0.00    +0.175 C 
ATOM     40  O   UNL     1      18.331   3.379   4.291  0.00  0.00    -0.377 OA
ATOM     41  C   UNL     1      18.461   2.675   3.052  0.00  0.00    +0.175 C 
ATOM     42  C   UNL     1      17.161   1.921   2.762  0.00  0.00    +0.113 C 
ENDBRANCH  34  37
ENDBRANCH   8  31
TORSDOF 6
