REMARK  Name = CHEMBL394155
REMARK  7 active torsions:
REMARK  status: ('A' for Active; 'I' for Inactive)
REMARK    1  A    between atoms: C_4  and  C_7
REMARK    2  A    between atoms: C_7  and  O_8
REMARK    3  A    between atoms: O_8  and  C_9
REMARK    4  A    between atoms: C_13  and  C_15
REMARK    5  A    between atoms: C_22  and  C_24
REMARK    6  A    between atoms: C_27  and  C_30
REMARK    7  A    between atoms: C_30  and  N_31
REMARK                            x       y       z     vdW  Elec       q    Type
REMARK                         _______ _______ _______ _____ _____    ______ ____
ROOT
ATOM      1  C   UNL     1       6.952  -3.184   4.433  0.00  0.00    +0.100 A 
ATOM      2  C   UNL     1       7.870  -4.175   4.755  0.00  0.00    +0.113 A 
ATOM      3  C   UNL     1       8.486  -5.225   4.042  0.00  0.00    +0.142 A 
ATOM      4  N   UNL     1       9.341  -6.016   4.662  0.00  0.00    -0.237 NA
ATOM      5  C   UNL     1       9.638  -5.840   5.957  0.00  0.00    +0.131 A 
ATOM      6  C   UNL     1       9.078  -4.854   6.681  0.00  0.00    +0.113 A 
ATOM      7  N   UNL     1       8.178  -3.997   6.090  0.00  0.00    -0.298 N 
ATOM      8  C   UNL     1       7.465  -2.942   6.526  0.00  0.00    +0.118 A 
ATOM      9  N   UNL     1       6.746  -2.460   5.545  0.00  0.00    -0.231 NA
ATOM     10  N   UNL     1       8.194  -5.425   2.703  0.00  0.00    -0.341 N 
ATOM     11  H   UNL     1       7.814  -4.705   2.177  0.00  0.00    +0.144 HD
ATOM     12  H   UNL     1       8.370  -6.286   2.292  0.00  0.00    +0.144 HD
ENDROOT
BRANCH   1  17
ATOM     13  C   UNL     1       5.232  -3.830   1.151  0.00  0.00    +0.122 A 
ATOM     14  C   UNL     1       5.147  -2.543   0.636  0.00  0.00    +0.046 A 
ATOM     15  C   UNL     1       5.646  -1.472   1.352  0.00  0.00    +0.004 A 
ATOM     16  C   UNL     1       6.233  -1.674   2.585  0.00  0.00    +0.010 A 
ATOM     17  C   UNL     1       6.323  -2.963   3.111  0.00  0.00    +0.006 A 
ATOM     18  C   UNL     1       5.814  -4.043   2.390  0.00  0.00    +0.055 A 
BRANCH  13  19
ATOM     19  O   UNL     1       4.740  -4.880   0.443  0.00  0.00    -0.487 OA
BRANCH  19  20
ATOM     20  C   UNL     1       4.154  -4.588  -0.827  0.00  0.00    +0.264 C 
BRANCH  20  24
ATOM     21  C   UNL     1       2.773  -8.207  -2.628  0.00  0.00    +0.000 A 
ATOM     22  C   UNL     1       1.931  -7.477  -1.810  0.00  0.00    +0.000 A 
ATOM     23  C   UNL     1       2.378  -6.305  -1.228  0.00  0.00    +0.007 A 
ATOM     24  C   UNL     1       3.667  -5.865  -1.462  0.00  0.00    -0.010 A 
ATOM     25  C   UNL     1       4.510  -6.596  -2.279  0.00  0.00    +0.007 A 
ATOM     26  C   UNL     1       4.062  -7.766  -2.863  0.00  0.00    +0.000 A 
ENDBRANCH  20  24
ENDBRANCH  19  20
ENDBRANCH  13  19
ENDBRANCH   1  17
BRANCH   8  27
ATOM     27  C   UNL     1       7.495  -2.396   7.930  0.00  0.00    +0.056 C 
ATOM     28  C   UNL     1       6.092  -2.468   8.535  0.00  0.00    +0.011 C 
ATOM     29  C   UNL     1       6.122  -1.913   9.961  0.00  0.00    +0.002 C 
ATOM     30  C   UNL     1       6.590  -0.457   9.931  0.00  0.00    -0.028 C 
ATOM     31  C   UNL     1       7.994  -0.385   9.326  0.00  0.00    +0.002 C 
ATOM     32  C   UNL     1       7.963  -0.940   7.901  0.00  0.00    +0.011 C 
BRANCH  30  33
ATOM     33  C   UNL     1       6.620   0.098  11.357  0.00  0.00    -0.075 C 
BRANCH  33  34
ATOM     34  N   UNL     1       6.954   1.528  11.318  0.00  0.00    +0.380 N 
ATOM     35  C   UNL     1       5.839   2.299  10.711  0.00  0.00    -0.079 C 
ATOM     36  C   UNL     1       6.069   3.736  11.242  0.00  0.00    -0.020 C 
ATOM     37  C   UNL     1       6.562   3.494  12.688  0.00  0.00    -0.020 C 
ATOM     38  C   UNL     1       7.106   2.054  12.693  0.00  0.00    -0.079 C 
ATOM     39  H   UNL     1       7.804   1.674  10.795  0.00  0.00    -0.082 HD
ENDBRANCH  33  34
ENDBRANCH  30  33
ENDBRANCH   8  27
TORSDOF 7
