REMARK  Name = CHEMBL230043
REMARK  8 active torsions:
REMARK  status: ('A' for Active; 'I' for Inactive)
REMARK    1  A    between atoms: C_1  and  C_2
REMARK    2  A    between atoms: C_4  and  C_31
REMARK    3  A    between atoms: C_9  and  C_12
REMARK    4  A    between atoms: C_13  and  N_20
REMARK    5  A    between atoms: N_20  and  C_21
REMARK    6  A    between atoms: C_21  and  C_22
REMARK    7  A    between atoms: C_22  and  C_23
REMARK    8  A    between atoms: C_22  and  O_30
REMARK                            x       y       z     vdW  Elec       q    Type
REMARK                         _______ _______ _______ _____ _____    ______ ____
ROOT
ATOM      1  C   UNL     1       0.074  -1.348   4.755  0.00  0.00    +0.102 A 
ATOM      2  C   UNL     1       0.154  -0.127   5.441  0.00  0.00    +0.045 A 
ATOM      3  C   UNL     1       0.154  -0.140   6.849  0.00  0.00    +0.041 A 
ATOM      4  C   UNL     1       0.079  -1.314   7.513  0.00  0.00    +0.088 A 
ATOM      5  N   UNL     1       0.002  -2.497   6.849  0.00  0.00    -0.328 N 
ATOM      6  H   UNL     1      -0.051  -3.323   7.354  0.00  0.00    +0.168 HD
ATOM      7  C   UNL     1      -0.008  -2.544   5.504  0.00  0.00    +0.261 A 
ATOM      8  O   UNL     1      -0.083  -3.619   4.932  0.00  0.00    -0.267 OA
ENDROOT
BRANCH   1  17
ATOM      9  C   UNL     1      -0.048   1.498   0.009  0.00  0.00    +0.046 C 
ATOM     10  C   UNL     1       0.008  -0.008   0.001  0.00  0.00    -0.022 A 
ATOM     11  C   UNL     1       0.035  -0.681  -1.183  0.00  0.00    +0.016 A 
ATOM     12  C   UNL     1       0.087  -2.081  -1.203  0.00  0.00    +0.015 A 
ATOM     13  C   UNL     1       0.112  -2.799  -0.007  0.00  0.00    +0.039 A 
ATOM     14  C   UNL     1       0.085  -2.120   1.197  0.00  0.00    +0.067 A 
ATOM     15  C   UNL     1       0.039  -0.713   1.212  0.00  0.00    +0.092 A 
ATOM     16  N   UNL     1       0.029  -0.326   2.503  0.00  0.00    -0.227 NA
ATOM     17  C   UNL     1       0.071  -1.383   3.285  0.00  0.00    +0.146 A 
ATOM     18  N   UNL     1       0.097  -2.521   2.523  0.00  0.00    -0.338 N 
ATOM     19  H   UNL     1       0.130  -3.433   2.849  0.00  0.00    +0.167 HD
BRANCH  12  20
ATOM     20  C   UNL     1       0.116  -2.798  -2.494  0.00  0.00    +0.100 C 
ATOM     21  N   UNL     1      -0.482  -2.243  -3.538  0.00  0.00    -0.373 N 
ATOM     22  C   UNL     1      -0.491  -2.893  -4.850  0.00  0.00    +0.115 C 
ATOM     23  C   UNL     1      -0.419  -4.412  -4.656  0.00  0.00    +0.040 C 
ATOM     24  C   UNL     1       0.811  -4.733  -3.799  0.00  0.00    +0.104 C 
ATOM     25  N   UNL     1       0.743  -3.965  -2.555  0.00  0.00    -0.330 N 
ATOM     26  H   UNL     1       1.163  -4.319  -1.755  0.00  0.00    +0.147 HD
ATOM     27  H   UNL     1      -0.923  -1.386  -3.432  0.00  0.00    +0.161 HD
ENDBRANCH  12  20
ENDBRANCH   1  17
BRANCH   2  28
ATOM     28  N   UNL     1       0.231   1.063   4.750  0.00  0.00    -0.340 N 
ATOM     29  H   UNL     1       0.151   1.068   3.784  0.00  0.00    +0.146 HD
BRANCH  28  30
ATOM     30  C   UNL     1       0.433   2.320   5.476  0.00  0.00    +0.137 C 
BRANCH  30  31
ATOM     31  C   UNL     1       0.482   3.481   4.480  0.00  0.00    +0.161 C 
BRANCH  31  32
ATOM     32  C   UNL     1       0.812   4.756   5.212  0.00  0.00    -0.016 A 
ATOM     33  C   UNL     1      -0.176   5.430   5.906  0.00  0.00    +0.006 A 
ATOM     34  C   UNL     1       0.126   6.600   6.577  0.00  0.00    +0.002 A 
ATOM     35  C   UNL     1       1.416   7.097   6.555  0.00  0.00    +0.020 A 
ATOM     36  C   UNL     1       2.405   6.423   5.861  0.00  0.00    +0.041 A 
ATOM     37  C   UNL     1       2.103   5.248   5.194  0.00  0.00    +0.026 A 
ATOM     38 CL   UNL     1       4.024   7.046   5.833  0.00  0.00    -0.084 Cl
ENDBRANCH  31  32
BRANCH  31  39
ATOM     39  O   UNL     1      -0.789   3.614   3.841  0.00  0.00    -0.386 OA
ATOM     40  H   UNL     1      -1.519   3.790   4.450  0.00  0.00    +0.210 HD
ENDBRANCH  31  39
ENDBRANCH  30  31
ENDBRANCH  28  30
ENDBRANCH   2  28
TORSDOF 7
