REMARK  Name = CHEMBL1090359
REMARK  5 active torsions:
REMARK  status: ('A' for Active; 'I' for Inactive)
REMARK    1  A    between atoms: C_3  and  C_18
REMARK    2  A    between atoms: C_5  and  N_7
REMARK    3  A    between atoms: C_8  and  C_10
REMARK    4  A    between atoms: C_19  and  C_26
REMARK    5  A    between atoms: N_32  and  C_33
REMARK                            x       y       z     vdW  Elec       q    Type
REMARK                         _______ _______ _______ _____ _____    ______ ____
ROOT
ATOM      1  C   UNL     1       2.865   0.719  -0.287  0.00  0.00    +0.100 A 
ATOM      2  C   UNL     1       3.413   1.988  -0.337  0.00  0.00    +0.100 A 
ATOM      3  N   UNL     1       4.792   1.848  -0.133  0.00  0.00    -0.291 N 
ATOM      4  C   UNL     1       5.903   2.657  -0.061  0.00  0.00    +0.101 A 
ATOM      5  C   UNL     1       7.111   2.139   0.156  0.00  0.00    +0.067 A 
ATOM      6  S   UNL     1       6.748   0.395   0.279  0.00  0.00    -0.058 S 
ATOM      7  C   UNL     1       4.990   0.503   0.027  0.00  0.00    +0.178 A 
ATOM      8  N   UNL     1       3.863  -0.148  -0.059  0.00  0.00    -0.221 NA
ENDROOT
BRANCH   2   9
ATOM      9  C   UNL     1       2.686   3.247  -0.561  0.00  0.00    +0.095 A 
ATOM     10  C   UNL     1       3.208   4.465  -0.097  0.00  0.00    +0.050 A 
ATOM     11  C   UNL     1       2.489   5.619  -0.333  0.00  0.00    +0.116 A 
ATOM     12  N   UNL     1       1.337   5.545  -0.985  0.00  0.00    -0.223 NA
ATOM     13  C   UNL     1       0.866   4.383  -1.413  0.00  0.00    +0.220 A 
ATOM     14  N   UNL     1       1.522   3.251  -1.215  0.00  0.00    -0.213 NA
ATOM     15  N   UNL     1      -0.342   4.353  -2.090  0.00  0.00    -0.284 N 
ATOM     16  H   UNL     1      -0.739   3.503  -2.337  0.00  0.00    +0.155 HD
BRANCH  15  17
ATOM     17  C   UNL     1      -0.990   5.548  -2.419  0.00  0.00    +0.034 A 
ATOM     18  C   UNL     1      -0.248   6.679  -2.736  0.00  0.00    +0.023 A 
ATOM     19  C   UNL     1      -0.894   7.854  -3.057  0.00  0.00    +0.007 A 
ATOM     20  C   UNL     1      -2.281   7.915  -3.066  0.00  0.00    -0.030 A 
ATOM     21  C   UNL     1      -3.019   6.793  -2.755  0.00  0.00    -0.040 A 
ATOM     22  C   UNL     1      -2.375   5.609  -2.434  0.00  0.00    +0.027 A 
ATOM     23  C   UNL     1      -4.527   6.810  -2.764  0.00  0.00    +0.050 C 
ATOM     24  C   UNL     1      -5.032   8.252  -2.731  0.00  0.00    +0.086 C 
ATOM     25  N   UNL     1      -4.341   9.014  -3.784  0.00  0.00    -0.312 NA
ATOM     26  C   UNL     1      -2.937   9.225  -3.418  0.00  0.00    +0.116 C 
ATOM     27  H   UNL     1      -4.417   8.548  -4.676  0.00  0.00    +0.122 HD
ENDBRANCH  15  17
ENDBRANCH   2   9
BRANCH   1  30
ATOM     28  C   UNL     1      -0.885   0.927  -0.126  0.00  0.00    +0.002 A 
ATOM     29  C   UNL     1       0.449   1.245   0.027  0.00  0.00    +0.010 A 
ATOM     30  C   UNL     1       1.432   0.379  -0.450  0.00  0.00    +0.004 A 
ATOM     31  C   UNL     1       1.063  -0.808  -1.080  0.00  0.00    +0.033 A 
ATOM     32  C   UNL     1      -0.280  -1.120  -1.229  0.00  0.00    +0.034 A 
ATOM     33  C   UNL     1      -1.252  -0.250  -0.751  0.00  0.00    +0.023 A 
BRANCH  32  34
ATOM     34  N   UNL     1      -0.655  -2.309  -1.862  0.00  0.00    -0.281 N 
ATOM     35  C   UNL     1       0.107  -3.413  -1.730  0.00  0.00    +0.254 C 
ATOM     36  O   UNL     1       1.075  -3.399  -0.993  0.00  0.00    -0.270 OA
ATOM     37  H   UNL     1      -1.465  -2.340  -2.396  0.00  0.00    +0.155 HD
BRANCH  35  38
ATOM     38  C   UNL     1      -0.231  -4.638  -2.479  0.00  0.00    +0.107 A 
ATOM     39  C   UNL     1       0.306  -4.854  -3.753  0.00  0.00    +0.138 A 
ATOM     40  C   UNL     1      -0.016  -6.005  -4.448  0.00  0.00    +0.039 A 
ATOM     41  C   UNL     1      -0.868  -6.939  -3.888  0.00  0.00    +0.006 A 
ATOM     42  C   UNL     1      -1.404  -6.733  -2.630  0.00  0.00    +0.039 A 
ATOM     43  C   UNL     1      -1.087  -5.591  -1.918  0.00  0.00    +0.138 A 
ATOM     44  F   UNL     1      -1.607  -5.395  -0.687  0.00  0.00    -0.205 F 
ATOM     45  F   UNL     1       1.138  -3.942  -4.301  0.00  0.00    -0.205 F 
ENDBRANCH  35  38
ENDBRANCH  32  34
ENDBRANCH   1  30
TORSDOF 5
