REMARK  Name = CHEMBL447581
REMARK  16 active torsions:
REMARK  status: ('A' for Active; 'I' for Inactive)
REMARK    1  A    between atoms: C_1  and  C_2
REMARK    2  A    between atoms: C_9  and  S_12
REMARK    3  A    between atoms: N_10  and  C_11
REMARK    4  A    between atoms: S_12  and  C_13
REMARK    5  A    between atoms: C_16  and  N_20
REMARK    6  A    between atoms: N_20  and  C_21
REMARK    7  A    between atoms: C_24  and  O_40
REMARK    8  A    between atoms: C_25  and  N_33
REMARK    9  A    between atoms: C_30  and  C_31
REMARK   10  A    between atoms: N_33  and  C_34
REMARK   11  A    between atoms: C_34  and  C_35
REMARK   12  A    between atoms: C_35  and  C_36
REMARK   13  A    between atoms: C_36  and  N_37
REMARK   14  A    between atoms: N_37  and  C_38
REMARK   15  A    between atoms: N_37  and  C_39
REMARK   16  A    between atoms: O_40  and  C_41
REMARK                            x       y       z     vdW  Elec       q    Type
REMARK                         _______ _______ _______ _____ _____    ______ ____
ROOT
ATOM      1  C   UNL     1       0.339  -5.438   9.307  0.00  0.00    +0.060 A 
ATOM      2  C   UNL     1       0.113  -5.122  10.667  0.00  0.00    +0.026 A 
ATOM      3  C   UNL     1      -0.342  -3.850  11.047  0.00  0.00    +0.059 A 
ATOM      4  C   UNL     1      -0.552  -3.571  12.366  0.00  0.00    +0.142 A 
ATOM      5  C   UNL     1      -0.318  -4.545  13.349  0.00  0.00    +0.071 A 
ATOM      6  C   UNL     1       0.128  -5.802  13.001  0.00  0.00    +0.055 A 
ATOM      7  C   UNL     1       0.352  -6.112  11.651  0.00  0.00    +0.075 A 
ATOM      8  N   UNL     1       0.786  -7.330  11.293  0.00  0.00    -0.254 NA
ATOM      9  C   UNL     1       1.003  -7.649  10.043  0.00  0.00    +0.132 A 
ATOM     10  C   UNL     1       0.788  -6.732   9.001  0.00  0.00    +0.091 A 
ENDROOT
BRANCH   1  11
ATOM     11  N   UNL     1       0.119  -4.506   8.313  0.00  0.00    -0.313 N 
ATOM     12  H   UNL     1      -0.754  -4.437   7.897  0.00  0.00    +0.152 HD
BRANCH  11  16
ATOM     13  C   UNL     1       3.210  -1.983   7.100  0.00  0.00    +0.034 A 
ATOM     14  C   UNL     1       1.996  -1.970   6.425  0.00  0.00    +0.018 A 
ATOM     15  C   UNL     1       0.973  -2.805   6.826  0.00  0.00    +0.024 A 
ATOM     16  C   UNL     1       1.157  -3.660   7.906  0.00  0.00    +0.033 A 
ATOM     17  C   UNL     1       2.370  -3.674   8.582  0.00  0.00    +0.044 A 
ATOM     18  C   UNL     1       3.396  -2.842   8.177  0.00  0.00    +0.057 A 
ATOM     19 CL   UNL     1       4.915  -2.864   9.017  0.00  0.00    -0.082 Cl
BRANCH  13  20
ATOM     20  S   UNL     1       4.515  -0.917   6.587  0.00  0.00    -0.050 S 
BRANCH  20  29
ATOM     21  C   UNL     1       3.337   3.884  12.451  0.00  0.00    +0.044 C 
ATOM     22  C   UNL     1       3.959   3.263  11.228  0.00  0.00    -0.048 A 
ATOM     23  C   UNL     1       5.092   3.835  10.667  0.00  0.00    +0.005 A 
ATOM     24  C   UNL     1       5.674   3.278   9.546  0.00  0.00    +0.028 A 
ATOM     25  C   UNL     1       5.125   2.140   8.976  0.00  0.00    +0.069 A 
ATOM     26  C   UNL     1       3.978   1.556   9.540  0.00  0.00    +0.090 A 
ATOM     27  C   UNL     1       3.404   2.130  10.678  0.00  0.00    +0.033 A 
ATOM     28  N   UNL     1       3.668   0.471   8.785  0.00  0.00    -0.222 NA
ATOM     29  C   UNL     1       4.535   0.352   7.809  0.00  0.00    +0.174 A 
ATOM     30  N   UNL     1       5.456   1.358   7.882  0.00  0.00    -0.321 N 
ATOM     31  C   UNL     1       6.585   1.570   6.973  0.00  0.00    +0.151 C 
ENDBRANCH  20  29
ENDBRANCH  13  20
ENDBRANCH  11  16
ENDBRANCH   1  11
BRANCH  10  32
ATOM     32  C   UNL     1       1.028  -7.112   7.641  0.00  0.00    +0.103 C 
ATOM     33  N   UNL     1       1.220  -7.413   6.563  0.00  0.00    -0.191 NA
ENDBRANCH  10  32
BRANCH   5  34
ATOM     34  N   UNL     1      -0.539  -4.239  14.691  0.00  0.00    -0.341 N 
ATOM     35  H   UNL     1      -0.853  -3.356  14.942  0.00  0.00    +0.146 HD
BRANCH  34  36
ATOM     36  C   UNL     1      -0.298  -5.250  15.723  0.00  0.00    +0.100 C 
BRANCH  36  37
ATOM     37  C   UNL     1      -0.615  -4.662  17.099  0.00  0.00    -0.000 C 
BRANCH  37  38
ATOM     38  C   UNL     1      -0.362  -5.718  18.177  0.00  0.00    -0.078 C 
BRANCH  38  39
ATOM     39  N   UNL     1      -0.667  -5.152  19.498  0.00  0.00    +0.376 N 
ATOM     40  C   UNL     1      -2.102  -4.848  19.581  0.00  0.00    -0.097 C 
ATOM     41  C   UNL     1      -0.312  -6.124  20.540  0.00  0.00    -0.097 C 
ATOM     42  H   UNL     1      -0.135  -4.306  19.632  0.00  0.00    -0.083 HD
ENDBRANCH  38  39
ENDBRANCH  37  38
ENDBRANCH  36  37
ENDBRANCH  34  36
ENDBRANCH   5  34
BRANCH   4  43
ATOM     43  O   UNL     1      -0.992  -2.337  12.731  0.00  0.00    -0.493 OA
ATOM     44  C   UNL     1      -1.211  -1.390  11.684  0.00  0.00    +0.277 C 
ENDBRANCH   4  43
TORSDOF 11
