REMARK  Name = CHEMBL392031
REMARK  7 active torsions:
REMARK  status: ('A' for Active; 'I' for Inactive)
REMARK    1  A    between atoms: C_1  and  C_2
REMARK    2  A    between atoms: C_4  and  N_29
REMARK    3  A    between atoms: C_9  and  C_12
REMARK    4  A    between atoms: C_13  and  N_20
REMARK    5  A    between atoms: N_20  and  C_21
REMARK    6  A    between atoms: C_21  and  C_22
REMARK    7  A    between atoms: C_22  and  C_23
REMARK                            x       y       z     vdW  Elec       q    Type
REMARK                         _______ _______ _______ _____ _____    ______ ____
ROOT
ATOM      1  C   UNL     1       0.074  -1.364   4.755  0.00  0.00    +0.102 A 
ATOM      2  C   UNL     1       0.153  -0.148   5.449  0.00  0.00    +0.045 A 
ATOM      3  C   UNL     1       0.153  -0.170   6.856  0.00  0.00    +0.041 A 
ATOM      4  C   UNL     1       0.078  -1.348   7.513  0.00  0.00    +0.088 A 
ATOM      5  N   UNL     1       0.001  -2.526   6.841  0.00  0.00    -0.328 N 
ATOM      6  H   UNL     1      -0.052  -3.356   7.340  0.00  0.00    +0.168 HD
ATOM      7  C   UNL     1      -0.009  -2.564   5.495  0.00  0.00    +0.261 A 
ATOM      8  O   UNL     1      -0.084  -3.635   4.915  0.00  0.00    -0.267 OA
ENDROOT
BRANCH   1  17
ATOM      9  C   UNL     1      -0.048   1.498   0.009  0.00  0.00    +0.046 C 
ATOM     10  C   UNL     1       0.009  -0.008   0.001  0.00  0.00    -0.021 A 
ATOM     11  C   UNL     1       0.037  -0.684  -1.185  0.00  0.00    +0.031 A 
ATOM     12  C   UNL     1       0.090  -2.076  -1.206  0.00  0.00    +0.050 A 
ATOM     13  C   UNL     1       0.115  -2.793  -0.021  0.00  0.00    +0.054 A 
ATOM     14  C   UNL     1       0.087  -2.118   1.190  0.00  0.00    +0.069 A 
ATOM     15  C   UNL     1       0.040  -0.713   1.208  0.00  0.00    +0.092 A 
ATOM     16  N   UNL     1       0.029  -0.328   2.510  0.00  0.00    -0.227 NA
ATOM     17  C   UNL     1       0.071  -1.389   3.283  0.00  0.00    +0.146 A 
ATOM     18  N   UNL     1       0.100  -2.523   2.513  0.00  0.00    -0.338 N 
ATOM     19  H   UNL     1       0.134  -3.437   2.835  0.00  0.00    +0.167 HD
BRANCH  12  20
ATOM     20  N   UNL     1       0.117  -2.755  -2.434  0.00  0.00    -0.306 N 
ATOM     21  C   UNL     1       0.164  -4.113  -2.612  0.00  0.00    +0.112 A 
ATOM     22  C   UNL     1       0.175  -4.331  -3.941  0.00  0.00    +0.130 A 
ATOM     23  N   UNL     1       0.137  -3.143  -4.561  0.00  0.00    -0.244 NA
ATOM     24  C   UNL     1       0.097  -2.191  -3.669  0.00  0.00    +0.204 A 
ENDBRANCH  12  20
ENDBRANCH   1  17
BRANCH   2  25
ATOM     25  N   UNL     1       0.230   1.047   4.765  0.00  0.00    -0.343 N 
ATOM     26  H   UNL     1       0.150   1.059   3.799  0.00  0.00    +0.146 HD
BRANCH  25  27
ATOM     27  C   UNL     1       0.432   2.299   5.498  0.00  0.00    +0.107 C 
BRANCH  27  28
ATOM     28  C   UNL     1       0.481   3.466   4.511  0.00  0.00    +0.074 C 
BRANCH  28  29
ATOM     29  C   UNL     1       0.689   4.754   5.265  0.00  0.00    +0.043 A 
ATOM     30  C   UNL     1       1.744   5.581   4.928  0.00  0.00    +0.023 A 
ATOM     31  C   UNL     1       1.927   6.763   5.628  0.00  0.00    +0.003 A 
ATOM     32  C   UNL     1       1.037   7.072   6.646  0.00  0.00    +0.020 A 
ATOM     33  C   UNL     1       0.005   6.196   6.927  0.00  0.00    +0.111 A 
ATOM     34  N   UNL     1      -0.141   5.082   6.236  0.00  0.00    -0.260 NA
ENDBRANCH  28  29
ENDBRANCH  27  28
ENDBRANCH  25  27
ENDBRANCH   2  25
TORSDOF 6
