REMARK  Name = CHEMBL239360
REMARK  9 active torsions:
REMARK  status: ('A' for Active; 'I' for Inactive)
REMARK    1  A    between atoms: C_1  and  N_2
REMARK    2  A    between atoms: N_2  and  C_3
REMARK    3  A    between atoms: N_2  and  N_32
REMARK    4  A    between atoms: C_3  and  C_4
REMARK    5  A    between atoms: C_6  and  C_8
REMARK    6  A    between atoms: C_10  and  C_18
REMARK    7  A    between atoms: C_22  and  O_24
REMARK    8  A    between atoms: O_24  and  C_25
REMARK    9  A    between atoms: C_25  and  C_26
REMARK                            x       y       z     vdW  Elec       q    Type
REMARK                         _______ _______ _______ _____ _____    ______ ____
ROOT
ATOM      1  C   UNL     1      -1.533  -3.155   3.972  0.00  0.00    +0.101 C 
ATOM      2  N   UNL     1      -2.159  -3.674   2.973  0.00  0.00    -0.262 NA
ATOM      3  C   UNL     1      -2.480  -5.084   3.252  0.00  0.00    +0.165 C 
ATOM      4  C   UNL     1      -1.760  -5.364   4.579  0.00  0.00    +0.169 C 
ATOM      5  N   UNL     1      -1.356  -4.002   5.008  0.00  0.00    -0.281 N 
ATOM      6  C   UNL     1      -0.980  -3.768   6.334  0.00  0.00    +0.094 C 
ATOM      7  C   UNL     1      -1.624  -4.528   7.244  0.00  0.00    +0.099 C 
ATOM      8  N   UNL     1      -2.579  -5.417   6.857  0.00  0.00    -0.351 N 
ATOM      9  C   UNL     1      -2.715  -5.859   5.638  0.00  0.00    +0.093 C 
ATOM     10  N   UNL     1      -3.696  -6.766   5.322  0.00  0.00    -0.346 N 
ATOM     11  H   UNL     1      -3.631  -7.287   4.507  0.00  0.00    +0.143 HD
ATOM     12  H   UNL     1      -4.455  -6.885   5.915  0.00  0.00    +0.143 HD
ATOM     13  H   UNL     1      -3.202  -5.737   7.528  0.00  0.00    +0.166 HD
ENDROOT
BRANCH   3  14
ATOM     14  C   UNL     1      -3.967  -5.269   3.407  0.00  0.00    -0.017 A 
ATOM     15  C   UNL     1      -4.694  -4.392   4.192  0.00  0.00    +0.006 A 
ATOM     16  C   UNL     1      -6.059  -4.559   4.336  0.00  0.00    +0.004 A 
ATOM     17  C   UNL     1      -6.700  -5.601   3.696  0.00  0.00    +0.045 A 
ATOM     18  C   UNL     1      -5.974  -6.482   2.908  0.00  0.00    +0.121 A 
ATOM     19  C   UNL     1      -4.605  -6.309   2.760  0.00  0.00    +0.051 A 
BRANCH  18  20
ATOM     20  O   UNL     1      -6.602  -7.508   2.277  0.00  0.00    -0.487 OA
BRANCH  20  21
ATOM     21  C   UNL     1      -8.014  -7.621   2.469  0.00  0.00    +0.264 C 
BRANCH  21  22
ATOM     22  C   UNL     1      -8.533  -8.808   1.699  0.00  0.00    -0.010 A 
ATOM     23  C   UNL     1      -8.951  -8.653   0.391  0.00  0.00    +0.007 A 
ATOM     24  C   UNL     1      -9.427  -9.742  -0.316  0.00  0.00    +0.000 A 
ATOM     25  C   UNL     1      -9.484 -10.985   0.286  0.00  0.00    +0.000 A 
ATOM     26  C   UNL     1      -9.064 -11.140   1.594  0.00  0.00    +0.000 A 
ATOM     27  C   UNL     1      -8.584 -10.052   2.299  0.00  0.00    +0.007 A 
ENDBRANCH  21  22
ENDBRANCH  20  21
ENDBRANCH  18  20
ENDBRANCH   3  14
BRANCH   1  30
ATOM     28  C   UNL     1      -0.474  -0.159   2.678  0.00  0.00    +0.006 C 
ATOM     29  C   UNL     1      -1.823  -0.799   3.046  0.00  0.00    +0.016 C 
ATOM     30  C   UNL     1      -1.036  -1.732   3.981  0.00  0.00    +0.053 C 
ATOM     31  C   UNL     1       0.177  -1.497   3.067  0.00  0.00    +0.016 C 
BRANCH  28  32
ATOM     32  C   UNL     1      -0.078   1.003   3.590  0.00  0.00    +0.105 C 
BRANCH  32  34
ATOM     33  C   UNL     1      -0.384   3.373   3.980  0.00  0.00    +0.124 C 
ATOM     34  N   UNL     1      -0.651   2.252   3.070  0.00  0.00    -0.243 NA
BRANCH  34  35
ATOM     35  N   UNL     1      -0.155   2.536   1.733  0.00  0.00    -0.244 NA
ATOM     36  C   UNL     1      -0.965   3.574   1.080  0.00  0.00    +0.083 C 
ATOM     37  C   UNL     1      -0.448   3.800  -0.342  0.00  0.00    -0.066 C 
ATOM     38  N   UNL     1       0.961   4.214  -0.291  0.00  0.00    +0.381 N 
ATOM     39  C   UNL     1       1.761   3.156   0.341  0.00  0.00    -0.066 C 
ATOM     40  C   UNL     1       1.262   2.925   1.769  0.00  0.00    +0.083 C 
ATOM     41  H   UNL     1       1.298   4.375  -1.228  0.00  0.00    -0.086 HD
ATOM     42  H   UNL     1       1.042   5.064   0.246  0.00  0.00    -0.086 HD
ENDBRANCH  34  35
ENDBRANCH  32  34
ENDBRANCH  28  32
ENDBRANCH   1  30
TORSDOF 8
