REMARK  Name = CHEMBL444031
REMARK  5 active torsions:
REMARK  status: ('A' for Active; 'I' for Inactive)
REMARK    1  A    between atoms: C_8  and  C_27
REMARK    2  A    between atoms: C_9  and  C_10
REMARK    3  A    between atoms: N_16  and  C_17
REMARK    4  A    between atoms: C_31  and  C_33
REMARK    5  A    between atoms: N_35  and  C_36
REMARK                            x       y       z     vdW  Elec       q    Type
REMARK                         _______ _______ _______ _____ _____    ______ ____
ROOT
ATOM      1  C   UNL     1      -1.364   0.124   2.660  0.00  0.00    +0.005 A 
ATOM      2  C   UNL     1      -0.436   1.067   2.191  0.00  0.00    +0.018 A 
ATOM      3  C   UNL     1       0.785   0.669   1.773  0.00  0.00    +0.093 A 
ATOM      4  N   UNL     1       1.133  -0.648   1.800  0.00  0.00    -0.299 N 
ATOM      5  C   UNL     1       0.251  -1.593   2.252  0.00  0.00    +0.116 A 
ATOM      6  C   UNL     1      -1.027  -1.195   2.692  0.00  0.00    +0.045 A 
ATOM      7  N   UNL     1       0.827  -2.787   2.177  0.00  0.00    -0.339 N 
ATOM      8  C   UNL     1       2.064  -2.658   1.689  0.00  0.00    +0.074 A 
ATOM      9  C   UNL     1       2.288  -1.308   1.439  0.00  0.00    +0.097 A 
ATOM     10  H   UNL     1       0.414  -3.624   2.437  0.00  0.00    +0.167 HD
ENDROOT
BRANCH   9  11
ATOM     11  C   UNL     1       3.514  -0.705   0.897  0.00  0.00    +0.095 A 
ATOM     12  C   UNL     1       3.466   0.525   0.221  0.00  0.00    +0.050 A 
ATOM     13  C   UNL     1       4.644   1.051  -0.269  0.00  0.00    +0.116 A 
ATOM     14  N   UNL     1       5.777   0.387  -0.090  0.00  0.00    -0.223 NA
ATOM     15  C   UNL     1       5.796  -0.773   0.552  0.00  0.00    +0.220 A 
ATOM     16  N   UNL     1       4.693  -1.315   1.044  0.00  0.00    -0.213 NA
ATOM     17  N   UNL     1       7.003  -1.433   0.716  0.00  0.00    -0.283 N 
ATOM     18  H   UNL     1       7.021  -2.319   1.109  0.00  0.00    +0.155 HD
BRANCH  17  19
ATOM     19  C   UNL     1       8.196  -0.821   0.313  0.00  0.00    +0.037 A 
ATOM     20  C   UNL     1       8.377   0.542   0.504  0.00  0.00    +0.027 A 
ATOM     21  C   UNL     1       9.553   1.146   0.106  0.00  0.00    +0.051 A 
ATOM     22  C   UNL     1      10.558   0.394  -0.485  0.00  0.00    +0.162 A 
ATOM     23  C   UNL     1      10.381  -0.971  -0.676  0.00  0.00    +0.164 A 
ATOM     24  C   UNL     1       9.201  -1.578  -0.273  0.00  0.00    +0.072 A 
ATOM     25  O   UNL     1      11.358  -1.727  -1.246  0.00  0.00    -0.485 OA
ATOM     26  C   UNL     1      12.375  -1.025  -1.970  0.00  0.00    +0.270 C 
ATOM     27  C   UNL     1      12.839   0.163  -1.117  0.00  0.00    +0.270 C 
ATOM     28  O   UNL     1      11.710   1.008  -0.874  0.00  0.00    -0.485 OA
ENDBRANCH  17  19
ENDBRANCH   9  11
BRANCH   8  29
ATOM     29  C   UNL     1       3.029  -3.759   1.455  0.00  0.00    +0.001 A 
ATOM     30  C   UNL     1       4.358  -3.621   1.855  0.00  0.00    +0.010 A 
ATOM     31  C   UNL     1       5.258  -4.645   1.638  0.00  0.00    +0.001 A 
ATOM     32  C   UNL     1       4.850  -5.813   1.025  0.00  0.00    +0.013 A 
ATOM     33  C   UNL     1       3.522  -5.964   0.620  0.00  0.00    +0.038 A 
ATOM     34  C   UNL     1       2.608  -4.935   0.841  0.00  0.00    +0.023 A 
BRANCH  33  35
ATOM     35  C   UNL     1       3.085  -7.214  -0.037  0.00  0.00    +0.248 C 
ATOM     36  O   UNL     1       1.929  -7.344  -0.390  0.00  0.00    -0.270 OA
ATOM     37  N   UNL     1       3.969  -8.210  -0.246  0.00  0.00    -0.277 N 
ATOM     38  H   UNL     1       4.880  -8.126   0.079  0.00  0.00    +0.155 HD
BRANCH  37  39
ATOM     39  C   UNL     1       3.573  -9.366  -0.931  0.00  0.00    +0.105 A 
ATOM     40  C   UNL     1       2.638  -9.283  -1.956  0.00  0.00    +0.147 A 
ATOM     41  C   UNL     1       2.250 -10.427  -2.630  0.00  0.00    +0.040 A 
ATOM     42  C   UNL     1       2.791 -11.652  -2.285  0.00  0.00    +0.006 A 
ATOM     43  C   UNL     1       3.720 -11.739  -1.266  0.00  0.00    +0.040 A 
ATOM     44  C   UNL     1       4.118 -10.599  -0.590  0.00  0.00    +0.147 A 
ATOM     45  F   UNL     1       5.031 -10.684   0.402  0.00  0.00    -0.203 F 
ATOM     46  F   UNL     1       2.109  -8.086  -2.293  0.00  0.00    -0.203 F 
ENDBRANCH  37  39
ENDBRANCH  33  35
ENDBRANCH   8  29
TORSDOF 5
