REMARK  Name = CHEMBL245952
REMARK  9 active torsions:
REMARK  status: ('A' for Active; 'I' for Inactive)
REMARK    1  A    between atoms: C_3  and  O_20
REMARK    2  A    between atoms: C_4  and  O_19
REMARK    3  A    between atoms: C_6  and  C_7
REMARK    4  A    between atoms: C_7  and  C_8
REMARK    5  A    between atoms: C_8  and  C_9
REMARK    6  A    between atoms: C_9  and  C_10
REMARK    7  A    between atoms: C_10  and  C_11
REMARK    8  A    between atoms: C_14  and  O_18
REMARK    9  A    between atoms: C_15  and  O_17
REMARK                            x       y       z     vdW  Elec       q    Type
REMARK                         _______ _______ _______ _____ _____    ______ ____
ROOT
ATOM      1  C   UNL     1      -1.746  -1.026  -1.429  0.00  0.00    +0.005 C 
ENDROOT
BRANCH   1   2
ATOM      2  C   UNL     1      -1.294  -0.774   0.010  0.00  0.00    +0.035 C 
BRANCH   2   8
ATOM      3  C   UNL     1      -0.017   1.378   0.010  0.00  0.00    +0.007 A 
ATOM      4  C   UNL     1       1.169   2.089   0.002  0.00  0.00    +0.049 A 
ATOM      5  C   UNL     1       2.380   1.415  -0.013  0.00  0.00    +0.158 A 
ATOM      6  C   UNL     1       2.399   0.024  -0.021  0.00  0.00    +0.158 A 
ATOM      7  C   UNL     1       1.207  -0.682  -0.013  0.00  0.00    +0.052 A 
ATOM      8  C   UNL     1       0.002  -0.004   0.002  0.00  0.00    -0.044 A 
BRANCH   6   9
ATOM      9  O   UNL     1       3.585  -0.641  -0.036  0.00  0.00    -0.503 OA
ATOM     10  H   UNL     1       3.937  -0.839   0.843  0.00  0.00    +0.292 HD
ENDBRANCH   6   9
BRANCH   5  11
ATOM     11  O   UNL     1       3.548   2.113  -0.021  0.00  0.00    -0.503 OA
ATOM     12  H   UNL     1       3.894   2.310   0.860  0.00  0.00    +0.292 HD
ENDBRANCH   5  11
ENDBRANCH   2   8
ENDBRANCH   1   2
BRANCH   1  13
ATOM     13  C   UNL     1      -3.061  -1.808  -1.421  0.00  0.00    +0.005 C 
BRANCH  13  14
ATOM     14  C   UNL     1      -3.514  -2.060  -2.861  0.00  0.00    +0.035 C 
BRANCH  14  15
ATOM     15  C   UNL     1      -4.809  -2.830  -2.852  0.00  0.00    -0.044 A 
ATOM     16  C   UNL     1      -4.790  -4.212  -2.854  0.00  0.00    +0.007 A 
ATOM     17  C   UNL     1      -5.977  -4.923  -2.847  0.00  0.00    +0.049 A 
ATOM     18  C   UNL     1      -7.187  -4.249  -2.837  0.00  0.00    +0.158 A 
ATOM     19  C   UNL     1      -7.206  -2.858  -2.835  0.00  0.00    +0.158 A 
ATOM     20  C   UNL     1      -6.014  -2.152  -2.837  0.00  0.00    +0.052 A 
BRANCH  19  21
ATOM     21  O   UNL     1      -8.392  -2.192  -2.826  0.00  0.00    -0.503 OA
ATOM     22  H   UNL     1      -8.729  -2.001  -1.940  0.00  0.00    +0.292 HD
ENDBRANCH  19  21
BRANCH  18  23
ATOM     23  O   UNL     1      -8.355  -4.947  -2.830  0.00  0.00    -0.503 OA
ATOM     24  H   UNL     1      -8.686  -5.150  -1.945  0.00  0.00    +0.292 HD
ENDBRANCH  18  23
ENDBRANCH  14  15
ENDBRANCH  13  14
ENDBRANCH   1  13
TORSDOF 9
