REMARK  Name = CHEMBL1090364
REMARK  6 active torsions:
REMARK  status: ('A' for Active; 'I' for Inactive)
REMARK    1  A    between atoms: C_4  and  C_7
REMARK    2  A    between atoms: C_7  and  C_8
REMARK    3  A    between atoms: N_10  and  C_11
REMARK    4  A    between atoms: C_15  and  C_17
REMARK    5  A    between atoms: C_18  and  C_25
REMARK    6  A    between atoms: N_31  and  C_32
REMARK                            x       y       z     vdW  Elec       q    Type
REMARK                         _______ _______ _______ _____ _____    ______ ____
ROOT
ATOM      1  C   UNL     1       8.286  -3.590   4.913  0.00  0.00    +0.100 A 
ATOM      2  C   UNL     1       8.972  -3.473   6.109  0.00  0.00    +0.100 A 
ATOM      3  N   UNL     1       9.983  -4.442   6.098  0.00  0.00    -0.291 N 
ATOM      4  C   UNL     1      10.995  -4.873   6.924  0.00  0.00    +0.101 A 
ATOM      5  C   UNL     1      11.798  -5.872   6.557  0.00  0.00    +0.067 A 
ATOM      6  S   UNL     1      11.149  -6.292   4.946  0.00  0.00    -0.058 S 
ATOM      7  C   UNL     1       9.845  -5.084   4.896  0.00  0.00    +0.178 A 
ATOM      8  N   UNL     1       8.851  -4.585   4.213  0.00  0.00    -0.221 NA
ENDROOT
BRANCH   2   9
ATOM      9  C   UNL     1       8.693  -2.513   7.187  0.00  0.00    +0.095 A 
ATOM     10  C   UNL     1       9.072  -2.794   8.509  0.00  0.00    +0.050 A 
ATOM     11  C   UNL     1       8.789  -1.862   9.486  0.00  0.00    +0.116 A 
ATOM     12  N   UNL     1       8.172  -0.737   9.152  0.00  0.00    -0.223 NA
ATOM     13  C   UNL     1       7.823  -0.495   7.896  0.00  0.00    +0.220 A 
ATOM     14  N   UNL     1       8.078  -1.357   6.925  0.00  0.00    -0.213 NA
ATOM     15  N   UNL     1       7.179   0.693   7.592  0.00  0.00    -0.284 N 
ATOM     16  H   UNL     1       6.851   0.851   6.693  0.00  0.00    +0.155 HD
BRANCH  15  17
ATOM     17  C   UNL     1       7.002   1.665   8.582  0.00  0.00    +0.034 A 
ATOM     18  C   UNL     1       7.957   1.831   9.576  0.00  0.00    +0.023 A 
ATOM     19  C   UNL     1       7.774   2.791  10.550  0.00  0.00    +0.004 A 
ATOM     20  C   UNL     1       6.642   3.593  10.542  0.00  0.00    -0.061 A 
ATOM     21  C   UNL     1       5.694   3.432   9.554  0.00  0.00    -0.046 A 
ATOM     22  C   UNL     1       5.874   2.472   8.572  0.00  0.00    +0.027 A 
ATOM     23  C   UNL     1       4.455   4.290   9.506  0.00  0.00    +0.016 C 
ATOM     24  C   UNL     1       4.252   4.981  10.855  0.00  0.00    -0.077 C 
ATOM     25  N   UNL     1       5.509   5.644  11.236  0.00  0.00    +0.382 N 
ATOM     26  C   UNL     1       6.486   4.624  11.629  0.00  0.00    -0.047 C 
ATOM     27  H   UNL     1       5.866   6.168  10.450  0.00  0.00    -0.085 HD
ATOM     28  H   UNL     1       5.341   6.267  12.011  0.00  0.00    -0.085 HD
ENDBRANCH  15  17
ENDBRANCH   2   9
BRANCH   1  33
ATOM     29  C   UNL     1       5.888  -1.662   2.747  0.00  0.00    +0.034 A 
ATOM     30  C   UNL     1       4.966  -1.226   3.691  0.00  0.00    +0.023 A 
ATOM     31  C   UNL     1       5.125  -1.557   5.023  0.00  0.00    +0.002 A 
ATOM     32  C   UNL     1       6.200  -2.324   5.424  0.00  0.00    +0.010 A 
ATOM     33  C   UNL     1       7.131  -2.767   4.484  0.00  0.00    +0.004 A 
ATOM     34  C   UNL     1       6.968  -2.437   3.140  0.00  0.00    +0.033 A 
BRANCH  29  37
ATOM     35  C   UNL     1       6.065  -2.204   0.437  0.00  0.00    +0.222 C 
ATOM     36  O   UNL     1       6.594  -3.254   0.735  0.00  0.00    -0.275 OA
ATOM     37  N   UNL     1       5.723  -1.324   1.399  0.00  0.00    -0.285 N 
ATOM     38  H   UNL     1       5.363  -0.456   1.157  0.00  0.00    +0.155 HD
BRANCH  35  39
ATOM     39  C   UNL     1       5.789  -1.883  -1.010  0.00  0.00    +0.131 C 
BRANCH  39  43
ATOM     40  C   UNL     1       7.132  -5.110  -3.466  0.00  0.00    +0.000 A 
ATOM     41  C   UNL     1       5.839  -5.105  -2.977  0.00  0.00    +0.000 A 
ATOM     42  C   UNL     1       5.404  -4.061  -2.182  0.00  0.00    +0.004 A 
ATOM     43  C   UNL     1       6.263  -3.022  -1.876  0.00  0.00    -0.039 A 
ATOM     44  C   UNL     1       7.557  -3.027  -2.364  0.00  0.00    +0.004 A 
ATOM     45  C   UNL     1       7.990  -4.071  -3.160  0.00  0.00    +0.000 A 
ENDBRANCH  39  43
ENDBRANCH  35  39
ENDBRANCH  29  37
ENDBRANCH   1  33
TORSDOF 6
