REMARK  Name = CHEMBL457105
REMARK  8 active torsions:
REMARK  status: ('A' for Active; 'I' for Inactive)
REMARK    1  A    between atoms: C_1  and  N_2
REMARK    2  A    between atoms: N_2  and  C_3
REMARK    3  A    between atoms: N_2  and  C_4
REMARK    4  A    between atoms: C_4  and  C_5
REMARK    5  A    between atoms: C_14  and  N_19
REMARK    6  A    between atoms: C_15  and  O_17
REMARK    7  A    between atoms: O_17  and  C_18
REMARK    8  A    between atoms: C_28  and  N_30
REMARK                            x       y       z     vdW  Elec       q    Type
REMARK                         _______ _______ _______ _____ _____    ______ ____
ROOT
ATOM      1  N   UNL     1      -3.815   1.990  -5.311  0.00  0.00    -0.281 N 
ATOM      2  C   UNL     1      -2.453   1.971  -5.566  0.00  0.00    +0.223 A 
ATOM      3  N   UNL     1      -1.714   1.031  -5.003  0.00  0.00    -0.196 NA
ATOM      4  C   UNL     1      -0.401   0.977  -5.222  0.00  0.00    +0.145 A 
ATOM      5  C   UNL     1       0.182   1.941  -6.065  0.00  0.00    +0.059 A 
ATOM      6  C   UNL     1       1.611   1.631  -6.113  0.00  0.00    +0.032 A 
ATOM      7  C   UNL     1       1.800   0.553  -5.337  0.00  0.00    +0.085 A 
ATOM      8  N   UNL     1       0.604   0.152  -4.797  0.00  0.00    -0.346 N 
ATOM      9  H   UNL     1       0.488  -0.605  -4.202  0.00  0.00    +0.167 HD
ATOM     10  C   UNL     1      -0.641   2.920  -6.642  0.00  0.00    +0.140 A 
ATOM     11  N   UNL     1      -1.942   2.894  -6.371  0.00  0.00    -0.198 NA
ATOM     12  H   UNL     1      -4.388   2.616  -5.781  0.00  0.00    +0.155 HD
ENDROOT
BRANCH   1  22
ATOM     13  C   UNL     1      -2.117  -0.209  -1.133  0.00  0.00    +0.203 C 
ATOM     14  O   UNL     1      -1.550   0.253  -2.101  0.00  0.00    -0.277 OA
ATOM     15  N   UNL     1      -3.433  -0.490  -1.194  0.00  0.00    -0.273 N 
ATOM     16  C   UNL     1      -4.105  -1.166  -0.076  0.00  0.00    +0.114 C 
ATOM     17  C   UNL     1      -5.007  -2.260  -0.664  0.00  0.00    +0.024 C 
ATOM     18  C   UNL     1      -6.083  -1.602  -1.527  0.00  0.00    +0.038 C 
ATOM     19  C   UNL     1      -5.458  -0.656  -2.519  0.00  0.00    -0.022 A 
ATOM     20  C   UNL     1      -4.188  -0.136  -2.324  0.00  0.00    +0.041 A 
ATOM     21  C   UNL     1      -3.640   0.743  -3.251  0.00  0.00    +0.050 A 
ATOM     22  C   UNL     1      -4.365   1.104  -4.376  0.00  0.00    +0.078 A 
ATOM     23  C   UNL     1      -5.642   0.584  -4.572  0.00  0.00    +0.142 A 
ATOM     24  C   UNL     1      -6.180  -0.300  -3.648  0.00  0.00    +0.053 A 
BRANCH  23  25
ATOM     25  O   UNL     1      -6.358   0.934  -5.674  0.00  0.00    -0.493 OA
ATOM     26  C   UNL     1      -7.661   0.362  -5.811  0.00  0.00    +0.277 C 
ENDBRANCH  23  25
BRANCH  13  27
ATOM     27  C   UNL     1      -1.348  -0.470   0.137  0.00  0.00    +0.018 C 
BRANCH  27  29
ATOM     28  C   UNL     1      -0.003   1.499  -0.117  0.00  0.00    -0.096 C 
ATOM     29  N   UNL     1       0.024   0.035  -0.008  0.00  0.00    +0.382 N 
ATOM     30  C   UNL     1       0.816  -0.355   1.166  0.00  0.00    -0.096 C 
ATOM     31  H   UNL     1       0.440  -0.357  -0.840  0.00  0.00    -0.082 HD
ENDBRANCH  27  29
ENDBRANCH  13  27
ENDBRANCH   1  22
BRANCH  10  32
ATOM     32  N   UNL     1      -0.111   3.888  -7.478  0.00  0.00    -0.284 N 
ATOM     33  C   UNL     1       1.282   3.936  -7.930  0.00  0.00    +0.117 C 
ATOM     34  C   UNL     1       1.372   5.181  -8.828  0.00  0.00    +0.056 C 
ATOM     35  C   UNL     1      -0.024   5.762  -8.813  0.00  0.00    -0.025 A 
ATOM     36  C   UNL     1      -0.827   4.960  -8.017  0.00  0.00    +0.038 A 
ATOM     37  C   UNL     1      -2.172   5.296  -7.854  0.00  0.00    +0.024 A 
ATOM     38  C   UNL     1      -2.691   6.409  -8.481  0.00  0.00    +0.002 A 
ATOM     39  C   UNL     1      -1.883   7.200  -9.276  0.00  0.00    +0.000 A 
ATOM     40  C   UNL     1      -0.547   6.878  -9.435  0.00  0.00    +0.005 A 
ENDBRANCH  10  32
TORSDOF 5
