REMARK  Name = CHEMBL392082
REMARK  7 active torsions:
REMARK  status: ('A' for Active; 'I' for Inactive)
REMARK    1  A    between atoms: C_4  and  C_7
REMARK    2  A    between atoms: C_7  and  O_8
REMARK    3  A    between atoms: O_8  and  C_9
REMARK    4  A    between atoms: C_13  and  C_15
REMARK    5  A    between atoms: C_22  and  C_24
REMARK    6  A    between atoms: C_27  and  C_30
REMARK    7  A    between atoms: C_30  and  N_31
REMARK                            x       y       z     vdW  Elec       q    Type
REMARK                         _______ _______ _______ _____ _____    ______ ____
ROOT
ATOM      1  C   UNL     1       8.627  -1.935   4.833  0.00  0.00    +0.100 A 
ATOM      2  C   UNL     1       9.517  -2.916   5.249  0.00  0.00    +0.113 A 
ATOM      3  C   UNL     1      10.332  -3.859   4.588  0.00  0.00    +0.142 A 
ATOM      4  N   UNL     1      11.087  -4.676   5.300  0.00  0.00    -0.237 NA
ATOM      5  C   UNL     1      11.095  -4.626   6.638  0.00  0.00    +0.131 A 
ATOM      6  C   UNL     1      10.336  -3.745   7.316  0.00  0.00    +0.113 A 
ATOM      7  N   UNL     1       9.528  -2.867   6.630  0.00  0.00    -0.298 N 
ATOM      8  C   UNL     1       8.676  -1.895   7.000  0.00  0.00    +0.118 A 
ATOM      9  N   UNL     1       8.149  -1.341   5.938  0.00  0.00    -0.231 NA
ATOM     10  N   UNL     1      10.339  -3.929   3.205  0.00  0.00    -0.341 N 
ATOM     11  H   UNL     1      10.005  -3.185   2.680  0.00  0.00    +0.144 HD
ATOM     12  H   UNL     1      10.679  -4.721   2.761  0.00  0.00    +0.144 HD
ENDROOT
BRANCH   1  17
ATOM     13  C   UNL     1       7.693  -2.301   1.208  0.00  0.00    +0.122 A 
ATOM     14  C   UNL     1       7.619  -0.971   0.815  0.00  0.00    +0.046 A 
ATOM     15  C   UNL     1       7.872   0.039   1.725  0.00  0.00    +0.004 A 
ATOM     16  C   UNL     1       8.199  -0.268   3.030  0.00  0.00    +0.010 A 
ATOM     17  C   UNL     1       8.275  -1.602   3.434  0.00  0.00    +0.006 A 
ATOM     18  C   UNL     1       8.015  -2.619   2.517  0.00  0.00    +0.055 A 
BRANCH  13  19
ATOM     19  O   UNL     1       7.443  -3.290   0.310  0.00  0.00    -0.487 OA
BRANCH  19  20
ATOM     20  C   UNL     1       7.117  -2.889  -1.022  0.00  0.00    +0.264 C 
BRANCH  20  24
ATOM     21  C   UNL     1       6.431  -6.353  -3.426  0.00  0.00    +0.000 A 
ATOM     22  C   UNL     1       5.381  -5.766  -2.744  0.00  0.00    +0.000 A 
ATOM     23  C   UNL     1       5.604  -4.645  -1.966  0.00  0.00    +0.007 A 
ATOM     24  C   UNL     1       6.875  -4.111  -1.870  0.00  0.00    -0.010 A 
ATOM     25  C   UNL     1       7.925  -4.699  -2.551  0.00  0.00    +0.007 A 
ATOM     26  C   UNL     1       7.702  -5.819  -3.330  0.00  0.00    +0.000 A 
ENDBRANCH  20  24
ENDBRANCH  19  20
ENDBRANCH  13  19
ENDBRANCH   1  17
BRANCH   8  27
ATOM     27  C   UNL     1       8.377  -1.498   8.423  0.00  0.00    +0.056 C 
ATOM     28  C   UNL     1       6.886  -1.691   8.704  0.00  0.00    +0.011 C 
ATOM     29  C   UNL     1       6.583  -1.289  10.149  0.00  0.00    +0.005 C 
ATOM     30  C   UNL     1       6.956   0.180  10.358  0.00  0.00    +0.003 C 
ATOM     31  C   UNL     1       8.448   0.373  10.077  0.00  0.00    +0.005 C 
ATOM     32  C   UNL     1       8.751  -0.030   8.633  0.00  0.00    +0.011 C 
BRANCH  30  33
ATOM     33  C   UNL     1       6.653   0.583  11.803  0.00  0.00    +0.088 C 
BRANCH  33  34
ATOM     34  N   UNL     1       6.907   2.019  11.975  0.00  0.00    -0.298 NA
ATOM     35  C   UNL     1       7.088   2.357  13.394  0.00  0.00    +0.112 C 
ATOM     36  C   UNL     1       7.408   3.848  13.522  0.00  0.00    +0.175 C 
ATOM     37  O   UNL     1       6.361   4.609  12.914  0.00  0.00    -0.377 OA
ATOM     38  C   UNL     1       6.157   4.307  11.531  0.00  0.00    +0.175 C 
ATOM     39  C   UNL     1       5.824   2.820  11.383  0.00  0.00    +0.112 C 
ENDBRANCH  33  34
ENDBRANCH  30  33
ENDBRANCH   8  27
TORSDOF 7
