REMARK  Name = CHEMBL256072
REMARK  8 active torsions:
REMARK  status: ('A' for Active; 'I' for Inactive)
REMARK    1  A    between atoms: C_1  and  C_2
REMARK    2  A    between atoms: C_4  and  N_30
REMARK    3  A    between atoms: C_9  and  C_12
REMARK    4  A    between atoms: C_13  and  N_20
REMARK    5  A    between atoms: N_20  and  C_21
REMARK    6  A    between atoms: C_21  and  C_22
REMARK    7  A    between atoms: C_22  and  C_23
REMARK    8  A    between atoms: N_25  and  C_28
REMARK                            x       y       z     vdW  Elec       q    Type
REMARK                         _______ _______ _______ _____ _____    ______ ____
ROOT
ATOM      1  C   UNL     1       0.118  -1.759   5.073  0.00  0.00    +0.102 A 
ATOM      2  C   UNL     1      -0.009  -0.523   5.723  0.00  0.00    +0.045 A 
ATOM      3  C   UNL     1      -0.025  -0.496   7.131  0.00  0.00    +0.041 A 
ATOM      4  C   UNL     1       0.080  -1.648   7.829  0.00  0.00    +0.088 A 
ATOM      5  N   UNL     1       0.204  -2.846   7.199  0.00  0.00    -0.328 N 
ATOM      6  H   UNL     1       0.279  -3.656   7.727  0.00  0.00    +0.168 HD
ATOM      7  C   UNL     1       0.219  -2.931   5.855  0.00  0.00    +0.261 A 
ATOM      8  O   UNL     1       0.326  -4.019   5.314  0.00  0.00    -0.267 OA
ENDROOT
BRANCH   1  17
ATOM      9  C   UNL     1       0.199   0.940   0.232  0.00  0.00    +0.046 C 
ATOM     10  C   UNL     1       0.193  -0.566   0.276  0.00  0.00    -0.021 A 
ATOM     11  C   UNL     1       0.214  -1.284  -0.887  0.00  0.00    +0.028 A 
ATOM     12  C   UNL     1       0.209  -2.676  -0.860  0.00  0.00    +0.032 A 
ATOM     13  C   UNL     1       0.183  -3.352   0.349  0.00  0.00    +0.051 A 
ATOM     14  C   UNL     1       0.161  -2.635   1.536  0.00  0.00    +0.068 A 
ATOM     15  C   UNL     1       0.172  -1.230   1.506  0.00  0.00    +0.092 A 
ATOM     16  N   UNL     1       0.154  -0.800   2.794  0.00  0.00    -0.227 NA
ATOM     17  C   UNL     1       0.139  -1.834   3.603  0.00  0.00    +0.146 A 
ATOM     18  N   UNL     1       0.133  -2.994   2.872  0.00  0.00    -0.338 N 
ATOM     19  H   UNL     1       0.123  -3.897   3.225  0.00  0.00    +0.167 HD
BRANCH  12  20
ATOM     20  N   UNL     1       0.230  -3.395  -2.060  0.00  0.00    -0.325 N 
ATOM     21  C   UNL     1       0.347  -4.862  -2.061  0.00  0.00    +0.133 C 
ATOM     22  C   UNL     1      -0.762  -5.435  -2.951  0.00  0.00    +0.178 C 
ATOM     23  O   UNL     1      -0.719  -4.793  -4.228  0.00  0.00    -0.377 OA
ATOM     24  C   UNL     1      -0.964  -3.385  -4.184  0.00  0.00    +0.178 C 
ATOM     25  C   UNL     1       0.129  -2.708  -3.357  0.00  0.00    +0.133 C 
ENDBRANCH  12  20
ENDBRANCH   1  17
BRANCH   2  26
ATOM     26  N   UNL     1      -0.116   0.645   4.998  0.00  0.00    -0.343 N 
ATOM     27  H   UNL     1      -0.184   0.610   4.031  0.00  0.00    +0.146 HD
BRANCH  26  28
ATOM     28  C   UNL     1      -0.126   1.938   5.687  0.00  0.00    +0.108 C 
BRANCH  28  29
ATOM     29  C   UNL     1      -0.253   3.063   4.659  0.00  0.00    +0.077 C 
BRANCH  29  30
ATOM     30  C   UNL     1      -0.263   4.393   5.368  0.00  0.00    +0.079 A 
ATOM     31  C   UNL     1      -1.354   5.039   5.824  0.00  0.00    +0.132 A 
ATOM     32  N   UNL     1      -0.915   6.201   6.399  0.00  0.00    -0.324 N 
ATOM     33  C   UNL     1       0.431   6.225   6.273  0.00  0.00    +0.200 A 
ATOM     34  N   UNL     1       0.813   5.138   5.661  0.00  0.00    -0.239 NA
ATOM     35  C   UNL     1      -1.748   7.227   7.031  0.00  0.00    +0.151 C 
ATOM     36 CL   UNL     1      -3.001   4.501   5.706  0.00  0.00    -0.062 Cl
ENDBRANCH  29  30
ENDBRANCH  28  29
ENDBRANCH  26  28
ENDBRANCH   2  26
TORSDOF 6
