REMARK  Name = CHEMBL563292
REMARK  8 active torsions:
REMARK  status: ('A' for Active; 'I' for Inactive)
REMARK    1  A    between atoms: C_4  and  O_7
REMARK    2  A    between atoms: O_7  and  C_8
REMARK    3  A    between atoms: C_13  and  N_14
REMARK    4  A    between atoms: N_17  and  C_18
REMARK    5  A    between atoms: C_22  and  C_24
REMARK    6  A    between atoms: C_31  and  C_34
REMARK    7  A    between atoms: C_37  and  C_40
REMARK    8  A    between atoms: C_40  and  N_41
REMARK                            x       y       z     vdW  Elec       q    Type
REMARK                         _______ _______ _______ _____ _____    ______ ____
ROOT
ATOM      1  C   UNL     1       9.439  -2.727  -0.159  0.00  0.00    +0.035 A 
ATOM      2  C   UNL     1       9.350  -4.110  -0.264  0.00  0.00    +0.023 A 
ATOM      3  C   UNL     1      10.496  -4.874  -0.367  0.00  0.00    +0.002 A 
ATOM      4  C   UNL     1      11.737  -4.269  -0.365  0.00  0.00    +0.009 A 
ATOM      5  C   UNL     1      11.837  -2.882  -0.260  0.00  0.00    -0.014 A 
ATOM      6  C   UNL     1      10.681  -2.111  -0.162  0.00  0.00    +0.032 A 
ENDROOT
BRANCH   5   7
ATOM      7  C   UNL     1      13.168  -2.231  -0.258  0.00  0.00    +0.009 A 
ATOM      8  C   UNL     1      13.558  -1.181  -1.021  0.00  0.00    +0.093 A 
ATOM      9  N   UNL     1      14.855  -0.860  -0.738  0.00  0.00    -0.345 N 
ATOM     10  H   UNL     1      15.353  -0.142  -1.159  0.00  0.00    +0.167 HD
ATOM     11  C   UNL     1      15.355  -1.701   0.229  0.00  0.00    +0.139 A 
ATOM     12  C   UNL     1      14.323  -2.593   0.578  0.00  0.00    +0.027 A 
ATOM     13  C   UNL     1      14.551  -3.564   1.550  0.00  0.00    +0.022 A 
ATOM     14  C   UNL     1      15.810  -3.609   2.147  0.00  0.00    +0.001 A 
ATOM     15  C   UNL     1      16.783  -2.689   1.751  0.00  0.00    +0.121 A 
ATOM     16  N   UNL     1      16.538  -1.789   0.825  0.00  0.00    -0.237 NA
BRANCH  14  17
ATOM     17  C   UNL     1      16.112  -4.621   3.189  0.00  0.00    -0.016 A 
ATOM     18  C   UNL     1      15.138  -5.539   3.576  0.00  0.00    +0.009 A 
ATOM     19  C   UNL     1      15.425  -6.478   4.546  0.00  0.00    +0.002 A 
ATOM     20  C   UNL     1      16.676  -6.509   5.134  0.00  0.00    -0.065 A 
ATOM     21  C   UNL     1      17.647  -5.600   4.755  0.00  0.00    +0.002 A 
ATOM     22  C   UNL     1      17.373  -4.660   3.781  0.00  0.00    +0.009 A 
BRANCH  20  23
ATOM     23  C   UNL     1      16.983  -7.536   6.194  0.00  0.00    -0.051 C 
BRANCH  23  24
ATOM     24  N   UNL     1      17.521  -8.747   5.560  0.00  0.00    +0.381 N 
ATOM     25  H   UNL     1      17.726  -9.435   6.269  0.00  0.00    -0.090 HD
ATOM     26  H   UNL     1      16.840  -9.121   4.916  0.00  0.00    -0.090 HD
ATOM     27  H   UNL     1      18.366  -8.518   5.060  0.00  0.00    -0.090 HD
ENDBRANCH  23  24
ENDBRANCH  20  23
ENDBRANCH  14  17
ENDBRANCH   5   7
BRANCH   1  31
ATOM     28  N   UNL     1       6.050  -1.745   0.618  0.00  0.00    -0.266 N 
ATOM     29  C   UNL     1       7.209  -2.434   0.615  0.00  0.00    +0.308 C 
ATOM     30  O   UNL     1       7.291  -3.487   1.218  0.00  0.00    -0.252 OA
ATOM     31  N   UNL     1       8.276  -1.956  -0.055  0.00  0.00    -0.269 N 
ATOM     32  H   UNL     1       6.002  -0.876   0.190  0.00  0.00    +0.156 HD
ATOM     33  H   UNL     1       8.237  -1.078  -0.465  0.00  0.00    +0.156 HD
BRANCH  28  39
ATOM     34  C   UNL     1       3.649  -2.040   0.713  0.00  0.00    +0.150 A 
ATOM     35  C   UNL     1       2.531  -2.579   1.328  0.00  0.00    +0.048 A 
ATOM     36  C   UNL     1       2.673  -3.353   2.465  0.00  0.00    +0.004 A 
ATOM     37  C   UNL     1       3.930  -3.591   2.991  0.00  0.00    +0.002 A 
ATOM     38  C   UNL     1       5.050  -3.057   2.383  0.00  0.00    +0.027 A 
ATOM     39  C   UNL     1       4.916  -2.284   1.239  0.00  0.00    +0.077 A 
BRANCH  34  40
ATOM     40  O   UNL     1       3.511  -1.279  -0.406  0.00  0.00    -0.454 OA
BRANCH  40  44
ATOM     41  C   UNL     1      -0.309  -0.357  -1.662  0.00  0.00    +0.000 A 
ATOM     42  C   UNL     1       0.165   0.149  -0.466  0.00  0.00    +0.004 A 
ATOM     43  C   UNL     1       1.444  -0.158  -0.043  0.00  0.00    +0.046 A 
ATOM     44  C   UNL     1       2.253  -0.976  -0.819  0.00  0.00    +0.129 A 
ATOM     45  C   UNL     1       1.774  -1.483  -2.019  0.00  0.00    +0.046 A 
ATOM     46  C   UNL     1       0.495  -1.172  -2.438  0.00  0.00    +0.004 A 
ENDBRANCH  40  44
ENDBRANCH  34  40
ENDBRANCH  28  39
ENDBRANCH   1  31
TORSDOF 8
