REMARK  Name = CHEMBL231620
REMARK  9 active torsions:
REMARK  status: ('A' for Active; 'I' for Inactive)
REMARK    1  A    between atoms: C_1  and  C_2
REMARK    2  A    between atoms: C_4  and  C_31
REMARK    3  A    between atoms: C_9  and  C_12
REMARK    4  A    between atoms: C_13  and  N_20
REMARK    5  A    between atoms: N_20  and  C_21
REMARK    6  A    between atoms: C_21  and  C_22
REMARK    7  A    between atoms: C_22  and  C_23
REMARK    8  A    between atoms: C_22  and  O_30
REMARK    9  A    between atoms: C_34  and  C_37
REMARK                            x       y       z     vdW  Elec       q    Type
REMARK                         _______ _______ _______ _____ _____    ______ ____
ROOT
ATOM      1  C   UNL     1       0.076  -1.353   4.758  0.00  0.00    +0.102 A 
ATOM      2  C   UNL     1       0.154  -0.134   5.447  0.00  0.00    +0.045 A 
ATOM      3  C   UNL     1       0.153  -0.150   6.855  0.00  0.00    +0.041 A 
ATOM      4  C   UNL     1       0.078  -1.326   7.516  0.00  0.00    +0.088 A 
ATOM      5  N   UNL     1       0.002  -2.507   6.848  0.00  0.00    -0.328 N 
ATOM      6  H   UNL     1      -0.052  -3.335   7.351  0.00  0.00    +0.168 HD
ATOM      7  C   UNL     1      -0.007  -2.551   5.503  0.00  0.00    +0.261 A 
ATOM      8  O   UNL     1      -0.081  -3.624   4.928  0.00  0.00    -0.267 OA
ENDROOT
BRANCH   1  17
ATOM      9  C   UNL     1      -0.049   1.498   0.009  0.00  0.00    +0.046 C 
ATOM     10  C   UNL     1       0.010  -0.008   0.001  0.00  0.00    -0.022 A 
ATOM     11  C   UNL     1       0.039  -0.682  -1.183  0.00  0.00    +0.017 A 
ATOM     12  C   UNL     1       0.094  -2.081  -1.204  0.00  0.00    +0.020 A 
ATOM     13  C   UNL     1       0.119  -2.798  -0.009  0.00  0.00    +0.039 A 
ATOM     14  C   UNL     1       0.090  -2.119   1.196  0.00  0.00    +0.067 A 
ATOM     15  C   UNL     1       0.041  -0.713   1.211  0.00  0.00    +0.092 A 
ATOM     16  N   UNL     1       0.029  -0.325   2.509  0.00  0.00    -0.227 NA
ATOM     17  C   UNL     1       0.073  -1.383   3.287  0.00  0.00    +0.146 A 
ATOM     18  N   UNL     1       0.103  -2.520   2.522  0.00  0.00    -0.338 N 
ATOM     19  H   UNL     1       0.137  -3.433   2.847  0.00  0.00    +0.167 HD
BRANCH  12  20
ATOM     20  C   UNL     1       0.125  -2.799  -2.495  0.00  0.00    +0.138 A 
ATOM     21  N   UNL     1       0.172  -4.153  -2.656  0.00  0.00    -0.342 N 
ATOM     22  H   UNL     1       0.192  -4.818  -1.950  0.00  0.00    +0.167 HD
ATOM     23  C   UNL     1       0.187  -4.396  -4.004  0.00  0.00    +0.033 A 
ATOM     24  C   UNL     1       0.148  -3.199  -4.622  0.00  0.00    +0.134 A 
ATOM     25  N   UNL     1       0.105  -2.242  -3.687  0.00  0.00    -0.236 NA
ATOM     26  C   UNL     1       0.237  -5.747  -4.670  0.00  0.00    +0.065 C 
ENDBRANCH  12  20
ENDBRANCH   1  17
BRANCH   2  27
ATOM     27  N   UNL     1       0.231   1.058   4.759  0.00  0.00    -0.340 N 
ATOM     28  H   UNL     1       0.152   1.066   3.793  0.00  0.00    +0.146 HD
BRANCH  27  29
ATOM     29  C   UNL     1       0.434   2.313   5.488  0.00  0.00    +0.137 C 
BRANCH  29  30
ATOM     30  C   UNL     1       0.482   3.477   4.496  0.00  0.00    +0.161 C 
BRANCH  30  31
ATOM     31  C   UNL     1       0.812   4.750   5.231  0.00  0.00    -0.016 A 
ATOM     32  C   UNL     1      -0.175   5.423   5.927  0.00  0.00    +0.006 A 
ATOM     33  C   UNL     1       0.127   6.591   6.602  0.00  0.00    +0.002 A 
ATOM     34  C   UNL     1       1.416   7.087   6.581  0.00  0.00    +0.020 A 
ATOM     35  C   UNL     1       2.405   6.415   5.885  0.00  0.00    +0.041 A 
ATOM     36  C   UNL     1       2.103   5.243   5.215  0.00  0.00    +0.026 A 
ATOM     37 CL   UNL     1       4.025   7.038   5.859  0.00  0.00    -0.084 Cl
ENDBRANCH  30  31
BRANCH  30  38
ATOM     38  O   UNL     1      -0.789   3.611   3.857  0.00  0.00    -0.386 OA
ATOM     39  H   UNL     1      -1.519   3.787   4.467  0.00  0.00    +0.210 HD
ENDBRANCH  30  38
ENDBRANCH  29  30
ENDBRANCH  27  29
ENDBRANCH   2  27
TORSDOF 7
