REMARK  Name = CHEMBL249296
REMARK  4 active torsions:
REMARK  status: ('A' for Active; 'I' for Inactive)
REMARK    1  A    between atoms: C_4  and  C_7
REMARK    2  A    between atoms: C_13  and  C_17
REMARK    3  A    between atoms: N_24  and  C_26
REMARK    4  A    between atoms: C_29  and  N_32
REMARK                            x       y       z     vdW  Elec       q    Type
REMARK                         _______ _______ _______ _____ _____    ______ ____
ROOT
ATOM      1  C   UNL     1       9.460  -1.862   0.335  0.00  0.00    +0.105 A 
ATOM      2  C   UNL     1      10.352  -2.905   0.842  0.00  0.00    +0.086 A 
ATOM      3  C   UNL     1      10.172  -4.120   1.524  0.00  0.00    +0.131 A 
ATOM      4  N   UNL     1      11.250  -4.833   1.836  0.00  0.00    -0.220 NA
ATOM      5  C   UNL     1      12.462  -4.414   1.516  0.00  0.00    +0.225 A 
ATOM      6  N   UNL     1      12.678  -3.285   0.879  0.00  0.00    -0.216 NA
ATOM      7  C   UNL     1      11.661  -2.500   0.522  0.00  0.00    +0.164 A 
ATOM      8  N   UNL     1      11.559  -1.306  -0.127  0.00  0.00    -0.243 N 
ATOM      9  N   UNL     1      10.210  -0.946  -0.231  0.00  0.00    -0.168 NA
ATOM     10  N   UNL     1       8.908  -4.563   1.861  0.00  0.00    -0.342 N 
ATOM     11  H   UNL     1       8.128  -4.173   1.436  0.00  0.00    +0.144 HD
ATOM     12  H   UNL     1       8.800  -5.263   2.524  0.00  0.00    +0.144 HD
ENDROOT
BRANCH   1  19
ATOM     13  C   UNL     1       3.872  -2.268   2.293  0.00  0.00    +0.139 A 
ATOM     14  N   UNL     1       3.889  -1.881   0.980  0.00  0.00    -0.338 N 
ATOM     15  H   UNL     1       3.115  -1.694   0.425  0.00  0.00    +0.167 HD
ATOM     16  C   UNL     1       5.212  -1.807   0.592  0.00  0.00    +0.067 A 
ATOM     17  C   UNL     1       5.847  -1.475  -0.599  0.00  0.00    +0.028 A 
ATOM     18  C   UNL     1       7.210  -1.494  -0.677  0.00  0.00    +0.012 A 
ATOM     19  C   UNL     1       7.981  -1.846   0.436  0.00  0.00    +0.005 A 
ATOM     20  C   UNL     1       7.366  -2.180   1.634  0.00  0.00    +0.040 A 
ATOM     21  C   UNL     1       5.972  -2.163   1.721  0.00  0.00    +0.090 A 
ATOM     22  N   UNL     1       5.099  -2.426   2.724  0.00  0.00    -0.228 NA
BRANCH  13  26
ATOM     23  C   UNL     1       0.368  -2.847   4.624  0.00  0.00    +0.000 A 
ATOM     24  C   UNL     1       1.614  -3.047   5.192  0.00  0.00    +0.001 A 
ATOM     25  C   UNL     1       2.756  -2.860   4.440  0.00  0.00    +0.011 A 
ATOM     26  C   UNL     1       2.652  -2.470   3.104  0.00  0.00    +0.017 A 
ATOM     27  C   UNL     1       1.393  -2.270   2.538  0.00  0.00    +0.011 A 
ATOM     28  C   UNL     1       0.259  -2.460   3.300  0.00  0.00    +0.001 A 
ENDBRANCH  13  26
ENDBRANCH   1  19
BRANCH   8  29
ATOM     29  C   UNL     1      12.685  -0.522  -0.641  0.00  0.00    +0.109 C 
ATOM     30  C   UNL     1      12.699   0.852   0.031  0.00  0.00    +0.025 C 
ATOM     31  C   UNL     1      13.876   1.670  -0.506  0.00  0.00    -0.013 C 
ATOM     32  C   UNL     1      13.728   1.843  -2.019  0.00  0.00    -0.068 C 
ATOM     33  C   UNL     1      13.713   0.469  -2.691  0.00  0.00    -0.013 C 
ATOM     34  C   UNL     1      12.537  -0.349  -2.154  0.00  0.00    +0.025 C 
BRANCH  32  35
ATOM     35  N   UNL     1      14.857   2.628  -2.534  0.00  0.00    +0.385 N 
ATOM     36  C   UNL     1      14.871   3.949  -1.890  0.00  0.00    -0.050 C 
ATOM     37  C   UNL     1      16.049   4.765  -2.428  0.00  0.00    +0.141 C 
ATOM     38  O   UNL     1      15.935   4.875  -3.850  0.00  0.00    -0.383 OA
ATOM     39  C   UNL     1      15.894   3.613  -4.522  0.00  0.00    +0.141 C 
ATOM     40  C   UNL     1      14.716   2.795  -3.987  0.00  0.00    -0.050 C 
ATOM     41  H   UNL     1      15.721   2.147  -2.333  0.00  0.00    -0.081 HD
ENDBRANCH  32  35
ENDBRANCH   8  29
TORSDOF 4
