REMARK  Name = CHEMBL468671
REMARK  12 active torsions:
REMARK  status: ('A' for Active; 'I' for Inactive)
REMARK    1  A    between atoms: C_1  and  C_2
REMARK    2  A    between atoms: C_4  and  C_32
REMARK    3  A    between atoms: C_9  and  C_12
REMARK    4  A    between atoms: C_13  and  N_20
REMARK    5  A    between atoms: N_20  and  C_21
REMARK    6  A    between atoms: C_21  and  C_22
REMARK    7  A    between atoms: C_22  and  C_24
REMARK    8  A    between atoms: C_22  and  O_31
REMARK    9  A    between atoms: N_35  and  C_38
REMARK   10  A    between atoms: C_38  and  C_39
REMARK   11  A    between atoms: C_39  and  O_40
REMARK   12  A    between atoms: O_40  and  C_41
REMARK                            x       y       z     vdW  Elec       q    Type
REMARK                         _______ _______ _______ _____ _____    ______ ____
ROOT
ATOM      1  C   UNL     1      -0.032   1.499   0.009  0.00  0.00    +0.046 C 
ATOM      2  C   UNL     1       0.016  -0.008   0.001  0.00  0.00    -0.023 A 
ATOM      3  C   UNL     1       0.040  -0.692  -1.193  0.00  0.00    +0.009 A 
ATOM      4  C   UNL     1       0.085  -2.078  -1.210  0.00  0.00    -0.042 A 
ATOM      5  C   UNL     1       0.105  -2.792  -0.029  0.00  0.00    +0.031 A 
ATOM      6  C   UNL     1       0.082  -2.120   1.184  0.00  0.00    +0.067 A 
ATOM      7  C   UNL     1       0.043  -0.715   1.207  0.00  0.00    +0.092 A 
ATOM      8  N   UNL     1       0.034  -0.334   2.509  0.00  0.00    -0.227 NA
ATOM      9  C   UNL     1       0.071  -1.397   3.279  0.00  0.00    +0.146 A 
ATOM     10  N   UNL     1       0.093  -2.528   2.506  0.00  0.00    -0.338 N 
ATOM     11  H   UNL     1       0.121  -3.444   2.825  0.00  0.00    +0.167 HD
ENDROOT
BRANCH   9  12
ATOM     12  C   UNL     1       0.074  -1.377   4.751  0.00  0.00    +0.102 A 
ATOM     13  C   UNL     1       0.160  -0.164   5.449  0.00  0.00    +0.045 A 
ATOM     14  C   UNL     1       0.160  -0.190   6.856  0.00  0.00    +0.041 A 
ATOM     15  C   UNL     1       0.078  -1.369   7.509  0.00  0.00    +0.088 A 
ATOM     16  N   UNL     1      -0.004  -2.546   6.833  0.00  0.00    -0.328 N 
ATOM     17  H   UNL     1      -0.062  -3.377   7.330  0.00  0.00    +0.168 HD
ATOM     18  C   UNL     1      -0.014  -2.580   5.488  0.00  0.00    +0.261 A 
ATOM     19  O   UNL     1      -0.095  -3.648   4.904  0.00  0.00    -0.267 OA
BRANCH  13  20
ATOM     20  N   UNL     1       0.243   1.033   4.769  0.00  0.00    -0.340 N 
ATOM     21  H   UNL     1       0.164   1.048   3.802  0.00  0.00    +0.146 HD
BRANCH  20  22
ATOM     22  C   UNL     1       0.452   2.281   5.506  0.00  0.00    +0.137 C 
BRANCH  22  23
ATOM     23  C   UNL     1       0.506   3.452   4.522  0.00  0.00    +0.161 C 
BRANCH  23  24
ATOM     24  C   UNL     1       0.843   4.718   5.266  0.00  0.00    -0.016 A 
ATOM     25  C   UNL     1      -0.142   5.391   5.966  0.00  0.00    +0.006 A 
ATOM     26  C   UNL     1       0.166   6.553   6.649  0.00  0.00    +0.002 A 
ATOM     27  C   UNL     1       1.458   7.043   6.632  0.00  0.00    +0.020 A 
ATOM     28  C   UNL     1       2.444   6.371   5.931  0.00  0.00    +0.041 A 
ATOM     29  C   UNL     1       2.136   5.204   5.253  0.00  0.00    +0.026 A 
ATOM     30 CL   UNL     1       4.067   6.986   5.910  0.00  0.00    -0.084 Cl
ENDBRANCH  23  24
BRANCH  23  31
ATOM     31  O   UNL     1      -0.764   3.597   3.884  0.00  0.00    -0.386 OA
ATOM     32  H   UNL     1      -1.493   3.772   4.495  0.00  0.00    +0.210 HD
ENDBRANCH  23  31
ENDBRANCH  22  23
ENDBRANCH  20  22
ENDBRANCH  13  20
ENDBRANCH   9  12
BRANCH   4  33
ATOM     33  C   UNL     1       0.110  -2.810  -2.527  0.00  0.00    +0.016 C 
ATOM     34  C   UNL     1      -1.106  -3.737  -2.621  0.00  0.00    -0.011 C 
ATOM     35  C   UNL     1      -1.032  -4.535  -3.925  0.00  0.00    -0.078 C 
ATOM     36  N   UNL     1       0.198  -5.336  -3.943  0.00  0.00    +0.381 N 
ATOM     37  C   UNL     1       1.369  -4.451  -3.925  0.00  0.00    -0.078 C 
ATOM     38  C   UNL     1       1.387  -3.649  -2.622  0.00  0.00    -0.011 C 
ATOM     39  H   UNL     1       0.219  -5.936  -3.133  0.00  0.00    -0.082 HD
BRANCH  36  40
ATOM     40  C   UNL     1       0.226  -6.159  -5.160  0.00  0.00    -0.050 C 
BRANCH  40  41
ATOM     41  C   UNL     1       1.444  -7.085  -5.121  0.00  0.00    +0.141 C 
BRANCH  41  42
ATOM     42  O   UNL     1       1.304  -8.010  -4.041  0.00  0.00    -0.385 OA
ATOM     43  C   UNL     1       2.394  -8.926  -3.916  0.00  0.00    +0.193 C 
ENDBRANCH  41  42
ENDBRANCH  40  41
ENDBRANCH  36  40
ENDBRANCH   4  33
TORSDOF 10
