REMARK  Name = CHEMBL249082
REMARK  5 active torsions:
REMARK  status: ('A' for Active; 'I' for Inactive)
REMARK    1  A    between atoms: C_6  and  C_7
REMARK    2  A    between atoms: N_14  and  C_16
REMARK    3  A    between atoms: C_19  and  N_22
REMARK    4  A    between atoms: C_30  and  C_33
REMARK    5  A    between atoms: C_33  and  C_34
REMARK                            x       y       z     vdW  Elec       q    Type
REMARK                         _______ _______ _______ _____ _____    ______ ____
ROOT
ATOM      1  C   UNL     1      -1.137  -1.024   0.433  0.00  0.00    +0.105 A 
ATOM      2  C   UNL     1      -2.411  -0.547   0.971  0.00  0.00    +0.086 A 
ATOM      3  C   UNL     1      -2.827   0.596   1.673  0.00  0.00    +0.131 A 
ATOM      4  N   UNL     1      -4.109   0.696   2.013  0.00  0.00    -0.220 NA
ATOM      5  C   UNL     1      -4.973  -0.253   1.700  0.00  0.00    +0.225 A 
ATOM      6  N   UNL     1      -4.630  -1.339   1.044  0.00  0.00    -0.216 NA
ATOM      7  C   UNL     1      -3.368  -1.531   0.660  0.00  0.00    +0.164 A 
ATOM      8  N   UNL     1      -2.714  -2.520  -0.013  0.00  0.00    -0.243 N 
ATOM      9  N   UNL     1      -1.363  -2.182  -0.140  0.00  0.00    -0.168 NA
ATOM     10  N   UNL     1      -1.927   1.591   2.004  0.00  0.00    -0.342 N 
ATOM     11  H   UNL     1      -1.065   1.631   1.561  0.00  0.00    +0.144 HD
ATOM     12  H   UNL     1      -2.158   2.248   2.678  0.00  0.00    +0.144 HD
ENDROOT
BRANCH   1  18
ATOM     13  C   UNL     1       0.990  -0.248  -0.614  0.00  0.00    +0.012 A 
ATOM     14  C   UNL     1       2.194   0.394  -0.552  0.00  0.00    +0.028 A 
ATOM     15  C   UNL     1       2.613   0.977   0.636  0.00  0.00    +0.066 A 
ATOM     16  C   UNL     1       1.798   0.910   1.781  0.00  0.00    +0.090 A 
ATOM     17  C   UNL     1       0.569   0.254   1.712  0.00  0.00    +0.040 A 
ATOM     18  C   UNL     1       0.168  -0.324   0.515  0.00  0.00    +0.005 A 
ATOM     19  N   UNL     1       2.459   1.557   2.776  0.00  0.00    -0.232 NA
ATOM     20  C   UNL     1       3.595   2.005   2.326  0.00  0.00    +0.113 A 
ATOM     21  N   UNL     1       3.742   1.676   1.015  0.00  0.00    -0.342 N 
ATOM     22  H   UNL     1       4.500   1.893   0.449  0.00  0.00    +0.167 HD
BRANCH  20  23
ATOM     23  C   UNL     1       4.601   2.776   3.141  0.00  0.00    +0.109 C 
BRANCH  23  24
ATOM     24  C   UNL     1       3.934   3.980   3.755  0.00  0.00    -0.033 A 
ATOM     25  C   UNL     1       3.900   5.185   3.079  0.00  0.00    +0.011 A 
ATOM     26  C   UNL     1       3.292   6.248   3.660  0.00  0.00    +0.045 A 
ATOM     27  S   UNL     1       2.740   5.556   5.211  0.00  0.00    -0.105 S 
ATOM     28  C   UNL     1       3.353   3.895   4.977  0.00  0.00    +0.049 A 
ENDBRANCH  23  24
ENDBRANCH  20  23
ENDBRANCH   1  18
BRANCH   8  29
ATOM     29  C   UNL     1      -3.332  -3.745  -0.528  0.00  0.00    +0.110 C 
ATOM     30  C   UNL     1      -2.667  -4.962   0.118  0.00  0.00    +0.028 C 
ATOM     31  C   UNL     1      -3.313  -6.241  -0.420  0.00  0.00    +0.021 C 
ATOM     32  C   UNL     1      -3.130  -6.305  -1.938  0.00  0.00    +0.057 C 
ATOM     33  C   UNL     1      -3.795  -5.088  -2.583  0.00  0.00    +0.021 C 
ATOM     34  C   UNL     1      -3.149  -3.809  -2.046  0.00  0.00    +0.028 C 
BRANCH  32  35
ATOM     35  N   UNL     1      -3.750  -7.533  -2.454  0.00  0.00    -0.295 NA
ATOM     36  C   UNL     1      -3.195  -8.722  -1.791  0.00  0.00    +0.113 C 
ATOM     37  C   UNL     1      -3.909  -9.971  -2.315  0.00  0.00    +0.175 C 
ATOM     38  O   UNL     1      -3.773 -10.031  -3.737  0.00  0.00    -0.377 OA
ATOM     39  C   UNL     1      -4.303  -8.889  -4.415  0.00  0.00    +0.175 C 
ATOM     40  C   UNL     1      -3.594  -7.629  -3.913  0.00  0.00    +0.113 C 
ENDBRANCH  32  35
ENDBRANCH   8  29
TORSDOF 5
