REMARK  Name = CHEMBL551263
REMARK  5 active torsions:
REMARK  status: ('A' for Active; 'I' for Inactive)
REMARK    1  A    between atoms: C_1  and  N_2
REMARK    2  A    between atoms: N_5  and  C_8
REMARK    3  A    between atoms: C_10  and  C_12
REMARK    4  A    between atoms: C_13  and  C_28
REMARK    5  A    between atoms: C_19  and  C_22
REMARK                            x       y       z     vdW  Elec       q    Type
REMARK                         _______ _______ _______ _____ _____    ______ ____
ROOT
ATOM      1  C   UNL     1      -1.560  -5.785   4.169  0.00  0.00    -0.009 A 
ATOM      2  C   UNL     1      -2.134  -5.587   5.414  0.00  0.00    +0.008 A 
ATOM      3  C   UNL     1      -2.458  -6.681   6.235  0.00  0.00    +0.011 A 
ATOM      4  C   UNL     1      -2.217  -7.953   5.823  0.00  0.00    +0.011 A 
ATOM      5  C   UNL     1      -1.636  -8.186   4.565  0.00  0.00    +0.001 A 
ATOM      6  C   UNL     1      -1.308  -7.092   3.724  0.00  0.00    +0.076 A 
ATOM      7  N   UNL     1      -0.761  -7.313   2.524  0.00  0.00    -0.246 NA
ATOM      8  C   UNL     1      -0.519  -8.537   2.097  0.00  0.00    +0.072 A 
ATOM      9  C   UNL     1      -0.827  -9.661   2.880  0.00  0.00    +0.029 A 
ATOM     10  C   UNL     1      -1.375  -9.496   4.118  0.00  0.00    +0.012 A 
ENDROOT
BRANCH   2  11
ATOM     11  C   UNL     1      -2.407  -4.212   5.885  0.00  0.00    +0.100 A 
ATOM     12  C   UNL     1      -1.936  -3.631   7.056  0.00  0.00    +0.113 A 
ATOM     13  C   UNL     1      -1.119  -4.068   8.120  0.00  0.00    +0.142 A 
ATOM     14  N   UNL     1      -0.854  -3.243   9.116  0.00  0.00    -0.237 NA
ATOM     15  C   UNL     1      -1.345  -1.997   9.135  0.00  0.00    +0.131 A 
ATOM     16  C   UNL     1      -2.129  -1.532   8.145  0.00  0.00    +0.112 A 
ATOM     17  N   UNL     1      -2.441  -2.345   7.080  0.00  0.00    -0.301 N 
ATOM     18  C   UNL     1      -3.176  -2.186   5.965  0.00  0.00    +0.204 A 
ATOM     19  N   UNL     1      -3.151  -3.286   5.258  0.00  0.00    -0.235 NA
ATOM     20  N   UNL     1      -0.601  -5.352   8.121  0.00  0.00    -0.341 N 
ATOM     21  H   UNL     1      -0.697  -5.914   7.336  0.00  0.00    +0.144 HD
ATOM     22  H   UNL     1      -0.143  -5.690   8.906  0.00  0.00    +0.144 HD
ENDBRANCH   2  11
BRANCH   8  23
ATOM     23  C   UNL     1       0.090  -8.731   0.759  0.00  0.00    +0.000 A 
ATOM     24  C   UNL     1       0.347 -10.018   0.287  0.00  0.00    +0.010 A 
ATOM     25  C   UNL     1       0.914 -10.192  -0.959  0.00  0.00    +0.001 A 
ATOM     26  C   UNL     1       1.227  -9.093  -1.739  0.00  0.00    +0.000 A 
ATOM     27  C   UNL     1       0.974  -7.815  -1.276  0.00  0.00    +0.001 A 
ATOM     28  C   UNL     1       0.402  -7.628  -0.034  0.00  0.00    +0.010 A 
ENDBRANCH   8  23
BRANCH   1  31
ATOM     29  C   UNL     1      -0.486  -4.124   1.367  0.00  0.00    +0.058 C 
ATOM     30  C   UNL     1      -1.819  -4.687   1.884  0.00  0.00    +0.027 C 
ATOM     31  C   UNL     1      -1.215  -4.606   3.296  0.00  0.00    +0.025 C 
ATOM     32  C   UNL     1       0.165  -4.719   2.627  0.00  0.00    +0.027 C 
BRANCH  29  37
ATOM     33  C   UNL     1       0.325   1.329   0.202  0.00  0.00    -0.096 C 
ATOM     34  N   UNL     1       0.315  -0.140   0.202  0.00  0.00    +0.379 N 
ATOM     35  C   UNL     1      -1.071  -0.620   0.114  0.00  0.00    -0.064 C 
ATOM     36  C   UNL     1      -1.080  -2.150   0.095  0.00  0.00    +0.066 C 
ATOM     37  N   UNL     1      -0.445  -2.656   1.320  0.00  0.00    -0.303 NA
ATOM     38  C   UNL     1       0.935  -2.163   1.435  0.00  0.00    +0.066 C 
ATOM     39  C   UNL     1       0.928  -0.633   1.442  0.00  0.00    -0.064 C 
ATOM     40  H   UNL     1       0.839  -0.480  -0.591  0.00  0.00    -0.082 HD
ENDBRANCH  29  37
ENDBRANCH   1  31
TORSDOF 4
