REMARK  Name = CHEMBL1222709
REMARK  3 active torsions:
REMARK  status: ('A' for Active; 'I' for Inactive)
REMARK    1  A    between atoms: C_14  and  C_16
REMARK    2  A    between atoms: N_18  and  C_19
REMARK    3  A    between atoms: C_29  and  C_33
REMARK                            x       y       z     vdW  Elec       q    Type
REMARK                         _______ _______ _______ _____ _____    ______ ____
ROOT
ATOM      1  C   UNL     1      -0.003   1.377   0.013  0.00  0.00    +0.022 A 
ATOM      2  C   UNL     1       1.320   1.820  -0.000  0.00  0.00    +0.032 A 
ATOM      3  C   UNL     1       2.120   0.692  -0.013  0.00  0.00    +0.103 A 
ATOM      4  C   UNL     1       3.519   0.486  -0.030  0.00  0.00    +0.153 A 
ATOM      5  N   UNL     1       3.991  -0.749  -0.040  0.00  0.00    -0.198 NA
ATOM      6  C   UNL     1       3.176  -1.809  -0.034  0.00  0.00    +0.213 A 
ATOM      7  N   UNL     1       1.871  -1.684  -0.019  0.00  0.00    -0.264 N 
ATOM      8  N   UNL     1       1.288  -0.409  -0.008  0.00  0.00    -0.257 N 
ATOM      9  C   UNL     1       0.012   0.018   0.008  0.00  0.00    +0.111 A 
ATOM     10  N   UNL     1       3.730  -3.082  -0.045  0.00  0.00    -0.288 N 
ATOM     11  C   UNL     1       2.974  -4.348  -0.048  0.00  0.00    +0.109 C 
ATOM     12  C   UNL     1       3.939  -5.385  -0.673  0.00  0.00    +0.021 C 
ATOM     13  C   UNL     1       5.305  -4.928  -0.095  0.00  0.00    +0.033 C 
ATOM     14  C   UNL     1       5.167  -3.391  -0.063  0.00  0.00    +0.162 C 
ATOM     15  N   UNL     1       4.382   1.563  -0.036  0.00  0.00    -0.281 N 
ATOM     16  C   UNL     1       5.767   1.351  -0.053  0.00  0.00    +0.146 A 
ATOM     17  C   UNL     1       6.410   0.103  -0.070  0.00  0.00    +0.068 A 
ATOM     18  C   UNL     1       7.744   0.323  -0.084  0.00  0.00    +0.041 A 
ATOM     19  N   UNL     1       7.943   1.658  -0.075  0.00  0.00    -0.280 N 
ATOM     20  H   UNL     1       8.803   2.106  -0.082  0.00  0.00    +0.189 HD
ATOM     21  N   UNL     1       6.690   2.284  -0.061  0.00  0.00    -0.158 NA
ATOM     22  H   UNL     1       4.030   2.467  -0.029  0.00  0.00    +0.155 HD
ATOM     23  H   UNL     1       1.308  -2.475  -0.016  0.00  0.00    +0.190 HD
ENDROOT
BRANCH  14  24
ATOM     24  C   UNL     1       5.806  -2.791  -1.289  0.00  0.00    +0.238 C 
ATOM     25  O   UNL     1       5.131  -2.163  -2.078  0.00  0.00    -0.273 OA
ATOM     26  N   UNL     1       7.125  -2.952  -1.509  0.00  0.00    -0.283 N 
ATOM     27  H   UNL     1       7.678  -3.393  -0.845  0.00  0.00    +0.155 HD
BRANCH  26  28
ATOM     28  C   UNL     1       7.700  -2.482  -2.696  0.00  0.00    +0.052 A 
ATOM     29  C   UNL     1       7.235  -1.310  -3.291  0.00  0.00    +0.029 A 
ATOM     30  C   UNL     1       7.834  -0.884  -4.464  0.00  0.00    +0.061 A 
ATOM     31  C   UNL     1       8.868  -1.631  -5.005  0.00  0.00    +0.213 A 
ATOM     32  N   UNL     1       9.285  -2.737  -4.416  0.00  0.00    -0.226 NA
ATOM     33  C   UNL     1       8.744  -3.173  -3.295  0.00  0.00    +0.137 A 
ATOM     34  F   UNL     1       9.458  -1.223  -6.150  0.00  0.00    -0.184 F 
ENDBRANCH  26  28
ENDBRANCH  14  24
BRANCH  18  35
ATOM     35  C   UNL     1       8.818  -0.734  -0.104  0.00  0.00    +0.037 C 
ATOM     36  C   UNL     1      10.122  -0.429   0.635  0.00  0.00    +0.010 C 
ATOM     37  C   UNL     1      10.092  -0.431  -0.894  0.00  0.00    +0.010 C 
ENDBRANCH  18  35
TORSDOF 3
