REMARK  Name = CHEMBL1090353
REMARK  7 active torsions:
REMARK  status: ('A' for Active; 'I' for Inactive)
REMARK    1  A    between atoms: C_3  and  C_16
REMARK    2  A    between atoms: C_5  and  N_7
REMARK    3  A    between atoms: C_8  and  C_10
REMARK    4  A    between atoms: C_10  and  C_11
REMARK    5  A    between atoms: C_17  and  C_24
REMARK    6  A    between atoms: N_30  and  C_31
REMARK    7  A    between atoms: C_34  and  N_37
REMARK                            x       y       z     vdW  Elec       q    Type
REMARK                         _______ _______ _______ _____ _____    ______ ____
ROOT
ATOM      1  C   UNL     1       3.529   2.463   0.175  0.00  0.00    +0.100 A 
ATOM      2  C   UNL     1       3.635   3.728  -0.375  0.00  0.00    +0.100 A 
ATOM      3  N   UNL     1       4.842   4.273   0.081  0.00  0.00    -0.291 N 
ATOM      4  C   UNL     1       5.554   5.442  -0.060  0.00  0.00    +0.101 A 
ATOM      5  C   UNL     1       6.724   5.607   0.557  0.00  0.00    +0.067 A 
ATOM      6  S   UNL     1       6.908   4.054   1.420  0.00  0.00    -0.058 S 
ATOM      7  C   UNL     1       5.389   3.303   0.878  0.00  0.00    +0.178 A 
ATOM      8  N   UNL     1       4.616   2.254   0.932  0.00  0.00    -0.221 NA
ENDROOT
BRANCH   2   9
ATOM      9  C   UNL     1       2.665   4.377  -1.269  0.00  0.00    +0.095 A 
ATOM     10  C   UNL     1       2.596   5.777  -1.351  0.00  0.00    +0.050 A 
ATOM     11  C   UNL     1       1.669   6.340  -2.205  0.00  0.00    +0.116 A 
ATOM     12  N   UNL     1       0.877   5.550  -2.917  0.00  0.00    -0.223 NA
ATOM     13  C   UNL     1       0.962   4.231  -2.822  0.00  0.00    +0.220 A 
ATOM     14  N   UNL     1       1.839   3.645  -2.021  0.00  0.00    -0.213 NA
ATOM     15  N   UNL     1       0.115   3.444  -3.584  0.00  0.00    -0.284 N 
ATOM     16  H   UNL     1       0.113   2.481  -3.470  0.00  0.00    +0.155 HD
BRANCH  15  17
ATOM     17  C   UNL     1      -0.739   4.039  -4.522  0.00  0.00    +0.034 A 
ATOM     18  C   UNL     1      -0.338   5.183  -5.198  0.00  0.00    +0.025 A 
ATOM     19  C   UNL     1      -1.180   5.770  -6.122  0.00  0.00    +0.025 A 
ATOM     20  C   UNL     1      -2.428   5.215  -6.375  0.00  0.00    +0.030 A 
ATOM     21  C   UNL     1      -2.829   4.071  -5.699  0.00  0.00    +0.025 A 
ATOM     22  C   UNL     1      -1.984   3.481  -4.779  0.00  0.00    +0.025 A 
BRANCH  20  23
ATOM     23  N   UNL     1      -3.281   5.810  -7.311  0.00  0.00    -0.326 N 
ATOM     24  C   UNL     1      -4.655   5.319  -7.503  0.00  0.00    +0.133 C 
ATOM     25  C   UNL     1      -5.611   6.516  -7.428  0.00  0.00    +0.178 C 
ATOM     26  O   UNL     1      -5.167   7.530  -8.333  0.00  0.00    -0.377 OA
ATOM     27  C   UNL     1      -3.876   8.062  -8.027  0.00  0.00    +0.178 C 
ATOM     28  C   UNL     1      -2.833   6.949  -8.129  0.00  0.00    +0.133 C 
ENDBRANCH  20  23
ENDBRANCH  15  17
ENDBRANCH   2   9
BRANCH   1  31
ATOM     29  C   UNL     1       0.068   1.097  -0.365  0.00  0.00    +0.002 A 
ATOM     30  C   UNL     1       1.107   1.985  -0.172  0.00  0.00    +0.010 A 
ATOM     31  C   UNL     1       2.411   1.512  -0.031  0.00  0.00    +0.004 A 
ATOM     32  C   UNL     1       2.661   0.142  -0.085  0.00  0.00    +0.033 A 
ATOM     33  C   UNL     1       1.611  -0.743  -0.278  0.00  0.00    +0.034 A 
ATOM     34  C   UNL     1       0.314  -0.262  -0.418  0.00  0.00    +0.023 A 
BRANCH  33  35
ATOM     35  N   UNL     1       1.856  -2.119  -0.333  0.00  0.00    -0.285 N 
ATOM     36  C   UNL     1       2.989  -2.580  -0.899  0.00  0.00    +0.217 C 
ATOM     37  O   UNL     1       3.834  -1.800  -1.285  0.00  0.00    -0.275 OA
ATOM     38  H   UNL     1       1.211  -2.742   0.037  0.00  0.00    +0.155 HD
BRANCH  36  39
ATOM     39  C   UNL     1       3.205  -4.063  -1.054  0.00  0.00    +0.099 C 
BRANCH  39  40
ATOM     40  C   UNL     1       4.559  -4.315  -1.721  0.00  0.00    -0.002 C 
ATOM     41  C   UNL     1       4.527  -3.822  -3.183  0.00  0.00    +0.004 C 
ATOM     42  C   UNL     1       5.372  -4.867  -3.954  0.00  0.00    +0.000 C 
ATOM     43  C   UNL     1       4.983  -6.198  -3.263  0.00  0.00    +0.000 C 
ATOM     44  C   UNL     1       4.849  -5.825  -1.772  0.00  0.00    +0.004 C 
ENDBRANCH  39  40
ENDBRANCH  36  39
ENDBRANCH  33  35
ENDBRANCH   1  31
TORSDOF 7
