REMARK  Name = CHEMBL1090354
REMARK  6 active torsions:
REMARK  status: ('A' for Active; 'I' for Inactive)
REMARK    1  A    between atoms: C_4  and  N_7
REMARK    2  A    between atoms: N_10  and  C_11
REMARK    3  A    between atoms: C_15  and  C_17
REMARK    4  A    between atoms: C_18  and  C_25
REMARK    5  A    between atoms: N_31  and  C_32
REMARK    6  A    between atoms: C_35  and  N_38
REMARK                            x       y       z     vdW  Elec       q    Type
REMARK                         _______ _______ _______ _____ _____    ______ ____
ROOT
ATOM      1  C   UNL     1       7.524  -6.809   0.118  0.00  0.00    +0.100 A 
ATOM      2  C   UNL     1       7.792  -8.010   0.751  0.00  0.00    +0.100 A 
ATOM      3  N   UNL     1       9.136  -8.314   0.502  0.00  0.00    -0.291 N 
ATOM      4  C   UNL     1      10.034  -9.310   0.811  0.00  0.00    +0.101 A 
ATOM      5  C   UNL     1      11.292  -9.255   0.374  0.00  0.00    +0.067 A 
ATOM      6  S   UNL     1      11.296  -7.724  -0.546  0.00  0.00    -0.058 S 
ATOM      7  C   UNL     1       9.596  -7.278  -0.267  0.00  0.00    +0.178 A 
ATOM      8  N   UNL     1       8.651  -6.408  -0.491  0.00  0.00    -0.221 NA
ENDROOT
BRANCH   2   9
ATOM      9  C   UNL     1       6.845  -8.814   1.538  0.00  0.00    +0.095 A 
ATOM     10  C   UNL     1       7.039 -10.196   1.693  0.00  0.00    +0.050 A 
ATOM     11  C   UNL     1       6.123 -10.908   2.440  0.00  0.00    +0.116 A 
ATOM     12  N   UNL     1       5.095 -10.272   2.986  0.00  0.00    -0.223 NA
ATOM     13  C   UNL     1       4.934  -8.967   2.825  0.00  0.00    +0.220 A 
ATOM     14  N   UNL     1       5.789  -8.241   2.122  0.00  0.00    -0.213 NA
ATOM     15  N   UNL     1       3.846  -8.344   3.413  0.00  0.00    -0.284 N 
ATOM     16  H   UNL     1       3.670  -7.407   3.236  0.00  0.00    +0.155 HD
BRANCH  15  17
ATOM     17  C   UNL     1       2.998  -9.069   4.261  0.00  0.00    +0.034 A 
ATOM     18  C   UNL     1       3.515 -10.081   5.059  0.00  0.00    +0.025 A 
ATOM     19  C   UNL     1       2.680 -10.796   5.895  0.00  0.00    +0.025 A 
ATOM     20  C   UNL     1       1.324 -10.501   5.938  0.00  0.00    +0.030 A 
ATOM     21  C   UNL     1       0.807  -9.488   5.141  0.00  0.00    +0.025 A 
ATOM     22  C   UNL     1       1.643  -8.770   4.309  0.00  0.00    +0.025 A 
BRANCH  20  23
ATOM     23  N   UNL     1       0.477 -11.225   6.786  0.00  0.00    -0.326 N 
ATOM     24  C   UNL     1      -0.980 -11.023   6.754  0.00  0.00    +0.133 C 
ATOM     25  C   UNL     1      -1.656 -12.393   6.627  0.00  0.00    +0.178 C 
ATOM     26  O   UNL     1      -1.157 -13.260   7.649  0.00  0.00    -0.377 OA
ATOM     27  C   UNL     1       0.245 -13.524   7.560  0.00  0.00    +0.178 C 
ATOM     28  C   UNL     1       1.018 -12.216   7.730  0.00  0.00    +0.133 C 
ENDBRANCH  20  23
ENDBRANCH  15  17
ENDBRANCH   2   9
BRANCH   1  33
ATOM     29  C   UNL     1       4.971  -4.045   0.105  0.00  0.00    +0.035 A 
ATOM     30  C   UNL     1       3.788  -4.773   0.089  0.00  0.00    +0.023 A 
ATOM     31  C   UNL     1       3.822  -6.155   0.083  0.00  0.00    +0.002 A 
ATOM     32  C   UNL     1       5.032  -6.820   0.092  0.00  0.00    +0.010 A 
ATOM     33  C   UNL     1       6.225  -6.098   0.107  0.00  0.00    +0.004 A 
ATOM     34  C   UNL     1       6.191  -4.704   0.108  0.00  0.00    +0.033 A 
BRANCH  29  38
ATOM     35  N   UNL     1       3.838  -0.661   0.671  0.00  0.00    -0.269 N 
ATOM     36  C   UNL     1       3.935  -2.003   0.751  0.00  0.00    +0.308 C 
ATOM     37  O   UNL     1       3.123  -2.633   1.400  0.00  0.00    -0.252 OA
ATOM     38  N   UNL     1       4.932  -2.646   0.112  0.00  0.00    -0.269 N 
ATOM     39  H   UNL     1       4.440  -0.165   0.094  0.00  0.00    +0.156 HD
ATOM     40  H   UNL     1       5.623  -2.139  -0.344  0.00  0.00    +0.156 HD
BRANCH  35  44
ATOM     41  C   UNL     1       0.957   1.357   2.903  0.00  0.00    +0.000 A 
ATOM     42  C   UNL     1       1.545   0.212   3.409  0.00  0.00    +0.002 A 
ATOM     43  C   UNL     1       2.500  -0.459   2.671  0.00  0.00    +0.023 A 
ATOM     44  C   UNL     1       2.870   0.017   1.420  0.00  0.00    +0.035 A 
ATOM     45  C   UNL     1       2.278   1.166   0.915  0.00  0.00    +0.023 A 
ATOM     46  C   UNL     1       1.323   1.833   1.657  0.00  0.00    +0.002 A 
ENDBRANCH  35  44
ENDBRANCH  29  38
ENDBRANCH   1  33
TORSDOF 6
