REMARK  Name = CHEMBL1098120
REMARK  12 active torsions:
REMARK  status: ('A' for Active; 'I' for Inactive)
REMARK    1  A    between atoms: C_4  and  C_7
REMARK    2  A    between atoms: C_7  and  C_8
REMARK    3  A    between atoms: C_8  and  C_9
REMARK    4  A    between atoms: C_9  and  C_10
REMARK    5  A    between atoms: C_10  and  C_11
REMARK    6  A    between atoms: C_11  and  N_12
REMARK    7  A    between atoms: C_16  and  O_26
REMARK    8  A    between atoms: C_23  and  N_25
REMARK    9  A    between atoms: O_26  and  C_27
REMARK   10  A    between atoms: C_27  and  C_28
REMARK   11  A    between atoms: C_28  and  C_29
REMARK   12  A    between atoms: C_32  and  O_35
REMARK                            x       y       z     vdW  Elec       q    Type
REMARK                         _______ _______ _______ _____ _____    ______ ____
ROOT
ATOM      1  N   UNL     1       7.743  -2.958   4.175  0.00  0.00    -0.344 N 
ATOM      2  C   UNL     1       8.528  -2.102   4.921  0.00  0.00    +0.050 A 
ATOM      3  C   UNL     1       9.104  -0.864   4.657  0.00  0.00    +0.030 A 
ATOM      4  C   UNL     1       9.855  -0.234   5.623  0.00  0.00    +0.048 A 
ATOM      5  C   UNL     1      10.048  -0.825   6.869  0.00  0.00    +0.121 A 
ATOM      6  C   UNL     1       9.485  -2.053   7.151  0.00  0.00    +0.056 A 
ATOM      7  C   UNL     1       8.720  -2.703   6.179  0.00  0.00    +0.007 A 
ATOM      8  C   UNL     1       8.000  -3.971   6.130  0.00  0.00    -0.020 A 
ATOM      9  C   UNL     1       7.433  -4.066   4.913  0.00  0.00    +0.023 A 
ATOM     10  C   UNL     1       6.590  -5.240   4.470  0.00  0.00    +0.052 C 
ATOM     11  C   UNL     1       6.158  -6.026   5.713  0.00  0.00    -0.010 C 
ATOM     12  C   UNL     1       7.382  -6.315   6.587  0.00  0.00    -0.070 C 
ATOM     13  C   UNL     1       7.882  -5.011   7.215  0.00  0.00    +0.021 C 
ENDROOT
BRANCH  12  14
ATOM     14  N   UNL     1       7.015  -7.263   7.646  0.00  0.00    +0.380 N 
ATOM     15  H   UNL     1       6.688  -8.123   7.231  0.00  0.00    -0.090 HD
ATOM     16  H   UNL     1       7.822  -7.454   8.222  0.00  0.00    -0.090 HD
ATOM     17  H   UNL     1       6.283  -6.865   8.215  0.00  0.00    -0.090 HD
ENDBRANCH  12  14
BRANCH   1  18
ATOM     18  C   UNL     1       7.302  -2.713   2.800  0.00  0.00    +0.122 C 
BRANCH  18  19
ATOM     19  C   UNL     1       5.967  -1.966   2.818  0.00  0.00    +0.022 C 
BRANCH  19  20
ATOM     20  C   UNL     1       5.507  -1.710   1.381  0.00  0.00    +0.002 C 
BRANCH  20  21
ATOM     21  C   UNL     1       4.171  -0.963   1.399  0.00  0.00    +0.005 C 
BRANCH  21  22
ATOM     22  C   UNL     1       3.711  -0.707  -0.038  0.00  0.00    +0.035 C 
BRANCH  22  26
ATOM     23  C   UNL     1      -0.017   1.378   0.010  0.00  0.00    +0.000 A 
ATOM     24  C   UNL     1       1.171   2.086   0.002  0.00  0.00    +0.000 A 
ATOM     25  C   UNL     1       2.377   1.411  -0.013  0.00  0.00    +0.003 A 
ATOM     26  C   UNL     1       2.396   0.029  -0.020  0.00  0.00    -0.047 A 
ATOM     27  C   UNL     1       1.208  -0.679  -0.012  0.00  0.00    +0.003 A 
ATOM     28  C   UNL     1       0.002  -0.004   0.002  0.00  0.00    +0.000 A 
ENDBRANCH  22  26
ENDBRANCH  21  22
ENDBRANCH  20  21
ENDBRANCH  19  20
ENDBRANCH  18  19
ENDBRANCH   1  18
BRANCH   5  29
ATOM     29  O   UNL     1      10.793  -0.189   7.812  0.00  0.00    -0.492 OA
BRANCH  29  30
ATOM     30  C   UNL     1      11.346   1.079   7.455  0.00  0.00    +0.233 C 
BRANCH  30  31
ATOM     31  C   UNL     1      12.146   1.637   8.634  0.00  0.00    +0.076 C 
BRANCH  31  32
ATOM     32  C   UNL     1      12.730   2.974   8.258  0.00  0.00    -0.044 A 
ATOM     33  C   UNL     1      13.980   3.041   7.670  0.00  0.00    +0.007 A 
ATOM     34  C   UNL     1      14.517   4.266   7.324  0.00  0.00    +0.045 A 
ATOM     35  C   UNL     1      13.802   5.429   7.567  0.00  0.00    +0.117 A 
ATOM     36  C   UNL     1      12.548   5.360   8.156  0.00  0.00    +0.045 A 
ATOM     37  C   UNL     1      12.013   4.132   8.495  0.00  0.00    +0.007 A 
BRANCH  35  38
ATOM     38  O   UNL     1      14.329   6.635   7.228  0.00  0.00    -0.507 OA
ATOM     39  H   UNL     1      14.109   6.923   6.331  0.00  0.00    +0.292 HD
ENDBRANCH  35  38
ENDBRANCH  31  32
ENDBRANCH  30  31
ENDBRANCH  29  30
ENDBRANCH   5  29
TORSDOF 12
