REMARK  Name = CHEMBL458437
REMARK  9 active torsions:
REMARK  status: ('A' for Active; 'I' for Inactive)
REMARK    1  A    between atoms: C_1  and  C_2
REMARK    2  A    between atoms: C_2  and  C_3
REMARK    3  A    between atoms: C_2  and  N_4
REMARK    4  A    between atoms: N_7  and  C_10
REMARK    5  A    between atoms: C_13  and  N_18
REMARK    6  A    between atoms: C_14  and  O_16
REMARK    7  A    between atoms: O_16  and  C_17
REMARK    8  A    between atoms: C_27  and  N_29
REMARK    9  A    between atoms: N_29  and  C_30
REMARK                            x       y       z     vdW  Elec       q    Type
REMARK                         _______ _______ _______ _____ _____    ______ ____
ROOT
ATOM      1  N   UNL     1      -0.104  -5.068   8.029  0.00  0.00    -0.281 N 
ATOM      2  C   UNL     1       0.605  -6.239   8.237  0.00  0.00    +0.223 A 
ATOM      3  N   UNL     1       1.627  -6.514   7.444  0.00  0.00    -0.196 NA
ATOM      4  C   UNL     1       2.336  -7.630   7.611  0.00  0.00    +0.145 A 
ATOM      5  C   UNL     1       1.974  -8.510   8.648  0.00  0.00    +0.059 A 
ATOM      6  C   UNL     1       2.916  -9.626   8.585  0.00  0.00    +0.032 A 
ATOM      7  C   UNL     1       3.752  -9.371   7.565  0.00  0.00    +0.085 A 
ATOM      8  N   UNL     1       3.414  -8.179   6.974  0.00  0.00    -0.346 N 
ATOM      9  H   UNL     1       3.873  -7.785   6.216  0.00  0.00    +0.167 HD
ATOM     10  C   UNL     1       0.882  -8.178   9.466  0.00  0.00    +0.137 A 
ATOM     11  N   UNL     1       0.236  -7.041   9.229  0.00  0.00    -0.198 NA
ATOM     12  H   UNL     1      -0.796  -4.802   8.654  0.00  0.00    +0.155 HD
ENDROOT
BRANCH   1  16
ATOM     13  C   UNL     1       0.739  -2.681   4.707  0.00  0.00    +0.033 A 
ATOM     14  C   UNL     1       0.857  -4.062   4.621  0.00  0.00    +0.025 A 
ATOM     15  C   UNL     1       0.578  -4.851   5.720  0.00  0.00    +0.029 A 
ATOM     16  C   UNL     1       0.180  -4.266   6.913  0.00  0.00    +0.076 A 
ATOM     17  C   UNL     1       0.061  -2.880   7.002  0.00  0.00    +0.143 A 
ATOM     18  C   UNL     1       0.346  -2.091   5.901  0.00  0.00    +0.070 A 
BRANCH  13  22
ATOM     19  N   UNL     1       2.443  -0.252   1.823  0.00  0.00    +0.383 N 
ATOM     20  C   UNL     1       2.062   0.274   3.140  0.00  0.00    -0.059 C 
ATOM     21  C   UNL     1       0.791  -0.432   3.623  0.00  0.00    +0.086 C 
ATOM     22  N   UNL     1       1.023  -1.884   3.593  0.00  0.00    -0.333 N 
ATOM     23  C   UNL     1       1.562  -2.474   2.358  0.00  0.00    +0.086 C 
ATOM     24  C   UNL     1       2.797  -1.673   1.935  0.00  0.00    -0.059 C 
ATOM     25  H   UNL     1       1.668  -0.149   1.186  0.00  0.00    -0.081 HD
BRANCH  19  27
ATOM     26  C   UNL     1       3.988  -0.039  -0.065  0.00  0.00    -0.014 C 
ATOM     27  C   UNL     1       3.597   0.500   1.313  0.00  0.00    -0.075 C 
ATOM     28  C   UNL     1       3.230   1.980   1.195  0.00  0.00    -0.014 C 
ENDBRANCH  19  27
ENDBRANCH  13  22
BRANCH  17  29
ATOM     29  O   UNL     1      -0.329  -2.304   8.171  0.00  0.00    -0.493 OA
ATOM     30  C   UNL     1      -0.429  -0.879   8.189  0.00  0.00    +0.277 C 
ENDBRANCH  17  29
ENDBRANCH   1  16
BRANCH  10  31
ATOM     31  N   UNL     1       0.490  -9.013  10.498  0.00  0.00    -0.299 N 
ATOM     32  H   UNL     1       0.935  -9.866  10.627  0.00  0.00    +0.154 HD
BRANCH  31  33
ATOM     33  C   UNL     1      -0.546  -8.629  11.353  0.00  0.00    +0.033 A 
ATOM     34  C   UNL     1      -0.492  -8.976  12.708  0.00  0.00    +0.025 A 
ATOM     35  C   UNL     1      -1.485  -8.616  13.563  0.00  0.00    +0.030 A 
ATOM     36  C   UNL     1      -2.588  -7.882  13.090  0.00  0.00    +0.071 A 
ATOM     37  C   UNL     1      -2.649  -7.528  11.719  0.00  0.00    +0.002 A 
ATOM     38  C   UNL     1      -1.609  -7.907  10.856  0.00  0.00    +0.033 A 
ATOM     39  C   UNL     1      -3.756  -6.794  11.252  0.00  0.00    +0.011 A 
ATOM     40  C   UNL     1      -4.729  -6.455  12.148  0.00  0.00    +0.020 A 
ATOM     41  C   UNL     1      -4.608  -6.835  13.482  0.00  0.00    +0.111 A 
ATOM     42  N   UNL     1      -3.575  -7.518  13.914  0.00  0.00    -0.255 NA
ENDBRANCH  31  33
ENDBRANCH  10  31
TORSDOF 6
