REMARK  Name = CHEMBL458415
REMARK  9 active torsions:
REMARK  status: ('A' for Active; 'I' for Inactive)
REMARK    1  A    between atoms: C_1  and  N_2
REMARK    2  A    between atoms: N_2  and  C_3
REMARK    3  A    between atoms: N_2  and  C_4
REMARK    4  A    between atoms: C_4  and  C_5
REMARK    5  A    between atoms: C_13  and  N_18
REMARK    6  A    between atoms: C_14  and  O_16
REMARK    7  A    between atoms: O_16  and  C_17
REMARK    8  A    between atoms: N_18  and  C_19
REMARK    9  A    between atoms: C_27  and  N_29
REMARK                            x       y       z     vdW  Elec       q    Type
REMARK                         _______ _______ _______ _____ _____    ______ ____
ROOT
ATOM      1  N   UNL     1       7.224   1.579  -0.630  0.00  0.00    -0.175 NA
ENDROOT
BRANCH   1  10
ATOM      2  C   UNL     1       3.147  -1.916  -0.643  0.00  0.00    +0.203 C 
ATOM      3  O   UNL     1       3.649  -1.460   0.362  0.00  0.00    -0.277 OA
ATOM      4  N   UNL     1       3.611  -1.549  -1.854  0.00  0.00    -0.272 N 
ATOM      5  C   UNL     1       3.083  -2.026  -3.136  0.00  0.00    +0.118 C 
ATOM      6  C   UNL     1       3.935  -1.326  -4.208  0.00  0.00    +0.056 C 
ATOM      7  C   UNL     1       4.913  -0.478  -3.425  0.00  0.00    -0.021 A 
ATOM      8  C   UNL     1       4.663  -0.652  -2.073  0.00  0.00    +0.041 A 
ATOM      9  C   UNL     1       5.442   0.038  -1.143  0.00  0.00    +0.052 A 
ATOM     10  C   UNL     1       6.447   0.889  -1.569  0.00  0.00    +0.100 A 
ATOM     11  C   UNL     1       6.687   1.059  -2.931  0.00  0.00    +0.143 A 
ATOM     12  C   UNL     1       5.920   0.367  -3.853  0.00  0.00    +0.053 A 
BRANCH  11  13
ATOM     13  O   UNL     1       7.674   1.895  -3.352  0.00  0.00    -0.493 OA
ATOM     14  C   UNL     1       7.861   2.019  -4.763  0.00  0.00    +0.277 C 
ENDBRANCH  11  13
BRANCH   2  15
ATOM     15  C   UNL     1       2.004  -2.893  -0.538  0.00  0.00    +0.018 C 
BRANCH  15  17
ATOM     16  C   UNL     1       1.194  -1.884   1.481  0.00  0.00    -0.096 C 
ATOM     17  N   UNL     1       1.689  -3.128   0.877  0.00  0.00    +0.382 N 
ATOM     18  C   UNL     1       0.658  -4.169   0.983  0.00  0.00    -0.096 C 
ATOM     19  H   UNL     1       2.522  -3.429   1.362  0.00  0.00    -0.082 HD
ENDBRANCH  15  17
ENDBRANCH   2  15
ENDBRANCH   1  10
BRANCH   1  20
ATOM     20  C   UNL     1       6.623   2.156   0.477  0.00  0.00    +0.243 A 
ATOM     21  N   UNL     1       5.338   1.929   0.694  0.00  0.00    -0.195 NA
ATOM     22  C   UNL     1       4.723   2.464   1.747  0.00  0.00    +0.145 A 
ATOM     23  C   UNL     1       5.467   3.275   2.623  0.00  0.00    +0.059 A 
ATOM     24  C   UNL     1       4.538   3.712   3.665  0.00  0.00    +0.032 A 
ATOM     25  C   UNL     1       3.345   3.168   3.374  0.00  0.00    +0.085 A 
ATOM     26  N   UNL     1       3.443   2.419   2.228  0.00  0.00    -0.346 N 
ATOM     27  H   UNL     1       2.712   1.930   1.819  0.00  0.00    +0.167 HD
ATOM     28  C   UNL     1       6.828   3.488   2.355  0.00  0.00    +0.140 A 
ATOM     29  N   UNL     1       7.360   2.910   1.283  0.00  0.00    -0.197 NA
BRANCH  28  30
ATOM     30  N   UNL     1       7.599   4.279   3.190  0.00  0.00    -0.284 N 
ATOM     31  C   UNL     1       7.143   4.856   4.457  0.00  0.00    +0.117 C 
ATOM     32  C   UNL     1       8.349   5.639   5.000  0.00  0.00    +0.056 C 
ATOM     33  C   UNL     1       9.431   5.438   3.963  0.00  0.00    -0.025 A 
ATOM     34  C   UNL     1       8.928   4.638   2.950  0.00  0.00    +0.038 A 
ATOM     35  C   UNL     1       9.753   4.309   1.873  0.00  0.00    +0.024 A 
ATOM     36  C   UNL     1      11.051   4.771   1.825  0.00  0.00    +0.002 A 
ATOM     37  C   UNL     1      11.545   5.565   2.843  0.00  0.00    +0.000 A 
ATOM     38  C   UNL     1      10.731   5.903   3.909  0.00  0.00    +0.005 A 
ENDBRANCH  28  30
ENDBRANCH   1  20
TORSDOF 6
