REMARK  Name = CHEMBL480965
REMARK  9 active torsions:
REMARK  status: ('A' for Active; 'I' for Inactive)
REMARK    1  A    between atoms: C_1  and  C_2
REMARK    2  A    between atoms: C_4  and  N_32
REMARK    3  A    between atoms: C_9  and  C_12
REMARK    4  A    between atoms: C_13  and  N_20
REMARK    5  A    between atoms: N_20  and  C_21
REMARK    6  A    between atoms: C_21  and  C_22
REMARK    7  A    between atoms: C_22  and  C_24
REMARK    8  A    between atoms: C_22  and  O_31
REMARK    9  A    between atoms: C_35  and  N_38
REMARK                            x       y       z     vdW  Elec       q    Type
REMARK                         _______ _______ _______ _____ _____    ______ ____
ROOT
ATOM      1  C   UNL     1       0.171   1.071   0.181  0.00  0.00    +0.046 C 
ATOM      2  C   UNL     1       0.163  -0.436   0.212  0.00  0.00    -0.021 A 
ATOM      3  C   UNL     1       0.180  -1.144  -0.956  0.00  0.00    +0.028 A 
ATOM      4  C   UNL     1       0.173  -2.537  -0.941  0.00  0.00    +0.032 A 
ATOM      5  C   UNL     1       0.148  -3.223   0.263  0.00  0.00    +0.051 A 
ATOM      6  C   UNL     1       0.130  -2.516   1.456  0.00  0.00    +0.068 A 
ATOM      7  C   UNL     1       0.143  -1.110   1.438  0.00  0.00    +0.092 A 
ATOM      8  N   UNL     1       0.128  -0.691   2.729  0.00  0.00    -0.227 NA
ATOM      9  C   UNL     1       0.112  -1.731   3.530  0.00  0.00    +0.146 A 
ATOM     10  N   UNL     1       0.103  -2.886   2.788  0.00  0.00    -0.338 N 
ATOM     11  H   UNL     1       0.092  -3.792   3.134  0.00  0.00    +0.167 HD
ENDROOT
BRANCH   9  12
ATOM     12  C   UNL     1       0.094  -1.668   5.000  0.00  0.00    +0.102 A 
ATOM     13  C   UNL     1      -0.028  -0.438   5.661  0.00  0.00    +0.045 A 
ATOM     14  C   UNL     1      -0.042  -0.423   7.069  0.00  0.00    +0.041 A 
ATOM     15  C   UNL     1       0.061  -1.580   7.756  0.00  0.00    +0.088 A 
ATOM     16  N   UNL     1       0.180  -2.773   7.116  0.00  0.00    -0.328 N 
ATOM     17  H   UNL     1       0.252  -3.588   7.638  0.00  0.00    +0.168 HD
ATOM     18  C   UNL     1       0.193  -2.847   5.772  0.00  0.00    +0.261 A 
ATOM     19  O   UNL     1       0.295  -3.931   5.221  0.00  0.00    -0.267 OA
BRANCH  13  20
ATOM     20  N   UNL     1      -0.132   0.737   4.945  0.00  0.00    -0.340 N 
ATOM     21  H   UNL     1      -0.201   0.710   3.978  0.00  0.00    +0.146 HD
BRANCH  20  22
ATOM     22  C   UNL     1      -0.138   2.023   5.645  0.00  0.00    +0.137 C 
BRANCH  22  23
ATOM     23  C   UNL     1      -0.262   3.158   4.626  0.00  0.00    +0.161 C 
BRANCH  23  24
ATOM     24  C   UNL     1      -0.145   4.483   5.334  0.00  0.00    -0.016 A 
ATOM     25  C   UNL     1      -1.234   5.007   6.006  0.00  0.00    +0.006 A 
ATOM     26  C   UNL     1      -1.127   6.223   6.655  0.00  0.00    +0.002 A 
ATOM     27  C   UNL     1       0.068   6.916   6.632  0.00  0.00    +0.020 A 
ATOM     28  C   UNL     1       1.158   6.393   5.960  0.00  0.00    +0.041 A 
ATOM     29  C   UNL     1       1.053   5.173   5.315  0.00  0.00    +0.026 A 
ATOM     30 CL   UNL     1       2.660   7.263   5.930  0.00  0.00    -0.084 Cl
ENDBRANCH  23  24
BRANCH  23  31
ATOM     31  O   UNL     1      -1.531   3.076   3.975  0.00  0.00    -0.386 OA
ATOM     32  H   UNL     1      -2.287   3.147   4.575  0.00  0.00    +0.210 HD
ENDBRANCH  23  31
ENDBRANCH  22  23
ENDBRANCH  20  22
ENDBRANCH  13  20
ENDBRANCH   9  12
BRANCH   4  33
ATOM     33  N   UNL     1       0.191  -3.246  -2.146  0.00  0.00    -0.330 N 
ATOM     34  C   UNL     1       0.308  -4.710  -2.151  0.00  0.00    +0.103 C 
ATOM     35  C   UNL     1      -0.843  -5.295  -2.975  0.00  0.00    +0.004 C 
ATOM     36  C   UNL     1      -0.843  -4.659  -4.367  0.00  0.00    -0.066 C 
ATOM     37  C   UNL     1      -1.057  -3.149  -4.241  0.00  0.00    +0.004 C 
ATOM     38  C   UNL     1       0.086  -2.541  -3.431  0.00  0.00    +0.103 C 
BRANCH  36  39
ATOM     39  N   UNL     1      -1.926  -5.242  -5.171  0.00  0.00    +0.382 N 
ATOM     40  C   UNL     1      -1.886  -4.699  -6.554  0.00  0.00    -0.079 C 
ATOM     41  C   UNL     1      -2.652  -5.766  -7.375  0.00  0.00    -0.020 C 
ATOM     42  C   UNL     1      -2.211  -7.093  -6.716  0.00  0.00    -0.020 C 
ATOM     43  C   UNL     1      -1.733  -6.702  -5.305  0.00  0.00    -0.079 C 
ATOM     44  H   UNL     1      -2.820  -5.046  -4.746  0.00  0.00    -0.081 HD
ENDBRANCH  36  39
ENDBRANCH   4  33
TORSDOF 8
