REMARK  Name = CHEMBL373882
REMARK  15 active torsions:
REMARK  status: ('A' for Active; 'I' for Inactive)
REMARK    1  A    between atoms: C_1  and  N_2
REMARK    2  A    between atoms: C_7  and  C_9
REMARK    3  A    between atoms: C_14  and  O_15
REMARK    4  A    between atoms: O_15  and  C_16
REMARK    5  A    between atoms: C_20  and  C_22
REMARK    6  A    between atoms: N_24  and  C_25
REMARK    7  A    between atoms: C_27  and  C_39
REMARK    8  A    between atoms: C_30  and  N_31
REMARK    9  A    between atoms: N_31  and  C_32
REMARK   10  A    between atoms: N_31  and  C_33
REMARK   11  A    between atoms: C_33  and  C_34
REMARK   12  A    between atoms: C_34  and  C_35
REMARK   13  A    between atoms: C_35  and  N_36
REMARK   14  A    between atoms: N_36  and  C_37
REMARK   15  A    between atoms: N_36  and  C_38
REMARK                            x       y       z     vdW  Elec       q    Type
REMARK                         _______ _______ _______ _____ _____    ______ ____
ROOT
ATOM      1  C   UNL     1       3.084  -4.805  -5.171  0.00  0.00    +0.131 A 
ATOM      2  C   UNL     1       2.503  -6.029  -5.480  0.00  0.00    +0.049 A 
ATOM      3  C   UNL     1       2.600  -6.543  -6.758  0.00  0.00    +0.043 A 
ATOM      4  C   UNL     1       3.277  -5.842  -7.740  0.00  0.00    +0.136 A 
ATOM      5  C   UNL     1       3.864  -4.609  -7.438  0.00  0.00    +0.076 A 
ATOM      6  C   UNL     1       3.758  -4.091  -6.146  0.00  0.00    +0.062 A 
ATOM      7  F   UNL     1       3.371  -6.348  -8.989  0.00  0.00    -0.205 F 
ENDROOT
BRANCH   5   8
ATOM      8  C   UNL     1       4.588  -3.857  -8.482  0.00  0.00    +0.251 C 
ATOM      9  O   UNL     1       4.674  -4.309  -9.607  0.00  0.00    -0.270 OA
ATOM     10  N   UNL     1       5.152  -2.669  -8.187  0.00  0.00    -0.280 N 
ATOM     11  H   UNL     1       5.139  -2.338  -7.275  0.00  0.00    +0.155 HD
BRANCH  10  12
ATOM     12  C   UNL     1       5.758  -1.911  -9.198  0.00  0.00    +0.055 A 
ATOM     13  C   UNL     1       6.422  -2.544 -10.239  0.00  0.00    +0.037 A 
ATOM     14  C   UNL     1       7.019  -1.795 -11.235  0.00  0.00    +0.057 A 
ATOM     15  C   UNL     1       6.958  -0.414 -11.197  0.00  0.00    +0.014 A 
ATOM     16  C   UNL     1       6.299   0.225 -10.164  0.00  0.00    +0.025 A 
ATOM     17  C   UNL     1       5.691  -0.519  -9.164  0.00  0.00    +0.051 A 
BRANCH  14  18
ATOM     18  C   UNL     1       7.740  -2.485 -12.364  0.00  0.00    +0.417 C 
ATOM     19  F   UNL     1       6.843  -2.730 -13.409  0.00  0.00    -0.166 F 
ATOM     20  F   UNL     1       8.778  -1.668 -12.823  0.00  0.00    -0.166 F 
ATOM     21  F   UNL     1       8.267  -3.698 -11.908  0.00  0.00    -0.166 F 
ENDBRANCH  14  18
BRANCH  17  22
ATOM     22  N   UNL     1       5.018   0.126  -8.120  0.00  0.00    -0.332 N 
ATOM     23  C   UNL     1       3.590   0.428  -8.246  0.00  0.00    +0.129 C 
BRANCH  22  24
ATOM     24  C   UNL     1       5.742   0.499  -6.902  0.00  0.00    +0.103 C 
BRANCH  24  25
ATOM     25  C   UNL     1       6.316   1.908  -7.061  0.00  0.00    +0.000 C 
BRANCH  25  26
ATOM     26  C   UNL     1       7.071   2.297  -5.789  0.00  0.00    -0.078 C 
BRANCH  26  27
ATOM     27  N   UNL     1       7.622   3.651  -5.941  0.00  0.00    +0.376 N 
ATOM     28  C   UNL     1       8.244   4.071  -4.678  0.00  0.00    -0.097 C 
ATOM     29  C   UNL     1       8.632   3.651  -7.008  0.00  0.00    -0.097 C 
ATOM     30  H   UNL     1       6.880   4.291  -6.180  0.00  0.00    -0.083 HD
ENDBRANCH  26  27
ENDBRANCH  25  26
ENDBRANCH  24  25
ENDBRANCH  22  24
ENDBRANCH  17  22
ENDBRANCH  10  12
ENDBRANCH   5   8
BRANCH   1  31
ATOM     31  O   UNL     1       2.985  -4.305  -3.910  0.00  0.00    -0.437 OA
BRANCH  31  37
ATOM     32  C   UNL     1       3.769  -4.300  -1.659  0.00  0.00    +0.081 A 
ATOM     33  C   UNL     1       4.574  -4.884  -0.678  0.00  0.00    +0.018 A 
ATOM     34  C   UNL     1       5.339  -5.985  -1.024  0.00  0.00    +0.021 A 
ATOM     35  C   UNL     1       5.284  -6.471  -2.317  0.00  0.00    +0.114 A 
ATOM     36  N   UNL     1       4.516  -5.903  -3.227  0.00  0.00    -0.220 NA
ATOM     37  C   UNL     1       3.763  -4.853  -2.946  0.00  0.00    +0.231 A 
BRANCH  32  44
ATOM     38  C   UNL     1       1.363   0.154   1.742  0.00  0.00    +0.128 C 
ATOM     39  N   UNL     1       2.200  -1.008   1.433  0.00  0.00    -0.316 N 
ATOM     40  C   UNL     1       2.190  -1.548   0.163  0.00  0.00    +0.218 A 
ATOM     41  N   UNL     1       1.425  -1.009  -0.784  0.00  0.00    -0.203 NA
ATOM     42  C   UNL     1       1.414  -1.524  -2.001  0.00  0.00    +0.227 A 
ATOM     43  N   UNL     1       2.162  -2.576  -2.283  0.00  0.00    -0.216 NA
ATOM     44  C   UNL     1       2.931  -3.122  -1.342  0.00  0.00    +0.170 A 
ATOM     45  N   UNL     1       2.948  -2.602  -0.117  0.00  0.00    -0.195 NA
ATOM     46  H   UNL     1       2.760  -1.399   2.122  0.00  0.00    +0.149 HD
ENDBRANCH  32  44
ENDBRANCH  31  37
ENDBRANCH   1  31
TORSDOF 11
