REMARK  Name = CHEMBL507810
REMARK  9 active torsions:
REMARK  status: ('A' for Active; 'I' for Inactive)
REMARK    1  A    between atoms: C_1  and  O_2
REMARK    2  A    between atoms: O_2  and  C_3
REMARK    3  A    between atoms: C_8  and  N_9
REMARK    4  A    between atoms: C_18  and  N_20
REMARK    5  A    between atoms: N_20  and  C_21
REMARK    6  A    between atoms: C_26  and  C_27
REMARK    7  A    between atoms: C_34  and  C_36
REMARK    8  A    between atoms: C_36  and  C_37
REMARK    9  A    between atoms: C_37  and  N_38
REMARK                            x       y       z     vdW  Elec       q    Type
REMARK                         _______ _______ _______ _____ _____    ______ ____
ROOT
ATOM      1  N   UNL     1       0.104  -2.775  -0.110  0.00  0.00    -0.281 N 
ATOM      2  C   UNL     1       0.559  -4.065   0.109  0.00  0.00    +0.223 A 
ATOM      3  N   UNL     1       1.596  -4.500  -0.588  0.00  0.00    -0.196 NA
ATOM      4  C   UNL     1       2.065  -5.734  -0.408  0.00  0.00    +0.145 A 
ATOM      5  C   UNL     1       1.435  -6.564   0.538  0.00  0.00    +0.059 A 
ATOM      6  C   UNL     1       2.159  -7.834   0.513  0.00  0.00    +0.032 A 
ATOM      7  C   UNL     1       3.135  -7.707  -0.400  0.00  0.00    +0.085 A 
ATOM      8  N   UNL     1       3.089  -6.454  -0.959  0.00  0.00    -0.346 N 
ATOM      9  H   UNL     1       3.694  -6.128  -1.643  0.00  0.00    +0.167 HD
ATOM     10  C   UNL     1       0.339  -6.060   1.255  0.00  0.00    +0.137 A 
ATOM     11  N   UNL     1      -0.057  -4.815   1.014  0.00  0.00    -0.198 NA
ATOM     12  H   UNL     1      -0.594  -2.405   0.453  0.00  0.00    +0.155 HD
ENDROOT
BRANCH   1  18
ATOM     13  C   UNL     1       0.612  -0.614  -1.072  0.00  0.00    +0.142 A 
ATOM     14  C   UNL     1       1.160   0.141  -2.095  0.00  0.00    +0.053 A 
ATOM     15  C   UNL     1       1.738  -0.482  -3.187  0.00  0.00    -0.021 A 
ATOM     16  C   UNL     1       1.778  -1.865  -3.271  0.00  0.00    +0.041 A 
ATOM     17  C   UNL     1       1.226  -2.626  -2.239  0.00  0.00    +0.050 A 
ATOM     18  C   UNL     1       0.651  -2.005  -1.144  0.00  0.00    +0.078 A 
ATOM     19  N   UNL     1       2.403  -2.292  -4.449  0.00  0.00    -0.271 N 
ATOM     20  C   UNL     1       2.827  -1.133  -5.239  0.00  0.00    +0.118 C 
ATOM     21  C   UNL     1       2.396   0.094  -4.420  0.00  0.00    +0.056 C 
ATOM     22  C   UNL     1       2.587  -3.579  -4.804  0.00  0.00    +0.218 C 
ATOM     23  O   UNL     1       2.198  -4.470  -4.078  0.00  0.00    -0.275 OA
BRANCH  13  25
ATOM     24  C   UNL     1       0.040   1.429   0.005  0.00  0.00    +0.277 C 
ATOM     25  O   UNL     1       0.043  -0.001   0.001  0.00  0.00    -0.493 OA
ENDBRANCH  13  25
BRANCH  22  26
ATOM     26  C   UNL     1       3.276  -3.912  -6.102  0.00  0.00    +0.078 C 
BRANCH  26  27
ATOM     27  C   UNL     1       3.356  -5.431  -6.262  0.00  0.00    -0.069 C 
BRANCH  27  28
ATOM     28  N   UNL     1       4.028  -5.755  -7.527  0.00  0.00    +0.383 N 
ATOM     29  C   UNL     1       3.205  -5.289  -8.652  0.00  0.00    -0.050 C 
ATOM     30  C   UNL     1       3.908  -5.628  -9.970  0.00  0.00    +0.141 C 
ATOM     31  O   UNL     1       4.135  -7.039 -10.034  0.00  0.00    -0.383 OA
ATOM     32  C   UNL     1       4.912  -7.545  -8.945  0.00  0.00    +0.141 C 
ATOM     33  C   UNL     1       4.212  -7.210  -7.626  0.00  0.00    -0.050 C 
ATOM     34  H   UNL     1       4.928  -5.300  -7.557  0.00  0.00    -0.082 HD
ENDBRANCH  27  28
ENDBRANCH  26  27
ENDBRANCH  22  26
ENDBRANCH   1  18
BRANCH  10  35
ATOM     35  N   UNL     1      -0.311  -6.841   2.195  0.00  0.00    -0.298 N 
ATOM     36  H   UNL     1       0.040  -7.715   2.426  0.00  0.00    +0.154 HD
BRANCH  35  37
ATOM     37  C   UNL     1      -1.468  -6.372   2.809  0.00  0.00    +0.047 A 
ATOM     38  C   UNL     1      -2.257  -5.421   2.176  0.00  0.00    +0.024 A 
ATOM     39  C   UNL     1      -3.405  -4.955   2.786  0.00  0.00    +0.005 A 
ATOM     40  C   UNL     1      -3.780  -5.430   4.031  0.00  0.00    +0.039 A 
ATOM     41  C   UNL     1      -3.009  -6.375   4.678  0.00  0.00    +0.137 A 
ATOM     42  C   UNL     1      -1.846  -6.862   4.069  0.00  0.00    +0.093 A 
ATOM     43  F   UNL     1      -3.379  -6.835   5.894  0.00  0.00    -0.205 F 
BRANCH  42  44
ATOM     44  C   UNL     1      -1.021  -7.875   4.749  0.00  0.00    +0.246 C 
ATOM     45  O   UNL     1      -0.123  -7.529   5.494  0.00  0.00    -0.270 OA
ATOM     46  N   UNL     1      -1.260  -9.186   4.546  0.00  0.00    -0.325 N 
ATOM     47  H   UNL     1      -1.975  -9.462   3.952  0.00  0.00    +0.145 HD
ATOM     48  H   UNL     1      -0.717  -9.853   4.994  0.00  0.00    +0.145 HD
ENDBRANCH  42  44
ENDBRANCH  35  37
ENDBRANCH  10  35
TORSDOF 8
