REMARK  Name = CHEMBL476259
REMARK  10 active torsions:
REMARK  status: ('A' for Active; 'I' for Inactive)
REMARK    1  A    between atoms: C_1  and  C_2
REMARK    2  A    between atoms: C_2  and  C_3
REMARK    3  A    between atoms: C_3  and  N_4
REMARK    4  A    between atoms: C_7  and  C_10
REMARK    5  A    between atoms: C_13  and  N_18
REMARK    6  A    between atoms: C_14  and  O_16
REMARK    7  A    between atoms: O_16  and  C_17
REMARK    8  A    between atoms: C_27  and  N_29
REMARK    9  A    between atoms: N_29  and  C_30
REMARK   10  A    between atoms: C_35  and  C_36
REMARK                            x       y       z     vdW  Elec       q    Type
REMARK                         _______ _______ _______ _____ _____    ______ ____
ROOT
ATOM      1  N   UNL     1       0.572 -10.233   1.919  0.00  0.00    -0.281 N 
ATOM      2  C   UNL     1       1.509 -10.809   1.077  0.00  0.00    +0.223 A 
ATOM      3  N   UNL     1       2.393 -10.027   0.479  0.00  0.00    -0.196 NA
ATOM      4  C   UNL     1       3.311 -10.541  -0.338  0.00  0.00    +0.145 A 
ATOM      5  C   UNL     1       3.321 -11.931  -0.552  0.00  0.00    +0.059 A 
ATOM      6  C   UNL     1       4.421 -12.194  -1.479  0.00  0.00    +0.032 A 
ATOM      7  C   UNL     1       4.984 -11.008  -1.759  0.00  0.00    +0.085 A 
ATOM      8  N   UNL     1       4.329 -10.010  -1.082  0.00  0.00    -0.346 N 
ATOM      9  H   UNL     1       4.554  -9.068  -1.124  0.00  0.00    +0.167 HD
ATOM     10  C   UNL     1       2.365 -12.723   0.103  0.00  0.00    +0.137 A 
ATOM     11  N   UNL     1       1.489 -12.125   0.905  0.00  0.00    -0.198 NA
ATOM     12  H   UNL     1      -0.026 -10.796   2.437  0.00  0.00    +0.155 HD
ENDROOT
BRANCH   1  16
ATOM     13  C   UNL     1       0.317  -6.082   2.228  0.00  0.00    -0.041 A 
ATOM     14  C   UNL     1       0.833  -6.661   1.083  0.00  0.00    +0.006 A 
ATOM     15  C   UNL     1       0.919  -8.036   0.978  0.00  0.00    +0.027 A 
ATOM     16  C   UNL     1       0.486  -8.839   2.023  0.00  0.00    +0.076 A 
ATOM     17  C   UNL     1      -0.034  -8.255   3.177  0.00  0.00    +0.141 A 
ATOM     18  C   UNL     1      -0.111  -6.876   3.276  0.00  0.00    +0.051 A 
BRANCH  13  22
ATOM     19  N   UNL     1       0.670  -1.990   1.120  0.00  0.00    +0.380 N 
ATOM     20  C   UNL     1      -0.692  -2.512   1.286  0.00  0.00    -0.078 C 
ATOM     21  C   UNL     1      -0.668  -4.040   1.218  0.00  0.00    -0.011 C 
ATOM     22  C   UNL     1       0.227  -4.582   2.336  0.00  0.00    +0.016 C 
ATOM     23  C   UNL     1       1.625  -3.973   2.197  0.00  0.00    -0.011 C 
ATOM     24  C   UNL     1       1.517  -2.447   2.228  0.00  0.00    -0.078 C 
ATOM     25  H   UNL     1       1.052  -2.323   0.247  0.00  0.00    -0.082 HD
BRANCH  19  26
ATOM     26  C   UNL     1       0.633  -0.522   1.107  0.00  0.00    -0.079 C 
BRANCH  26  28
ATOM     27  C   UNL     1      -0.185   1.488  -0.132  0.00  0.00    +0.002 C 
ATOM     28  C   UNL     1      -0.146  -0.042  -0.119  0.00  0.00    -0.022 C 
ENDBRANCH  26  28
ENDBRANCH  19  26
ENDBRANCH  13  22
BRANCH  17  29
ATOM     29  O   UNL     1      -0.460  -9.038   4.204  0.00  0.00    -0.493 OA
ATOM     30  C   UNL     1      -0.981  -8.370   5.355  0.00  0.00    +0.277 C 
ENDBRANCH  17  29
ENDBRANCH   1  16
BRANCH  10  31
ATOM     31  N   UNL     1       2.337 -14.096  -0.077  0.00  0.00    -0.298 N 
ATOM     32  H   UNL     1       3.034 -14.531  -0.594  0.00  0.00    +0.154 HD
BRANCH  31  33
ATOM     33  C   UNL     1       1.312 -14.850   0.482  0.00  0.00    +0.047 A 
ATOM     34  C   UNL     1       0.083 -14.264   0.752  0.00  0.00    +0.062 A 
ATOM     35  C   UNL     1      -0.935 -15.017   1.308  0.00  0.00    +0.125 A 
ATOM     36  C   UNL     1      -0.737 -16.361   1.599  0.00  0.00    +0.039 A 
ATOM     37  C   UNL     1       0.476 -16.957   1.336  0.00  0.00    +0.018 A 
ATOM     38  C   UNL     1       1.513 -16.209   0.770  0.00  0.00    +0.058 A 
ATOM     39  F   UNL     1      -2.130 -14.442   1.570  0.00  0.00    -0.205 F 
BRANCH  38  40
ATOM     40  C   UNL     1       2.811 -16.844   0.482  0.00  0.00    +0.243 C 
ATOM     41  O   UNL     1       3.743 -16.169   0.086  0.00  0.00    -0.270 OA
ATOM     42  N   UNL     1       2.967 -18.171   0.659  0.00  0.00    -0.325 N 
ATOM     43  H   UNL     1       2.224 -18.708   0.975  0.00  0.00    +0.145 HD
ATOM     44  H   UNL     1       3.822 -18.588   0.469  0.00  0.00    +0.145 HD
ENDBRANCH  38  40
ENDBRANCH  31  33
ENDBRANCH  10  31
TORSDOF 8
