REMARK  Name = CHEMBL258951
REMARK  4 active torsions:
REMARK  status: ('A' for Active; 'I' for Inactive)
REMARK    1  A    between atoms: C_4  and  C_7
REMARK    2  A    between atoms: C_13  and  C_17
REMARK    3  A    between atoms: C_24  and  C_26
REMARK    4  A    between atoms: C_28  and  N_30
REMARK                            x       y       z     vdW  Elec       q    Type
REMARK                         _______ _______ _______ _____ _____    ______ ____
ROOT
ATOM      1  C   UNL     1       9.708   0.287  -0.125  0.00  0.00    +0.100 A 
ATOM      2  C   UNL     1      10.983  -0.220   0.092  0.00  0.00    +0.113 A 
ATOM      3  C   UNL     1      11.499  -1.475   0.477  0.00  0.00    +0.142 A 
ATOM      4  N   UNL     1      12.804  -1.631   0.597  0.00  0.00    -0.237 NA
ATOM      5  C   UNL     1      13.649  -0.620   0.361  0.00  0.00    +0.131 A 
ATOM      6  C   UNL     1      13.208   0.597  -0.008  0.00  0.00    +0.113 A 
ATOM      7  N   UNL     1      11.858   0.821  -0.151  0.00  0.00    -0.298 N 
ATOM      8  C   UNL     1      11.119   1.891  -0.495  0.00  0.00    +0.118 A 
ATOM      9  N   UNL     1       9.850   1.573  -0.485  0.00  0.00    -0.231 NA
ATOM     10  N   UNL     1      10.643  -2.535   0.727  0.00  0.00    -0.341 N 
ATOM     11  H   UNL     1       9.735  -2.516   0.385  0.00  0.00    +0.144 HD
ATOM     12  H   UNL     1      10.951  -3.296   1.243  0.00  0.00    +0.144 HD
ENDROOT
BRANCH   1  19
ATOM     13  C   UNL     1       5.660  -3.434   2.405  0.00  0.00    +0.072 A 
ATOM     14  C   UNL     1       4.641  -3.330   1.445  0.00  0.00    +0.029 A 
ATOM     15  C   UNL     1       4.814  -2.530   0.355  0.00  0.00    +0.012 A 
ATOM     16  C   UNL     1       6.027  -1.826   0.227  0.00  0.00    +0.000 A 
ATOM     17  C   UNL     1       6.264  -0.985  -0.874  0.00  0.00    +0.010 A 
ATOM     18  C   UNL     1       7.441  -0.316  -0.977  0.00  0.00    +0.011 A 
ATOM     19  C   UNL     1       8.434  -0.452   0.010  0.00  0.00    +0.005 A 
ATOM     20  C   UNL     1       8.229  -1.272   1.107  0.00  0.00    +0.038 A 
ATOM     21  C   UNL     1       7.019  -1.973   1.230  0.00  0.00    +0.072 A 
ATOM     22  N   UNL     1       6.793  -2.768   2.281  0.00  0.00    -0.247 NA
BRANCH  13  26
ATOM     23  C   UNL     1       5.080  -5.938   5.791  0.00  0.00    +0.000 A 
ATOM     24  C   UNL     1       6.262  -5.234   5.649  0.00  0.00    +0.001 A 
ATOM     25  C   UNL     1       6.456  -4.420   4.552  0.00  0.00    +0.010 A 
ATOM     26  C   UNL     1       5.458  -4.308   3.586  0.00  0.00    +0.000 A 
ATOM     27  C   UNL     1       4.269  -5.020   3.734  0.00  0.00    +0.010 A 
ATOM     28  C   UNL     1       4.086  -5.831   4.835  0.00  0.00    +0.001 A 
ENDBRANCH  13  26
ENDBRANCH   1  19
BRANCH   8  29
ATOM     29  C   UNL     1      11.669   3.249  -0.847  0.00  0.00    +0.053 C 
ATOM     30  C   UNL     1      10.808   4.415  -0.333  0.00  0.00    -0.004 C 
ATOM     31  C   UNL     1      11.094   5.114  -1.673  0.00  0.00    -0.067 C 
ATOM     32  C   UNL     1      11.308   3.712  -2.268  0.00  0.00    -0.004 C 
BRANCH  31  33
ATOM     33  N   UNL     1      12.309   5.939  -1.658  0.00  0.00    +0.383 N 
ATOM     34  C   UNL     1      12.131   7.039  -0.709  0.00  0.00    -0.068 C 
ATOM     35  C   UNL     1      13.487   7.683  -0.398  0.00  0.00    +0.050 C 
ATOM     36  S   UNL     1      14.159   8.372  -1.943  0.00  0.00    -0.164 S 
ATOM     37  C   UNL     1      13.997   6.979  -3.104  0.00  0.00    +0.050 C 
ATOM     38  C   UNL     1      12.565   6.441  -3.010  0.00  0.00    -0.068 C 
ATOM     39  H   UNL     1      13.090   5.372  -1.363  0.00  0.00    -0.081 HD
ENDBRANCH  31  33
ENDBRANCH   8  29
TORSDOF 4
