REMARK  Name = CHEMBL1222855
REMARK  4 active torsions:
REMARK  status: ('A' for Active; 'I' for Inactive)
REMARK    1  A    between atoms: C_6  and  C_10
REMARK    2  A    between atoms: C_10  and  N_11
REMARK    3  A    between atoms: C_12  and  C_14
REMARK    4  A    between atoms: C_24  and  C_28
REMARK                            x       y       z     vdW  Elec       q    Type
REMARK                         _______ _______ _______ _____ _____    ______ ____
ROOT
ATOM      1  C   UNL     1      -0.016   1.355   0.009  0.00  0.00    +0.022 A 
ATOM      2  C   UNL     1       1.306   1.802  -0.001  0.00  0.00    +0.033 A 
ATOM      3  C   UNL     1       2.108   0.678  -0.014  0.00  0.00    +0.105 A 
ATOM      4  C   UNL     1       3.507   0.474  -0.029  0.00  0.00    +0.152 A 
ATOM      5  N   UNL     1       3.979  -0.762  -0.040  0.00  0.00    -0.212 NA
ATOM      6  C   UNL     1       3.168  -1.818  -0.038  0.00  0.00    +0.169 A 
ATOM      7  N   UNL     1       1.869  -1.700  -0.025  0.00  0.00    -0.150 NA
ATOM      8  N   UNL     1       1.280  -0.427  -0.013  0.00  0.00    -0.235 N 
ATOM      9  C   UNL     1       0.002  -0.004   0.002  0.00  0.00    +0.113 A 
ATOM     10  N   UNL     1       4.371   1.552  -0.032  0.00  0.00    -0.281 N 
ATOM     11  C   UNL     1       5.755   1.340  -0.046  0.00  0.00    +0.146 A 
ATOM     12  C   UNL     1       6.399   0.092  -0.064  0.00  0.00    +0.068 A 
ATOM     13  C   UNL     1       7.733   0.313  -0.074  0.00  0.00    +0.041 A 
ATOM     14  N   UNL     1       7.931   1.647  -0.062  0.00  0.00    -0.280 N 
ATOM     15  H   UNL     1       8.792   2.095  -0.066  0.00  0.00    +0.189 HD
ATOM     16  N   UNL     1       6.678   2.273  -0.051  0.00  0.00    -0.158 NA
ATOM     17  H   UNL     1       4.019   2.456  -0.024  0.00  0.00    +0.155 HD
ENDROOT
BRANCH  13  18
ATOM     18  C   UNL     1       8.807  -0.744  -0.093  0.00  0.00    +0.037 C 
ATOM     19  C   UNL     1      10.110  -0.441   0.650  0.00  0.00    +0.010 C 
ATOM     20  C   UNL     1      10.083  -0.440  -0.880  0.00  0.00    +0.010 C 
ENDBRANCH  13  18
BRANCH   6  21
ATOM     21  C   UNL     1       3.772  -3.199  -0.051  0.00  0.00    +0.182 C 
BRANCH  21  22
ATOM     22  N   UNL     1       2.702  -4.200  -0.046  0.00  0.00    -0.304 N 
ATOM     23  C   UNL     1       3.008  -5.512  -0.056  0.00  0.00    +0.246 C 
ATOM     24  O   UNL     1       4.171  -5.866  -0.070  0.00  0.00    -0.270 OA
ATOM     25  H   UNL     1       1.774  -3.918  -0.036  0.00  0.00    +0.149 HD
BRANCH  23  26
ATOM     26  C   UNL     1       1.929  -6.522  -0.052  0.00  0.00    +0.055 A 
ATOM     27  C   UNL     1       2.234  -7.890  -0.056  0.00  0.00    +0.019 A 
ATOM     28  C   UNL     1       1.190  -8.794  -0.051  0.00  0.00    +0.060 A 
ATOM     29  C   UNL     1      -0.115  -8.324  -0.041  0.00  0.00    +0.213 A 
ATOM     30  N   UNL     1      -0.372  -7.027  -0.037  0.00  0.00    -0.227 NA
ATOM     31  C   UNL     1       0.591  -6.129  -0.037  0.00  0.00    +0.127 A 
ATOM     32  F   UNL     1      -1.140  -9.205  -0.036  0.00  0.00    -0.184 F 
ENDBRANCH  23  26
ENDBRANCH  21  22
ENDBRANCH   6  21
TORSDOF 4
