REMARK  Name = CHEMBL1090359
REMARK  5 active torsions:
REMARK  status: ('A' for Active; 'I' for Inactive)
REMARK    1  A    between atoms: C_3  and  C_18
REMARK    2  A    between atoms: C_5  and  N_7
REMARK    3  A    between atoms: C_8  and  C_10
REMARK    4  A    between atoms: C_19  and  C_26
REMARK    5  A    between atoms: N_32  and  C_33
REMARK                            x       y       z     vdW  Elec       q    Type
REMARK                         _______ _______ _______ _____ _____    ______ ____
ROOT
ATOM      1  C   UNL     1       2.869   0.725  -0.285  0.00  0.00    +0.100 A 
ATOM      2  C   UNL     1       3.414   1.996  -0.338  0.00  0.00    +0.100 A 
ATOM      3  N   UNL     1       4.793   1.859  -0.133  0.00  0.00    -0.291 N 
ATOM      4  C   UNL     1       5.902   2.671  -0.062  0.00  0.00    +0.101 A 
ATOM      5  C   UNL     1       7.112   2.157   0.157  0.00  0.00    +0.067 A 
ATOM      6  S   UNL     1       6.753   0.412   0.283  0.00  0.00    -0.058 S 
ATOM      7  C   UNL     1       4.995   0.515   0.030  0.00  0.00    +0.178 A 
ATOM      8  N   UNL     1       3.869  -0.139  -0.054  0.00  0.00    -0.221 NA
ENDROOT
BRANCH   2   9
ATOM      9  C   UNL     1       2.684   3.252  -0.565  0.00  0.00    +0.095 A 
ATOM     10  C   UNL     1       3.202   4.473  -0.104  0.00  0.00    +0.050 A 
ATOM     11  C   UNL     1       2.481   5.624  -0.342  0.00  0.00    +0.116 A 
ATOM     12  N   UNL     1       1.329   5.546  -0.995  0.00  0.00    -0.223 NA
ATOM     13  C   UNL     1       0.862   4.382  -1.421  0.00  0.00    +0.220 A 
ATOM     14  N   UNL     1       1.520   3.252  -1.220  0.00  0.00    -0.213 NA
ATOM     15  N   UNL     1      -0.346   4.347  -2.098  0.00  0.00    -0.284 N 
ATOM     16  H   UNL     1      -0.741   3.496  -2.343  0.00  0.00    +0.155 HD
BRANCH  15  17
ATOM     17  C   UNL     1      -0.996   5.540  -2.430  0.00  0.00    +0.034 A 
ATOM     18  C   UNL     1      -0.258   6.672  -2.749  0.00  0.00    +0.023 A 
ATOM     19  C   UNL     1      -0.906   7.845  -3.074  0.00  0.00    +0.004 A 
ATOM     20  C   UNL     1      -2.292   7.903  -3.083  0.00  0.00    -0.061 A 
ATOM     21  C   UNL     1      -3.028   6.779  -2.768  0.00  0.00    -0.046 A 
ATOM     22  C   UNL     1      -2.382   5.597  -2.446  0.00  0.00    +0.027 A 
ATOM     23  C   UNL     1      -4.535   6.800  -2.775  0.00  0.00    +0.016 C 
ATOM     24  C   UNL     1      -5.034   8.245  -2.758  0.00  0.00    -0.077 C 
ATOM     25  N   UNL     1      -4.351   8.989  -3.827  0.00  0.00    +0.382 N 
ATOM     26  C   UNL     1      -2.954   9.208  -3.439  0.00  0.00    -0.047 C 
ATOM     27  H   UNL     1      -4.383   8.457  -4.683  0.00  0.00    -0.085 HD
ATOM     28  H   UNL     1      -4.806   9.879  -3.964  0.00  0.00    -0.085 HD
ENDBRANCH  15  17
ENDBRANCH   2   9
BRANCH   1  31
ATOM     29  C   UNL     1      -0.882   0.925  -0.126  0.00  0.00    +0.002 A 
ATOM     30  C   UNL     1       0.452   1.247   0.027  0.00  0.00    +0.010 A 
ATOM     31  C   UNL     1       1.437   0.381  -0.447  0.00  0.00    +0.004 A 
ATOM     32  C   UNL     1       1.071  -0.808  -1.075  0.00  0.00    +0.033 A 
ATOM     33  C   UNL     1      -0.270  -1.123  -1.224  0.00  0.00    +0.034 A 
ATOM     34  C   UNL     1      -1.246  -0.254  -0.748  0.00  0.00    +0.023 A 
BRANCH  33  35
ATOM     35  N   UNL     1      -0.643  -2.315  -1.854  0.00  0.00    -0.281 N 
ATOM     36  C   UNL     1       0.122  -3.416  -1.719  0.00  0.00    +0.254 C 
ATOM     37  O   UNL     1       1.089  -3.398  -0.982  0.00  0.00    -0.270 OA
ATOM     38  H   UNL     1      -1.452  -2.349  -2.388  0.00  0.00    +0.155 HD
BRANCH  36  39
ATOM     39  C   UNL     1      -0.213  -4.644  -2.466  0.00  0.00    +0.107 A 
ATOM     40  C   UNL     1       0.326  -4.862  -3.739  0.00  0.00    +0.138 A 
ATOM     41  C   UNL     1       0.006  -6.015  -4.431  0.00  0.00    +0.039 A 
ATOM     42  C   UNL     1      -0.844  -6.950  -3.870  0.00  0.00    +0.006 A 
ATOM     43  C   UNL     1      -1.381  -6.742  -2.613  0.00  0.00    +0.039 A 
ATOM     44  C   UNL     1      -1.067  -5.598  -1.903  0.00  0.00    +0.138 A 
ATOM     45  F   UNL     1      -1.588  -5.400  -0.673  0.00  0.00    -0.205 F 
ATOM     46  F   UNL     1       1.155  -3.949  -4.289  0.00  0.00    -0.205 F 
ENDBRANCH  36  39
ENDBRANCH  33  35
ENDBRANCH   1  31
TORSDOF 5
