REMARK  Name = CHEMBL256908
REMARK  11 active torsions:
REMARK  status: ('A' for Active; 'I' for Inactive)
REMARK    1  A    between atoms: C_1  and  C_2
REMARK    2  A    between atoms: C_2  and  O_3
REMARK    3  A    between atoms: O_3  and  C_4
REMARK    4  A    between atoms: C_4  and  C_6
REMARK    5  A    between atoms: N_9  and  C_11
REMARK    6  A    between atoms: C_11  and  C_12
REMARK    7  A    between atoms: C_12  and  N_13
REMARK    8  A    between atoms: N_13  and  C_14
REMARK    9  A    between atoms: C_21  and  C_22
REMARK   10  A    between atoms: C_27  and  N_33
REMARK   11  A    between atoms: C_29  and  C_32
REMARK                            x       y       z     vdW  Elec       q    Type
REMARK                         _______ _______ _______ _____ _____    ______ ____
ROOT
ATOM      1  C   UNL     1      -7.932  -6.599   2.219  0.00  0.00    +0.045 A 
ATOM      2  C   UNL     1      -8.088  -5.695   3.287  0.00  0.00    +0.041 A 
ATOM      3  C   UNL     1      -8.989  -5.949   4.260  0.00  0.00    +0.088 A 
ATOM      4  N   UNL     1      -9.758  -7.070   4.234  0.00  0.00    -0.328 N 
ATOM      5  H   UNL     1     -10.397  -7.224   4.947  0.00  0.00    +0.168 HD
ATOM      6  C   UNL     1      -9.651  -7.968   3.238  0.00  0.00    +0.261 A 
ATOM      7  O   UNL     1     -10.353  -8.966   3.237  0.00  0.00    -0.267 OA
ATOM      8  C   UNL     1      -8.729  -7.752   2.189  0.00  0.00    +0.102 A 
ENDROOT
BRANCH   8   9
ATOM      9  C   UNL     1      -8.603  -8.723   1.089  0.00  0.00    +0.146 A 
ATOM     10  N   UNL     1      -9.409  -9.817   0.906  0.00  0.00    -0.338 N 
ATOM     11  H   UNL     1     -10.152 -10.086   1.469  0.00  0.00    +0.167 HD
ATOM     12  C   UNL     1      -8.965 -10.466  -0.232  0.00  0.00    +0.068 A 
ATOM     13  C   UNL     1      -9.371 -11.607  -0.907  0.00  0.00    +0.051 A 
ATOM     14  C   UNL     1      -8.697 -12.004  -2.051  0.00  0.00    +0.032 A 
ATOM     15  C   UNL     1      -7.616 -11.262  -2.523  0.00  0.00    +0.028 A 
ATOM     16  C   UNL     1      -7.206 -10.136  -1.866  0.00  0.00    -0.021 A 
ATOM     17  C   UNL     1      -7.874  -9.719  -0.710  0.00  0.00    +0.092 A 
ATOM     18  N   UNL     1      -7.706  -8.668   0.132  0.00  0.00    -0.227 NA
ATOM     19  C   UNL     1      -6.035  -9.344  -2.387  0.00  0.00    +0.046 C 
BRANCH  14  20
ATOM     20  N   UNL     1      -9.103 -13.154  -2.735  0.00  0.00    -0.325 N 
ATOM     21  C   UNL     1      -8.326 -13.673  -3.873  0.00  0.00    +0.133 C 
ATOM     22  C   UNL     1      -8.070 -15.166  -3.642  0.00  0.00    +0.178 C 
ATOM     23  O   UNL     1      -9.311 -15.821  -3.370  0.00  0.00    -0.377 OA
ATOM     24  C   UNL     1      -9.965 -15.366  -2.183  0.00  0.00    +0.178 C 
ATOM     25  C   UNL     1     -10.315 -13.885  -2.335  0.00  0.00    +0.133 C 
ENDBRANCH  14  20
ENDBRANCH   8   9
BRANCH   1  26
ATOM     26  N   UNL     1      -7.016  -6.353   1.218  0.00  0.00    -0.341 N 
ATOM     27  H   UNL     1      -6.864  -7.015   0.526  0.00  0.00    +0.146 HD
BRANCH  26  28
ATOM     28  C   UNL     1      -6.272  -5.090   1.200  0.00  0.00    +0.125 C 
BRANCH  28  29
ATOM     29  C   UNL     1      -5.330  -5.071  -0.005  0.00  0.00    +0.162 C 
BRANCH  29  33
ATOM     30  C   UNL     1      -2.959  -2.336  -0.063  0.00  0.00    +0.096 A 
ATOM     31  C   UNL     1      -4.191  -1.644  -0.032  0.00  0.00    +0.149 A 
ATOM     32  N   UNL     1      -5.150  -2.528  -0.009  0.00  0.00    -0.179 NA
ATOM     33  N   UNL     1      -4.587  -3.809  -0.023  0.00  0.00    -0.269 N 
ATOM     34  C   UNL     1      -3.251  -3.686  -0.062  0.00  0.00    +0.123 A 
BRANCH  30  35
ATOM     35  C   UNL     1      -1.617  -1.730  -0.097  0.00  0.00    +0.342 C 
ATOM     36  O   UNL     1      -0.631  -2.440  -0.127  0.00  0.00    -0.245 OA
BRANCH  35  37
ATOM     37  O   UNL     1      -1.482  -0.390  -0.093  0.00  0.00    -0.461 OA
BRANCH  37  39
ATOM     38  C   UNL     1      -0.198   1.658  -0.117  0.00  0.00    +0.048 C 
ATOM     39  C   UNL     1      -0.151   0.129  -0.127  0.00  0.00    +0.229 C 
ENDBRANCH  37  39
ENDBRANCH  35  37
ENDBRANCH  30  35
ENDBRANCH  29  33
ENDBRANCH  28  29
ENDBRANCH  26  28
ENDBRANCH   1  26
TORSDOF 9
