REMARK  Name = CHEMBL429832
REMARK  6 active torsions:
REMARK  status: ('A' for Active; 'I' for Inactive)
REMARK    1  A    between atoms: C_4  and  C_7
REMARK    2  A    between atoms: C_7  and  C_8
REMARK    3  A    between atoms: C_8  and  C_9
REMARK    4  A    between atoms: C_15  and  C_19
REMARK    5  A    between atoms: N_26  and  C_28
REMARK    6  A    between atoms: C_31  and  N_34
REMARK                            x       y       z     vdW  Elec       q    Type
REMARK                         _______ _______ _______ _____ _____    ______ ____
ROOT
ATOM      1  C   UNL     1       9.774  -5.472  -0.053  0.00  0.00    +0.105 A 
ATOM      2  C   UNL     1      11.227  -5.492  -0.221  0.00  0.00    +0.086 A 
ATOM      3  C   UNL     1      12.251  -4.534  -0.131  0.00  0.00    +0.131 A 
ATOM      4  N   UNL     1      13.502  -4.925  -0.356  0.00  0.00    -0.220 NA
ATOM      5  C   UNL     1      13.780  -6.180  -0.659  0.00  0.00    +0.225 A 
ATOM      6  N   UNL     1      12.856  -7.110  -0.755  0.00  0.00    -0.216 NA
ATOM      7  C   UNL     1      11.572  -6.817  -0.546  0.00  0.00    +0.164 A 
ATOM      8  N   UNL     1      10.413  -7.533  -0.570  0.00  0.00    -0.243 N 
ATOM      9  N   UNL     1       9.339  -6.692  -0.261  0.00  0.00    -0.168 NA
ATOM     10  N   UNL     1      11.966  -3.220   0.185  0.00  0.00    -0.342 N 
ATOM     11  H   UNL     1      11.107  -2.990   0.574  0.00  0.00    +0.144 HD
ATOM     12  H   UNL     1      12.623  -2.527   0.017  0.00  0.00    +0.144 HD
ENDROOT
BRANCH   1  19
ATOM     13  C   UNL     1       7.428  -0.033   0.201  0.00  0.00    +0.108 A 
ATOM     14  N   UNL     1       6.795  -0.858   1.077  0.00  0.00    -0.342 N 
ATOM     15  H   UNL     1       6.065  -0.618   1.668  0.00  0.00    +0.167 HD
ATOM     16  C   UNL     1       7.385  -2.103   0.969  0.00  0.00    +0.066 A 
ATOM     17  C   UNL     1       7.175  -3.325   1.594  0.00  0.00    +0.028 A 
ATOM     18  C   UNL     1       7.944  -4.405   1.264  0.00  0.00    +0.012 A 
ATOM     19  C   UNL     1       8.947  -4.292   0.295  0.00  0.00    +0.005 A 
ATOM     20  C   UNL     1       9.171  -3.078  -0.340  0.00  0.00    +0.040 A 
ATOM     21  C   UNL     1       8.389  -1.972  -0.006  0.00  0.00    +0.090 A 
ATOM     22  N   UNL     1       8.357  -0.684  -0.437  0.00  0.00    -0.232 NA
BRANCH  13  23
ATOM     23  C   UNL     1       7.098   1.423  -0.006  0.00  0.00    +0.079 C 
BRANCH  23  24
ATOM     24  C   UNL     1       8.361   2.265   0.186  0.00  0.00    +0.043 C 
BRANCH  24  28
ATOM     25  C   UNL     1       7.426   6.392  -0.400  0.00  0.00    +0.000 A 
ATOM     26  C   UNL     1       7.326   5.833   0.861  0.00  0.00    +0.000 A 
ATOM     27  C   UNL     1       7.629   4.497   1.050  0.00  0.00    +0.003 A 
ATOM     28  C   UNL     1       8.030   3.721  -0.021  0.00  0.00    -0.047 A 
ATOM     29  C   UNL     1       8.129   4.280  -1.281  0.00  0.00    +0.003 A 
ATOM     30  C   UNL     1       7.828   5.615  -1.470  0.00  0.00    +0.000 A 
ENDBRANCH  24  28
ENDBRANCH  23  24
ENDBRANCH  13  23
ENDBRANCH   1  19
BRANCH   8  31
ATOM     31  C   UNL     1      10.308  -8.964  -0.867  0.00  0.00    +0.109 C 
ATOM     32  C   UNL     1       9.420  -9.166  -2.096  0.00  0.00    +0.025 C 
ATOM     33  C   UNL     1       9.311 -10.661  -2.406  0.00  0.00    -0.013 C 
ATOM     34  C   UNL     1       8.696 -11.387  -1.207  0.00  0.00    -0.068 C 
ATOM     35  C   UNL     1       9.585 -11.184   0.022  0.00  0.00    -0.013 C 
ATOM     36  C   UNL     1       9.694  -9.690   0.332  0.00  0.00    +0.025 C 
BRANCH  34  37
ATOM     37  N   UNL     1       8.591 -12.821  -1.505  0.00  0.00    +0.385 N 
ATOM     38  C   UNL     1       7.737 -13.016  -2.685  0.00  0.00    -0.050 C 
ATOM     39  C   UNL     1       7.630 -14.511  -2.993  0.00  0.00    +0.141 C 
ATOM     40  O   UNL     1       7.108 -15.192  -1.849  0.00  0.00    -0.383 OA
ATOM     41  C   UNL     1       7.893 -15.013  -0.667  0.00  0.00    +0.141 C 
ATOM     42  C   UNL     1       8.001 -13.519  -0.354  0.00  0.00    -0.050 C 
ATOM     43  H   UNL     1       9.510 -13.195  -1.690  0.00  0.00    -0.081 HD
ENDBRANCH  34  37
ENDBRANCH   8  31
TORSDOF 6
