REMARK  Name = CHEMBL572878
REMARK  8 active torsions:
REMARK  status: ('A' for Active; 'I' for Inactive)
REMARK    1  A    between atoms: C_1  and  C_2
REMARK    2  A    between atoms: C_4  and  N_8
REMARK    3  A    between atoms: C_11  and  N_28
REMARK    4  A    between atoms: C_13  and  S_15
REMARK    5  A    between atoms: S_15  and  C_16
REMARK    6  A    between atoms: C_19  and  N_22
REMARK    7  A    between atoms: C_23  and  C_25
REMARK    8  A    between atoms: N_31  and  C_34
REMARK                            x       y       z     vdW  Elec       q    Type
REMARK                         _______ _______ _______ _____ _____    ______ ____
ROOT
ATOM      1  N   UNL     1      -0.079  -3.242  -1.583  0.00  0.00    -0.285 N 
ATOM      2  C   UNL     1      -0.179  -3.107  -2.960  0.00  0.00    +0.130 A 
ATOM      3  C   UNL     1      -0.207  -1.844  -3.544  0.00  0.00    +0.087 A 
ATOM      4  C   UNL     1      -0.308  -1.756  -4.930  0.00  0.00    +0.127 A 
ATOM      5  N   UNL     1      -0.374  -2.876  -5.646  0.00  0.00    -0.207 NA
ATOM      6  C   UNL     1      -0.344  -4.062  -5.056  0.00  0.00    +0.196 A 
ATOM      7  N   UNL     1      -0.244  -4.183  -3.740  0.00  0.00    -0.206 NA
ATOM      8  H   UNL     1       0.045  -4.120  -1.190  0.00  0.00    +0.155 HD
ENDROOT
BRANCH   4   9
ATOM      9  N   UNL     1      -0.340  -0.519  -5.555  0.00  0.00    -0.319 N 
ATOM     10  C   UNL     1      -0.663  -0.403  -6.985  0.00  0.00    +0.088 C 
ATOM     11  C   UNL     1      -1.759   0.655  -7.150  0.00  0.00    -0.060 C 
ATOM     12  N   UNL     1      -1.325   1.910  -6.523  0.00  0.00    +0.380 N 
ATOM     13  C   UNL     1      -1.175   1.719  -5.075  0.00  0.00    -0.060 C 
ATOM     14  C   UNL     1      -0.056   0.714  -4.806  0.00  0.00    +0.088 C 
ATOM     15  C   UNL     1      -2.327   2.954  -6.777  0.00  0.00    -0.096 C 
ATOM     16  H   UNL     1      -0.441   2.193  -6.917  0.00  0.00    -0.082 HD
ENDBRANCH   4   9
BRANCH   1  20
ATOM     17  C   UNL     1       0.660  -0.046   2.177  0.00  0.00    +0.067 C 
ATOM     18  C   UNL     1       0.152  -0.668   0.902  0.00  0.00    +0.062 A 
ATOM     19  C   UNL     1       0.516  -1.921   0.402  0.00  0.00    +0.068 A 
ATOM     20  C   UNL     1      -0.158  -2.117  -0.765  0.00  0.00    +0.120 A 
ATOM     21  N   UNL     1      -0.921  -1.016  -0.985  0.00  0.00    -0.264 N 
ATOM     22  H   UNL     1      -1.511  -0.871  -1.741  0.00  0.00    +0.190 HD
ATOM     23  N   UNL     1      -0.710  -0.128   0.078  0.00  0.00    -0.178 NA
ENDBRANCH   1  20
BRANCH   6  24
ATOM     24  S   UNL     1      -0.435  -5.516  -6.047  0.00  0.00    -0.050 S 
BRANCH  24  25
ATOM     25  C   UNL     1      -0.215  -6.831  -4.895  0.00  0.00    +0.016 A 
ATOM     26  C   UNL     1      -1.321  -7.468  -4.348  0.00  0.00    +0.017 A 
ATOM     27  C   UNL     1      -1.149  -8.498  -3.446  0.00  0.00    +0.024 A 
ATOM     28  C   UNL     1       0.132  -8.899  -3.086  0.00  0.00    +0.033 A 
ATOM     29  C   UNL     1       1.238  -8.262  -3.633  0.00  0.00    +0.024 A 
ATOM     30  C   UNL     1       1.066  -7.236  -4.539  0.00  0.00    +0.017 A 
BRANCH  28  31
ATOM     31  N   UNL     1       0.307  -9.944  -2.170  0.00  0.00    -0.285 N 
ATOM     32  C   UNL     1       1.350  -9.925  -1.317  0.00  0.00    +0.220 C 
ATOM     33  O   UNL     1       2.082  -8.959  -1.275  0.00  0.00    -0.275 OA
ATOM     34  H   UNL     1      -0.323 -10.682  -2.150  0.00  0.00    +0.155 HD
BRANCH  32  35
ATOM     35  C   UNL     1       1.607 -11.104  -0.414  0.00  0.00    +0.075 C 
ATOM     36  C   UNL     1       1.385 -10.906   1.087  0.00  0.00    +0.013 C 
ATOM     37  C   UNL     1       2.806 -11.022   0.532  0.00  0.00    +0.013 C 
ENDBRANCH  32  35
ENDBRANCH  28  31
ENDBRANCH  24  25
ENDBRANCH   6  24
TORSDOF 6
