REMARK  Name = CHEMBL1095439
REMARK  12 active torsions:
REMARK  status: ('A' for Active; 'I' for Inactive)
REMARK    1  A    between atoms: C_1  and  C_2
REMARK    2  A    between atoms: C_4  and  N_32
REMARK    3  A    between atoms: C_9  and  C_12
REMARK    4  A    between atoms: C_13  and  N_20
REMARK    5  A    between atoms: N_20  and  C_21
REMARK    6  A    between atoms: C_21  and  C_22
REMARK    7  A    between atoms: C_22  and  C_24
REMARK    8  A    between atoms: C_22  and  O_31
REMARK    9  A    between atoms: N_35  and  C_38
REMARK   10  A    between atoms: C_38  and  C_39
REMARK   11  A    between atoms: C_39  and  C_40
REMARK   12  A    between atoms: C_40  and  O_41
REMARK                            x       y       z     vdW  Elec       q    Type
REMARK                         _______ _______ _______ _____ _____    ______ ____
ROOT
ATOM      1  C   UNL     1       0.201   0.928   0.236  0.00  0.00    +0.046 C 
ATOM      2  C   UNL     1       0.196  -0.578   0.281  0.00  0.00    -0.021 A 
ATOM      3  C   UNL     1       0.217  -1.296  -0.880  0.00  0.00    +0.028 A 
ATOM      4  C   UNL     1       0.212  -2.689  -0.853  0.00  0.00    +0.032 A 
ATOM      5  C   UNL     1       0.186  -3.364   0.357  0.00  0.00    +0.051 A 
ATOM      6  C   UNL     1       0.164  -2.646   1.543  0.00  0.00    +0.068 A 
ATOM      7  C   UNL     1       0.175  -1.240   1.512  0.00  0.00    +0.092 A 
ATOM      8  N   UNL     1       0.157  -0.810   2.800  0.00  0.00    -0.227 NA
ATOM      9  C   UNL     1       0.141  -1.843   3.610  0.00  0.00    +0.146 A 
ATOM     10  N   UNL     1       0.136  -3.004   2.879  0.00  0.00    -0.338 N 
ATOM     11  H   UNL     1       0.126  -3.907   3.233  0.00  0.00    +0.167 HD
ENDROOT
BRANCH   9  12
ATOM     12  C   UNL     1       0.120  -1.766   5.080  0.00  0.00    +0.102 A 
ATOM     13  C   UNL     1      -0.008  -0.530   5.729  0.00  0.00    +0.045 A 
ATOM     14  C   UNL     1      -0.024  -0.502   7.136  0.00  0.00    +0.041 A 
ATOM     15  C   UNL     1       0.082  -1.653   7.835  0.00  0.00    +0.088 A 
ATOM     16  N   UNL     1       0.206  -2.852   7.206  0.00  0.00    -0.328 N 
ATOM     17  H   UNL     1       0.281  -3.661   7.736  0.00  0.00    +0.168 HD
ATOM     18  C   UNL     1       0.222  -2.938   5.863  0.00  0.00    +0.261 A 
ATOM     19  O   UNL     1       0.329  -4.026   5.322  0.00  0.00    -0.267 OA
BRANCH  13  20
ATOM     20  N   UNL     1      -0.115   0.637   5.002  0.00  0.00    -0.340 N 
ATOM     21  H   UNL     1      -0.183   0.602   4.035  0.00  0.00    +0.146 HD
BRANCH  20  22
ATOM     22  C   UNL     1      -0.125   1.930   5.691  0.00  0.00    +0.137 C 
BRANCH  22  23
ATOM     23  C   UNL     1      -0.252   3.055   4.661  0.00  0.00    +0.161 C 
BRANCH  23  24
ATOM     24  C   UNL     1      -0.139   4.387   5.356  0.00  0.00    -0.016 A 
ATOM     25  C   UNL     1      -1.230   4.913   6.022  0.00  0.00    +0.006 A 
ATOM     26  C   UNL     1      -1.128   6.136   6.660  0.00  0.00    +0.002 A 
ATOM     27  C   UNL     1       0.066   6.832   6.632  0.00  0.00    +0.020 A 
ATOM     28  C   UNL     1       1.158   6.306   5.965  0.00  0.00    +0.041 A 
ATOM     29  C   UNL     1       1.056   5.080   5.332  0.00  0.00    +0.026 A 
ATOM     30 CL   UNL     1       2.657   7.181   5.929  0.00  0.00    -0.084 Cl
ENDBRANCH  23  24
BRANCH  23  31
ATOM     31  O   UNL     1      -1.520   2.963   4.009  0.00  0.00    -0.386 OA
ATOM     32  H   UNL     1      -2.276   3.038   4.608  0.00  0.00    +0.210 HD
ENDBRANCH  23  31
ENDBRANCH  22  23
ENDBRANCH  20  22
ENDBRANCH  13  20
ENDBRANCH   9  12
BRANCH   4  33
ATOM     33  N   UNL     1       0.233  -3.409  -2.052  0.00  0.00    -0.333 N 
ATOM     34  C   UNL     1       0.139  -2.722  -3.349  0.00  0.00    +0.086 C 
ATOM     35  C   UNL     1       1.276  -3.220  -4.247  0.00  0.00    -0.060 C 
ATOM     36  N   UNL     1       1.224  -4.686  -4.332  0.00  0.00    +0.382 N 
ATOM     37  C   UNL     1       1.478  -5.273  -3.010  0.00  0.00    -0.060 C 
ATOM     38  C   UNL     1       0.357  -4.875  -2.051  0.00  0.00    +0.086 C 
ATOM     39  H   UNL     1       0.312  -4.970  -4.656  0.00  0.00    -0.082 HD
BRANCH  36  40
ATOM     40  C   UNL     1       2.245  -5.155  -5.278  0.00  0.00    -0.076 C 
BRANCH  40  41
ATOM     41  C   UNL     1       2.111  -6.668  -5.463  0.00  0.00    +0.009 C 
BRANCH  41  42
ATOM     42  C   UNL     1       3.174  -7.157  -6.449  0.00  0.00    +0.154 C 
BRANCH  42  43
ATOM     43  O   UNL     1       3.049  -8.570  -6.622  0.00  0.00    -0.395 OA
ATOM     44  H   UNL     1       3.692  -8.950  -7.236  0.00  0.00    +0.209 HD
ENDBRANCH  42  43
ENDBRANCH  41  42
ENDBRANCH  40  41
ENDBRANCH  36  40
ENDBRANCH   4  33
TORSDOF 11
