REMARK  Name = CHEMBL1090356
REMARK  7 active torsions:
REMARK  status: ('A' for Active; 'I' for Inactive)
REMARK    1  A    between atoms: C_4  and  C_7
REMARK    2  A    between atoms: C_7  and  C_8
REMARK    3  A    between atoms: N_10  and  C_11
REMARK    4  A    between atoms: C_15  and  C_17
REMARK    5  A    between atoms: C_18  and  C_25
REMARK    6  A    between atoms: N_31  and  C_32
REMARK    7  A    between atoms: C_35  and  N_38
REMARK                            x       y       z     vdW  Elec       q    Type
REMARK                         _______ _______ _______ _____ _____    ______ ____
ROOT
ATOM      1  C   UNL     1       8.275  -3.594   4.915  0.00  0.00    +0.100 A 
ATOM      2  C   UNL     1       8.951  -3.485   6.117  0.00  0.00    +0.100 A 
ATOM      3  N   UNL     1       9.955  -4.462   6.112  0.00  0.00    -0.291 N 
ATOM      4  C   UNL     1      10.957  -4.902   6.946  0.00  0.00    +0.101 A 
ATOM      5  C   UNL     1      11.755  -5.906   6.583  0.00  0.00    +0.067 A 
ATOM      6  S   UNL     1      11.117  -6.317   4.966  0.00  0.00    -0.058 S 
ATOM      7  C   UNL     1       9.822  -5.099   4.908  0.00  0.00    +0.178 A 
ATOM      8  N   UNL     1       8.838  -4.593   4.218  0.00  0.00    -0.221 NA
ENDROOT
BRANCH   2   9
ATOM      9  C   UNL     1       8.671  -2.525   7.194  0.00  0.00    +0.095 A 
ATOM     10  C   UNL     1       9.037  -2.811   8.519  0.00  0.00    +0.050 A 
ATOM     11  C   UNL     1       8.752  -1.879   9.496  0.00  0.00    +0.116 A 
ATOM     12  N   UNL     1       8.146  -0.749   9.159  0.00  0.00    -0.223 NA
ATOM     13  C   UNL     1       7.810  -0.502   7.901  0.00  0.00    +0.220 A 
ATOM     14  N   UNL     1       8.067  -1.363   6.929  0.00  0.00    -0.213 NA
ATOM     15  N   UNL     1       7.177   0.691   7.594  0.00  0.00    -0.284 N 
ATOM     16  H   UNL     1       6.858   0.853   6.692  0.00  0.00    +0.155 HD
BRANCH  15  17
ATOM     17  C   UNL     1       6.999   1.665   8.586  0.00  0.00    +0.034 A 
ATOM     18  C   UNL     1       7.949   1.819   9.586  0.00  0.00    +0.025 A 
ATOM     19  C   UNL     1       7.773   2.778  10.564  0.00  0.00    +0.025 A 
ATOM     20  C   UNL     1       6.646   3.589  10.546  0.00  0.00    +0.030 A 
ATOM     21  C   UNL     1       5.696   3.435   9.545  0.00  0.00    +0.025 A 
ATOM     22  C   UNL     1       5.875   2.479   8.565  0.00  0.00    +0.025 A 
BRANCH  20  23
ATOM     23  N   UNL     1       6.468   4.561  11.537  0.00  0.00    -0.326 N 
ATOM     24  C   UNL     1       5.224   5.343  11.616  0.00  0.00    +0.133 C 
ATOM     25  C   UNL     1       4.702   5.278  13.056  0.00  0.00    +0.178 C 
ATOM     26  O   UNL     1       5.749   5.658  13.953  0.00  0.00    -0.377 OA
ATOM     27  C   UNL     1       6.885   4.791  13.927  0.00  0.00    +0.178 C 
ATOM     28  C   UNL     1       7.516   4.827  12.535  0.00  0.00    +0.133 C 
ENDBRANCH  20  23
ENDBRANCH  15  17
ENDBRANCH   2   9
BRANCH   1  33
ATOM     29  C   UNL     1       5.910  -1.643   2.732  0.00  0.00    +0.034 A 
ATOM     30  C   UNL     1       4.984  -1.201   3.669  0.00  0.00    +0.023 A 
ATOM     31  C   UNL     1       5.129  -1.537   5.002  0.00  0.00    +0.002 A 
ATOM     32  C   UNL     1       6.195  -2.312   5.411  0.00  0.00    +0.010 A 
ATOM     33  C   UNL     1       7.130  -2.761   4.478  0.00  0.00    +0.004 A 
ATOM     34  C   UNL     1       6.981  -2.428   3.133  0.00  0.00    +0.033 A 
BRANCH  29  37
ATOM     35  C   UNL     1       6.103  -2.182   0.423  0.00  0.00    +0.222 C 
ATOM     36  O   UNL     1       6.621  -3.237   0.724  0.00  0.00    -0.275 OA
ATOM     37  N   UNL     1       5.760  -1.302   1.384  0.00  0.00    -0.285 N 
ATOM     38  H   UNL     1       5.408  -0.431   1.140  0.00  0.00    +0.155 HD
BRANCH  35  39
ATOM     39  C   UNL     1       5.842  -1.857  -1.026  0.00  0.00    +0.131 C 
BRANCH  39  43
ATOM     40  C   UNL     1       7.181  -5.089  -3.477  0.00  0.00    +0.000 A 
ATOM     41  C   UNL     1       5.884  -5.075  -2.999  0.00  0.00    +0.000 A 
ATOM     42  C   UNL     1       5.450  -4.029  -2.206  0.00  0.00    +0.004 A 
ATOM     43  C   UNL     1       6.315  -2.998  -1.889  0.00  0.00    -0.039 A 
ATOM     44  C   UNL     1       7.612  -3.012  -2.366  0.00  0.00    +0.004 A 
ATOM     45  C   UNL     1       8.045  -4.057  -3.161  0.00  0.00    +0.000 A 
ENDBRANCH  39  43
ENDBRANCH  35  39
ENDBRANCH  29  37
ENDBRANCH   1  33
TORSDOF 7
