REMARK  Name = CHEMBL551524
REMARK  4 active torsions:
REMARK  status: ('A' for Active; 'I' for Inactive)
REMARK    1  A    between atoms: C_4  and  C_7
REMARK    2  A    between atoms: C_13  and  C_24
REMARK    3  A    between atoms: C_14  and  C_17
REMARK    4  A    between atoms: C_19  and  N_21
REMARK                            x       y       z     vdW  Elec       q    Type
REMARK                         _______ _______ _______ _____ _____    ______ ____
ROOT
ATOM      1  C   UNL     1       3.764  -0.941  -0.344  0.00  0.00    +0.072 A 
ATOM      2  C   UNL     1       3.767  -2.320  -0.082  0.00  0.00    +0.029 A 
ATOM      3  C   UNL     1       4.942  -2.958   0.183  0.00  0.00    +0.012 A 
ATOM      4  C   UNL     1       6.129  -2.201   0.185  0.00  0.00    +0.001 A 
ATOM      5  C   UNL     1       7.372  -2.802   0.451  0.00  0.00    +0.011 A 
ATOM      6  C   UNL     1       8.504  -2.052   0.448  0.00  0.00    +0.011 A 
ATOM      7  C   UNL     1       8.451  -0.673   0.180  0.00  0.00    +0.008 A 
ATOM      8  C   UNL     1       7.242  -0.052  -0.086  0.00  0.00    -0.009 A 
ATOM      9  C   UNL     1       6.061  -0.810  -0.087  0.00  0.00    +0.076 A 
ATOM     10  N   UNL     1       4.880  -0.238  -0.345  0.00  0.00    -0.246 NA
ENDROOT
BRANCH   7  11
ATOM     11  C   UNL     1       9.698   0.123   0.183  0.00  0.00    +0.100 A 
ATOM     12  C   UNL     1      10.828  -0.110  -0.592  0.00  0.00    +0.113 A 
ATOM     13  C   UNL     1      11.184  -1.071  -1.560  0.00  0.00    +0.142 A 
ATOM     14  N   UNL     1      12.375  -1.011  -2.127  0.00  0.00    -0.237 NA
ATOM     15  C   UNL     1      13.252  -0.053  -1.800  0.00  0.00    +0.131 A 
ATOM     16  C   UNL     1      12.960   0.887  -0.883  0.00  0.00    +0.112 A 
ATOM     17  N   UNL     1      11.735   0.876  -0.257  0.00  0.00    -0.301 N 
ATOM     18  C   UNL     1      11.154   1.652   0.677  0.00  0.00    +0.204 A 
ATOM     19  N   UNL     1       9.950   1.209   0.931  0.00  0.00    -0.235 NA
ATOM     20  N   UNL     1      10.293  -2.071  -1.913  0.00  0.00    -0.341 N 
ATOM     21  H   UNL     1       9.374  -2.033  -1.604  0.00  0.00    +0.144 HD
ATOM     22  H   UNL     1      10.587  -2.808  -2.470  0.00  0.00    +0.144 HD
ENDBRANCH   7  11
BRANCH   1  26
ATOM     23  C   UNL     1       0.078   1.010  -1.169  0.00  0.00    +0.000 A 
ATOM     24  C   UNL     1       1.256   1.735  -1.166  0.00  0.00    +0.001 A 
ATOM     25  C   UNL     1       2.455   1.107  -0.899  0.00  0.00    +0.010 A 
ATOM     26  C   UNL     1       2.478  -0.260  -0.631  0.00  0.00    +0.000 A 
ATOM     27  C   UNL     1       1.288  -0.986  -0.635  0.00  0.00    +0.010 A 
ATOM     28  C   UNL     1       0.094  -0.347  -0.903  0.00  0.00    +0.001 A 
ENDBRANCH   1  26
BRANCH   8  29
ATOM     29  C   UNL     1       7.195   1.427  -0.371  0.00  0.00    +0.019 C 
ATOM     30  C   UNL     1       6.058   2.159   0.360  0.00  0.00    -0.007 C 
ATOM     31  C   UNL     1       5.855   2.970  -0.931  0.00  0.00    -0.068 C 
ATOM     32  C   UNL     1       6.472   1.778  -1.682  0.00  0.00    -0.007 C 
BRANCH  31  33
ATOM     33  N   UNL     1       6.670   4.190  -0.993  0.00  0.00    +0.379 N 
ATOM     34  C   UNL     1       5.967   5.472  -0.848  0.00  0.00    -0.098 C 
ATOM     35  C   UNL     1       6.536   5.024  -2.195  0.00  0.00    -0.098 C 
ATOM     36  H   UNL     1       7.588   4.121  -0.582  0.00  0.00    -0.082 HD
ENDBRANCH  31  33
ENDBRANCH   8  29
TORSDOF 4
