REMARK  Name = CHEMBL461662
REMARK  18 active torsions:
REMARK  status: ('A' for Active; 'I' for Inactive)
REMARK    1  A    between atoms: C_1  and  C_2
REMARK    2  A    between atoms: C_2  and  N_3
REMARK    3  A    between atoms: C_4  and  C_39
REMARK    4  A    between atoms: C_5  and  C_38
REMARK    5  A    between atoms: C_7  and  S_8
REMARK    6  A    between atoms: S_8  and  C_9
REMARK    7  A    between atoms: C_12  and  N_16
REMARK    8  A    between atoms: N_16  and  C_17
REMARK    9  A    between atoms: C_20  and  O_36
REMARK   10  A    between atoms: C_21  and  N_29
REMARK   11  A    between atoms: C_26  and  C_27
REMARK   12  A    between atoms: N_29  and  C_30
REMARK   13  A    between atoms: C_30  and  C_31
REMARK   14  A    between atoms: C_31  and  C_32
REMARK   15  A    between atoms: C_32  and  N_33
REMARK   16  A    between atoms: N_33  and  C_34
REMARK   17  A    between atoms: N_33  and  C_35
REMARK   18  A    between atoms: O_36  and  C_37
REMARK                            x       y       z     vdW  Elec       q    Type
REMARK                         _______ _______ _______ _____ _____    ______ ____
ROOT
ATOM      1  C   UNL     1       9.647  -2.214  -1.472  0.00  0.00    +0.060 A 
ATOM      2  C   UNL     1      10.917  -2.357  -2.076  0.00  0.00    +0.026 A 
ATOM      3  C   UNL     1      11.060  -2.336  -3.472  0.00  0.00    +0.059 A 
ATOM      4  C   UNL     1      12.296  -2.475  -4.031  0.00  0.00    +0.142 A 
ATOM      5  C   UNL     1      13.431  -2.641  -3.221  0.00  0.00    +0.071 A 
ATOM      6  C   UNL     1      13.317  -2.665  -1.847  0.00  0.00    +0.055 A 
ATOM      7  C   UNL     1      12.055  -2.523  -1.251  0.00  0.00    +0.075 A 
ATOM      8  N   UNL     1      11.925  -2.543   0.084  0.00  0.00    -0.254 NA
ATOM      9  C   UNL     1      10.762  -2.412   0.669  0.00  0.00    +0.132 A 
ATOM     10  C   UNL     1       9.582  -2.238  -0.070  0.00  0.00    +0.091 A 
ENDROOT
BRANCH   1  11
ATOM     11  N   UNL     1       8.509  -2.050  -2.236  0.00  0.00    -0.313 N 
ATOM     12  H   UNL     1       8.217  -1.159  -2.487  0.00  0.00    +0.152 HD
BRANCH  11  16
ATOM     13  C   UNL     1       6.323  -5.381  -3.465  0.00  0.00    +0.034 A 
ATOM     14  C   UNL     1       5.842  -4.102  -3.718  0.00  0.00    +0.018 A 
ATOM     15  C   UNL     1       6.566  -3.000  -3.312  0.00  0.00    +0.024 A 
ATOM     16  C   UNL     1       7.775  -3.168  -2.648  0.00  0.00    +0.033 A 
ATOM     17  C   UNL     1       8.257  -4.446  -2.394  0.00  0.00    +0.044 A 
ATOM     18  C   UNL     1       7.529  -5.550  -2.796  0.00  0.00    +0.057 A 
ATOM     19 CL   UNL     1       8.126  -7.147  -2.472  0.00  0.00    -0.082 Cl
BRANCH  13  20
ATOM     20  S   UNL     1       5.399  -6.788  -3.984  0.00  0.00    -0.050 S 
BRANCH  20  25
ATOM     21  N   UNL     1       6.005  -8.525  -6.077  0.00  0.00    -0.323 N 
ATOM     22  C   UNL     1       6.928  -8.613  -7.095  0.00  0.00    +0.039 A 
ATOM     23  C   UNL     1       7.732  -7.541  -6.989  0.00  0.00    +0.060 A 
ATOM     24  N   UNL     1       7.324  -6.808  -5.940  0.00  0.00    -0.227 NA
ATOM     25  C   UNL     1       6.283  -7.385  -5.386  0.00  0.00    +0.174 A 
ATOM     26  C   UNL     1       8.893  -7.217  -7.893  0.00  0.00    +0.067 C 
ATOM     27  C   UNL     1       7.019  -9.704  -8.130  0.00  0.00    +0.065 C 
BRANCH  21  29
ATOM     28  C   UNL     1       3.670  -9.062  -6.567  0.00  0.00    +0.027 C 
ATOM     29  C   UNL     1       4.925  -9.474  -5.795  0.00  0.00    +0.120 C 
ENDBRANCH  21  29
ENDBRANCH  20  25
ENDBRANCH  13  20
ENDBRANCH  11  16
ENDBRANCH   1  11
BRANCH  10  30
ATOM     30  C   UNL     1       8.324  -2.092   0.598  0.00  0.00    +0.103 C 
ATOM     31  N   UNL     1       7.326  -1.977   1.129  0.00  0.00    -0.191 NA
ENDBRANCH  10  30
BRANCH   5  32
ATOM     32  N   UNL     1      14.687  -2.782  -3.812  0.00  0.00    -0.341 N 
ATOM     33  H   UNL     1      14.773  -2.766  -4.778  0.00  0.00    +0.146 HD
BRANCH  32  34
ATOM     34  C   UNL     1      15.876  -2.955  -2.974  0.00  0.00    +0.100 C 
BRANCH  34  35
ATOM     35  C   UNL     1      17.113  -3.085  -3.864  0.00  0.00    -0.000 C 
BRANCH  35  36
ATOM     36  C   UNL     1      18.355  -3.266  -2.989  0.00  0.00    -0.078 C 
BRANCH  36  37
ATOM     37  N   UNL     1      19.543  -3.391  -3.844  0.00  0.00    +0.376 N 
ATOM     38  C   UNL     1      19.758  -2.132  -4.570  0.00  0.00    -0.097 C 
ATOM     39  C   UNL     1      20.717  -3.683  -3.011  0.00  0.00    -0.097 C 
ATOM     40  H   UNL     1      19.404  -4.141  -4.505  0.00  0.00    -0.083 HD
ENDBRANCH  36  37
ENDBRANCH  35  36
ENDBRANCH  34  35
ENDBRANCH  32  34
ENDBRANCH   5  32
BRANCH   4  41
ATOM     41  O   UNL     1      12.431  -2.455  -5.384  0.00  0.00    -0.493 OA
ATOM     42  C   UNL     1      11.239  -2.284  -6.152  0.00  0.00    +0.277 C 
ENDBRANCH   4  41
TORSDOF 12
