REMARK  Name = CHEMBL249082
REMARK  5 active torsions:
REMARK  status: ('A' for Active; 'I' for Inactive)
REMARK    1  A    between atoms: C_6  and  C_7
REMARK    2  A    between atoms: N_14  and  C_16
REMARK    3  A    between atoms: C_19  and  N_22
REMARK    4  A    between atoms: C_30  and  C_32
REMARK    5  A    between atoms: C_32  and  C_33
REMARK                            x       y       z     vdW  Elec       q    Type
REMARK                         _______ _______ _______ _____ _____    ______ ____
ROOT
ATOM      1  C   UNL     1      -1.135  -1.025   0.434  0.00  0.00    +0.105 A 
ATOM      2  C   UNL     1      -2.410  -0.549   0.972  0.00  0.00    +0.086 A 
ATOM      3  C   UNL     1      -2.826   0.594   1.675  0.00  0.00    +0.131 A 
ATOM      4  N   UNL     1      -4.108   0.694   2.014  0.00  0.00    -0.220 NA
ATOM      5  C   UNL     1      -4.972  -0.255   1.701  0.00  0.00    +0.225 A 
ATOM      6  N   UNL     1      -4.628  -1.341   1.045  0.00  0.00    -0.216 NA
ATOM      7  C   UNL     1      -3.366  -1.533   0.661  0.00  0.00    +0.164 A 
ATOM      8  N   UNL     1      -2.712  -2.522  -0.012  0.00  0.00    -0.243 N 
ATOM      9  N   UNL     1      -1.361  -2.184  -0.139  0.00  0.00    -0.168 NA
ATOM     10  N   UNL     1      -1.927   1.589   2.005  0.00  0.00    -0.342 N 
ATOM     11  H   UNL     1      -1.065   1.631   1.562  0.00  0.00    +0.144 HD
ATOM     12  H   UNL     1      -2.158   2.247   2.680  0.00  0.00    +0.144 HD
ENDROOT
BRANCH   1  18
ATOM     13  C   UNL     1       0.991  -0.248  -0.613  0.00  0.00    +0.012 A 
ATOM     14  C   UNL     1       2.192   0.393  -0.553  0.00  0.00    +0.030 A 
ATOM     15  C   UNL     1       2.613   0.982   0.644  0.00  0.00    +0.089 A 
ATOM     16  C   UNL     1       1.791   0.908   1.783  0.00  0.00    +0.067 A 
ATOM     17  C   UNL     1       0.571   0.255   1.714  0.00  0.00    +0.038 A 
ATOM     18  C   UNL     1       0.168  -0.325   0.515  0.00  0.00    +0.005 A 
ATOM     19  N   UNL     1       2.470   1.571   2.786  0.00  0.00    -0.342 N 
ATOM     20  C   UNL     1       3.642   2.015   2.257  0.00  0.00    +0.113 A 
ATOM     21  N   UNL     1       3.726   1.670   1.005  0.00  0.00    -0.232 NA
ATOM     22  H   UNL     1       2.167   1.697   3.699  0.00  0.00    +0.167 HD
BRANCH  20  23
ATOM     23  C   UNL     1       4.690   2.791   3.011  0.00  0.00    +0.109 C 
BRANCH  23  24
ATOM     24  C   UNL     1       6.016   2.084   2.899  0.00  0.00    -0.033 A 
ATOM     25  C   UNL     1       6.383   1.129   3.829  0.00  0.00    +0.011 A 
ATOM     26  C   UNL     1       7.583   0.512   3.699  0.00  0.00    +0.045 A 
ATOM     27  S   UNL     1       8.237   1.282   2.227  0.00  0.00    -0.105 S 
ATOM     28  C   UNL     1       6.865   2.370   1.881  0.00  0.00    +0.049 A 
ENDBRANCH  23  24
ENDBRANCH  20  23
ENDBRANCH   1  18
BRANCH   8  29
ATOM     29  C   UNL     1      -3.330  -3.746  -0.527  0.00  0.00    +0.110 C 
ATOM     30  C   UNL     1      -2.665  -4.964   0.119  0.00  0.00    +0.028 C 
ATOM     31  C   UNL     1      -3.310  -6.242  -0.419  0.00  0.00    +0.021 C 
ATOM     32  C   UNL     1      -3.128  -6.307  -1.937  0.00  0.00    +0.057 C 
ATOM     33  C   UNL     1      -3.793  -5.089  -2.582  0.00  0.00    +0.021 C 
ATOM     34  C   UNL     1      -3.148  -3.811  -2.045  0.00  0.00    +0.028 C 
BRANCH  32  35
ATOM     35  N   UNL     1      -3.747  -7.535  -2.453  0.00  0.00    -0.295 NA
ATOM     36  C   UNL     1      -3.192  -8.723  -1.790  0.00  0.00    +0.113 C 
ATOM     37  C   UNL     1      -3.905  -9.973  -2.314  0.00  0.00    +0.175 C 
ATOM     38  O   UNL     1      -3.770 -10.033  -3.736  0.00  0.00    -0.377 OA
ATOM     39  C   UNL     1      -4.301  -8.890  -4.414  0.00  0.00    +0.175 C 
ATOM     40  C   UNL     1      -3.591  -7.630  -3.912  0.00  0.00    +0.113 C 
ENDBRANCH  32  35
ENDBRANCH   8  29
TORSDOF 5
