REMARK  Name = CHEMBL1077305
REMARK  9 active torsions:
REMARK  status: ('A' for Active; 'I' for Inactive)
REMARK    1  A    between atoms: C_1  and  N_2
REMARK    2  A    between atoms: C_5  and  C_8
REMARK    3  A    between atoms: C_11  and  N_14
REMARK    4  A    between atoms: C_17  and  C_19
REMARK    5  A    between atoms: C_27  and  C_29
REMARK    6  A    between atoms: C_29  and  C_30
REMARK    7  A    between atoms: C_35  and  O_36
REMARK    8  A    between atoms: O_36  and  C_37
REMARK    9  A    between atoms: C_38  and  N_42
REMARK                            x       y       z     vdW  Elec       q    Type
REMARK                         _______ _______ _______ _____ _____    ______ ____
ROOT
ATOM      1  N   UNL     1      -1.532  -8.324   1.701  0.00  0.00    -0.243 N 
ATOM      2  C   UNL     1      -1.600  -9.169   2.768  0.00  0.00    +0.164 A 
ATOM      3  C   UNL     1      -1.235 -10.446   2.302  0.00  0.00    +0.086 A 
ATOM      4  C   UNL     1      -0.944 -10.299   0.876  0.00  0.00    +0.105 A 
ATOM      5  N   UNL     1      -1.137  -9.039   0.565  0.00  0.00    -0.168 NA
ATOM      6  C   UNL     1      -1.223 -11.515   3.213  0.00  0.00    +0.131 A 
ATOM      7  N   UNL     1      -1.557 -11.271   4.476  0.00  0.00    -0.220 NA
ATOM      8  C   UNL     1      -1.893 -10.056   4.871  0.00  0.00    +0.225 A 
ATOM      9  N   UNL     1      -1.919  -9.025   4.054  0.00  0.00    -0.216 NA
ENDROOT
BRANCH   4  10
ATOM     10  C   UNL     1      -0.517 -11.376  -0.048  0.00  0.00    +0.005 A 
ATOM     11  C   UNL     1      -1.167 -12.615  -0.025  0.00  0.00    +0.012 A 
ATOM     12  C   UNL     1      -0.784 -13.614  -0.869  0.00  0.00    +0.030 A 
ATOM     13  C   UNL     1       0.267 -13.407  -1.769  0.00  0.00    +0.089 A 
ATOM     14  C   UNL     1       0.924 -12.164  -1.798  0.00  0.00    +0.067 A 
ATOM     15  C   UNL     1       0.526 -11.151  -0.941  0.00  0.00    +0.038 A 
ATOM     16  N   UNL     1       1.896 -12.270  -2.773  0.00  0.00    -0.342 N 
ATOM     17  H   UNL     1       2.523 -11.579  -3.038  0.00  0.00    +0.167 HD
ATOM     18  C   UNL     1       1.811 -13.524  -3.294  0.00  0.00    +0.113 A 
ATOM     19  N   UNL     1       0.859 -14.189  -2.707  0.00  0.00    -0.232 NA
BRANCH  18  20
ATOM     20  C   UNL     1       2.693 -14.065  -4.391  0.00  0.00    +0.113 C 
BRANCH  20  21
ATOM     21  C   UNL     1       3.349 -15.339  -3.925  0.00  0.00    +0.002 A 
ATOM     22  C   UNL     1       4.614 -15.303  -3.371  0.00  0.00    +0.007 A 
ATOM     23  C   UNL     1       5.216 -16.472  -2.944  0.00  0.00    +0.001 A 
ATOM     24  C   UNL     1       4.555 -17.680  -3.070  0.00  0.00    +0.004 A 
ATOM     25  C   UNL     1       3.290 -17.721  -3.624  0.00  0.00    +0.046 A 
ATOM     26  C   UNL     1       2.681 -16.549  -4.048  0.00  0.00    +0.124 A 
BRANCH  26  27
ATOM     27  O   UNL     1       1.434 -16.586  -4.587  0.00  0.00    -0.495 OA
ATOM     28  C   UNL     1       0.807 -17.867  -4.683  0.00  0.00    +0.277 C 
ENDBRANCH  26  27
ENDBRANCH  20  21
ENDBRANCH  18  20
ENDBRANCH   4  10
BRANCH   1  32
ATOM     29  C   UNL     1      -2.062  -4.299   0.388  0.00  0.00    -0.008 C 
ATOM     30  C   UNL     1      -3.300  -5.090   0.817  0.00  0.00    +0.006 C 
ATOM     31  C   UNL     1      -2.987  -6.587   0.780  0.00  0.00    +0.027 C 
ATOM     32  C   UNL     1      -1.831  -6.890   1.736  0.00  0.00    +0.109 C 
ATOM     33  C   UNL     1      -0.594  -6.100   1.307  0.00  0.00    +0.027 C 
ATOM     34  C   UNL     1      -0.907  -4.603   1.344  0.00  0.00    +0.006 C 
BRANCH  29  39
ATOM     35  C   UNL     1      -2.853   1.151  -1.092  0.00  0.00    -0.096 C 
ATOM     36  N   UNL     1      -2.579  -0.289  -1.002  0.00  0.00    +0.378 N 
ATOM     37  C   UNL     1      -3.787  -0.988  -0.549  0.00  0.00    -0.079 C 
ATOM     38  C   UNL     1      -3.532  -2.497  -0.531  0.00  0.00    -0.015 C 
ATOM     39  C   UNL     1      -2.375  -2.802   0.425  0.00  0.00    -0.011 C 
ATOM     40  C   UNL     1      -1.141  -2.010  -0.014  0.00  0.00    -0.015 C 
ATOM     41  C   UNL     1      -1.484  -0.519  -0.051  0.00  0.00    -0.079 C 
ATOM     42  H   UNL     1      -2.312  -0.637  -1.911  0.00  0.00    -0.082 HD
ENDBRANCH  29  39
ENDBRANCH   1  32
BRANCH   6  43
ATOM     43  N   UNL     1      -0.873 -12.788   2.806  0.00  0.00    -0.342 N 
ATOM     44  H   UNL     1      -0.414 -12.918   1.962  0.00  0.00    +0.144 HD
ATOM     45  H   UNL     1      -1.085 -13.551   3.366  0.00  0.00    +0.144 HD
ENDBRANCH   6  43
TORSDOF 7
