REMARK  Name = CHEMBL463322
REMARK  10 active torsions:
REMARK  status: ('A' for Active; 'I' for Inactive)
REMARK    1  A    between atoms: C_1  and  C_2
REMARK    2  A    between atoms: C_2  and  C_3
REMARK    3  A    between atoms: C_2  and  N_4
REMARK    4  A    between atoms: N_7  and  C_10
REMARK    5  A    between atoms: C_13  and  N_18
REMARK    6  A    between atoms: C_14  and  O_16
REMARK    7  A    between atoms: O_16  and  C_17
REMARK    8  A    between atoms: C_27  and  N_29
REMARK    9  A    between atoms: N_29  and  C_30
REMARK   10  A    between atoms: C_35  and  N_36
REMARK                            x       y       z     vdW  Elec       q    Type
REMARK                         _______ _______ _______ _____ _____    ______ ____
ROOT
ATOM      1  N   UNL     1      -0.176  -5.129   7.954  0.00  0.00    -0.281 N 
ATOM      2  C   UNL     1       0.566  -6.273   8.197  0.00  0.00    +0.223 A 
ATOM      3  N   UNL     1       1.613  -6.527   7.430  0.00  0.00    -0.196 NA
ATOM      4  C   UNL     1       2.353  -7.617   7.630  0.00  0.00    +0.145 A 
ATOM      5  C   UNL     1       1.998  -8.491   8.673  0.00  0.00    +0.059 A 
ATOM      6  C   UNL     1       2.977  -9.577   8.648  0.00  0.00    +0.032 A 
ATOM      7  C   UNL     1       3.825  -9.311   7.642  0.00  0.00    +0.085 A 
ATOM      8  N   UNL     1       3.463  -8.140   7.025  0.00  0.00    -0.346 N 
ATOM      9  H   UNL     1       3.925  -7.742   6.271  0.00  0.00    +0.167 HD
ATOM     10  C   UNL     1       0.878  -8.182   9.462  0.00  0.00    +0.137 A 
ATOM     11  N   UNL     1       0.202  -7.070   9.194  0.00  0.00    -0.198 NA
ATOM     12  H   UNL     1      -0.896  -4.880   8.555  0.00  0.00    +0.155 HD
ENDROOT
BRANCH   1  16
ATOM     13  C   UNL     1       0.684  -2.749   4.632  0.00  0.00    +0.033 A 
ATOM     14  C   UNL     1       0.836  -4.128   4.560  0.00  0.00    +0.025 A 
ATOM     15  C   UNL     1       0.552  -4.915   5.659  0.00  0.00    +0.029 A 
ATOM     16  C   UNL     1       0.113  -4.329   6.838  0.00  0.00    +0.076 A 
ATOM     17  C   UNL     1      -0.041  -2.946   6.912  0.00  0.00    +0.143 A 
ATOM     18  C   UNL     1       0.250  -2.159   5.811  0.00  0.00    +0.070 A 
BRANCH  13  22
ATOM     19  N   UNL     1       2.395  -0.308   1.762  0.00  0.00    +0.383 N 
ATOM     20  C   UNL     1       1.980   0.219   3.068  0.00  0.00    -0.059 C 
ATOM     21  C   UNL     1       0.713  -0.507   3.532  0.00  0.00    +0.086 C 
ATOM     22  N   UNL     1       0.973  -1.954   3.517  0.00  0.00    -0.333 N 
ATOM     23  C   UNL     1       1.546  -2.543   2.296  0.00  0.00    +0.086 C 
ATOM     24  C   UNL     1       2.774  -1.721   1.891  0.00  0.00    -0.059 C 
ATOM     25  H   UNL     1       1.630  -0.224   1.110  0.00  0.00    -0.081 HD
BRANCH  19  27
ATOM     26  C   UNL     1       3.971  -0.080  -0.098  0.00  0.00    -0.014 C 
ATOM     27  C   UNL     1       3.544   0.461   1.268  0.00  0.00    -0.075 C 
ATOM     28  C   UNL     1       3.152   1.934   1.133  0.00  0.00    -0.014 C 
ENDBRANCH  19  27
ENDBRANCH  13  22
BRANCH  17  29
ATOM     29  O   UNL     1      -0.471  -2.371   8.067  0.00  0.00    -0.493 OA
ATOM     30  C   UNL     1      -0.606  -0.948   8.071  0.00  0.00    +0.277 C 
ENDBRANCH  17  29
ENDBRANCH   1  16
BRANCH  10  31
ATOM     31  N   UNL     1       0.492  -9.014  10.499  0.00  0.00    -0.297 N 
ATOM     32  H   UNL     1       0.940  -9.863  10.632  0.00  0.00    +0.154 HD
BRANCH  31  33
ATOM     33  C   UNL     1      -0.545  -8.629  11.354  0.00  0.00    +0.058 A 
ATOM     34  C   UNL     1      -0.837  -7.284  11.533  0.00  0.00    +0.025 A 
ATOM     35  C   UNL     1      -1.862  -6.906  12.379  0.00  0.00    +0.002 A 
ATOM     36  C   UNL     1      -2.600  -7.864  13.049  0.00  0.00    +0.002 A 
ATOM     37  C   UNL     1      -2.317  -9.206  12.877  0.00  0.00    +0.029 A 
ATOM     38  C   UNL     1      -1.293  -9.595  12.026  0.00  0.00    +0.086 A 
BRANCH  38  39
ATOM     39  N   UNL     1      -1.008 -10.956  11.845  0.00  0.00    -0.238 N 
ATOM     40  C   UNL     1      -1.713 -11.992  12.354  0.00  0.00    +0.114 A 
ATOM     41  C   UNL     1      -1.114 -13.136  11.950  0.00  0.00    +0.041 A 
ATOM     42  C   UNL     1      -0.006 -12.790  11.169  0.00  0.00    +0.135 A 
ATOM     43  N   UNL     1       0.055 -11.484  11.101  0.00  0.00    -0.175 NA
ENDBRANCH  38  39
ENDBRANCH  31  33
ENDBRANCH  10  31
TORSDOF 7
