REMARK  Name = CHEMBL475073
REMARK  10 active torsions:
REMARK  status: ('A' for Active; 'I' for Inactive)
REMARK    1  A    between atoms: C_1  and  C_2
REMARK    2  A    between atoms: C_2  and  C_3
REMARK    3  A    between atoms: C_2  and  N_4
REMARK    4  A    between atoms: N_7  and  C_10
REMARK    5  A    between atoms: C_13  and  N_18
REMARK    6  A    between atoms: C_14  and  O_16
REMARK    7  A    between atoms: O_16  and  C_17
REMARK    8  A    between atoms: C_27  and  N_29
REMARK    9  A    between atoms: N_29  and  C_30
REMARK   10  A    between atoms: C_35  and  C_36
REMARK                            x       y       z     vdW  Elec       q    Type
REMARK                         _______ _______ _______ _____ _____    ______ ____
ROOT
ATOM      1  N   UNL     1      -6.777  -5.136  -4.197  0.00  0.00    -0.281 N 
ATOM      2  C   UNL     1      -7.298  -6.327  -3.717  0.00  0.00    +0.223 A 
ATOM      3  N   UNL     1      -7.113  -6.636  -2.445  0.00  0.00    -0.196 NA
ATOM      4  C   UNL     1      -7.597  -7.771  -1.944  0.00  0.00    +0.145 A 
ATOM      5  C   UNL     1      -8.310  -8.634  -2.797  0.00  0.00    +0.059 A 
ATOM      6  C   UNL     1      -8.710  -9.778  -1.978  0.00  0.00    +0.032 A 
ATOM      7  C   UNL     1      -8.241  -9.553  -0.741  0.00  0.00    +0.085 A 
ATOM      8  N   UNL     1      -7.573  -8.355  -0.707  0.00  0.00    -0.346 N 
ATOM      9  H   UNL     1      -7.146  -7.977   0.078  0.00  0.00    +0.167 HD
ATOM     10  C   UNL     1      -8.482  -8.266  -4.140  0.00  0.00    +0.137 A 
ATOM     11  N   UNL     1      -7.969  -7.112  -4.552  0.00  0.00    -0.198 NA
ATOM     12  H   UNL     1      -6.979  -4.847  -5.101  0.00  0.00    +0.155 HD
ENDROOT
BRANCH   1  16
ATOM     13  C   UNL     1      -4.336  -2.791  -1.752  0.00  0.00    +0.033 A 
ATOM     14  C   UNL     1      -4.304  -4.175  -1.646  0.00  0.00    +0.025 A 
ATOM     15  C   UNL     1      -5.112  -4.951  -2.455  0.00  0.00    +0.029 A 
ATOM     16  C   UNL     1      -5.957  -4.348  -3.375  0.00  0.00    +0.076 A 
ATOM     17  C   UNL     1      -5.990  -2.959  -3.483  0.00  0.00    +0.143 A 
ATOM     18  C   UNL     1      -5.184  -2.183  -2.667  0.00  0.00    +0.070 A 
BRANCH  13  22
ATOM     19  N   UNL     1      -2.700  -0.427   1.225  0.00  0.00    +0.383 N 
ATOM     20  C   UNL     1      -3.662   0.116   0.257  0.00  0.00    -0.059 C 
ATOM     21  C   UNL     1      -3.443  -0.549  -1.106  0.00  0.00    +0.086 C 
ATOM     22  N   UNL     1      -3.516  -2.008  -0.931  0.00  0.00    -0.333 N 
ATOM     23  C   UNL     1      -2.704  -2.620   0.132  0.00  0.00    +0.086 C 
ATOM     24  C   UNL     1      -2.957  -1.858   1.437  0.00  0.00    -0.059 C 
ATOM     25  H   UNL     1      -1.763  -0.304   0.870  0.00  0.00    -0.081 HD
BRANCH  19  27
ATOM     26  C   UNL     1      -1.827  -0.270   3.507  0.00  0.00    -0.014 C 
ATOM     27  C   UNL     1      -2.836   0.287   2.501  0.00  0.00    -0.075 C 
ATOM     28  C   UNL     1      -2.568   1.777   2.282  0.00  0.00    -0.014 C 
ENDBRANCH  19  27
ENDBRANCH  13  22
BRANCH  17  29
ATOM     29  O   UNL     1      -6.818  -2.367  -4.385  0.00  0.00    -0.493 OA
ATOM     30  C   UNL     1      -6.800  -0.939  -4.441  0.00  0.00    +0.277 C 
ENDBRANCH  17  29
ENDBRANCH   1  16
BRANCH  10  31
ATOM     31  N   UNL     1      -9.176  -9.085  -5.015  0.00  0.00    -0.298 N 
ATOM     32  H   UNL     1      -9.499  -9.950  -4.718  0.00  0.00    +0.154 HD
BRANCH  31  33
ATOM     33  C   UNL     1      -9.411  -8.667  -6.322  0.00  0.00    +0.048 A 
ATOM     34  C   UNL     1      -8.460  -7.909  -6.992  0.00  0.00    +0.065 A 
ATOM     35  C   UNL     1      -8.694  -7.495  -8.290  0.00  0.00    +0.160 A 
ATOM     36  C   UNL     1      -9.881  -7.832  -8.932  0.00  0.00    +0.159 A 
ATOM     37  C   UNL     1     -10.834  -8.584  -8.280  0.00  0.00    +0.056 A 
ATOM     38  C   UNL     1     -10.607  -9.014  -6.969  0.00  0.00    +0.060 A 
ATOM     39  F   UNL     1     -10.100  -7.421 -10.200  0.00  0.00    -0.202 F 
ATOM     40  F   UNL     1      -7.766  -6.757  -8.938  0.00  0.00    -0.202 F 
BRANCH  38  41
ATOM     41  C   UNL     1     -11.620  -9.823  -6.268  0.00  0.00    +0.243 C 
ATOM     42  O   UNL     1     -11.469 -10.104  -5.095  0.00  0.00    -0.270 OA
ATOM     43  N   UNL     1     -12.714 -10.252  -6.928  0.00  0.00    -0.325 N 
ATOM     44  H   UNL     1     -12.835 -10.027  -7.864  0.00  0.00    +0.145 HD
ATOM     45  H   UNL     1     -13.381 -10.784  -6.467  0.00  0.00    +0.145 HD
ENDBRANCH  38  41
ENDBRANCH  31  33
ENDBRANCH  10  31
TORSDOF 7
