REMARK  Name = CHEMBL514718
REMARK  10 active torsions:
REMARK  status: ('A' for Active; 'I' for Inactive)
REMARK    1  A    between atoms: C_1  and  C_2
REMARK    2  A    between atoms: C_2  and  C_3
REMARK    3  A    between atoms: C_2  and  N_4
REMARK    4  A    between atoms: N_7  and  C_10
REMARK    5  A    between atoms: C_13  and  N_18
REMARK    6  A    between atoms: C_14  and  O_16
REMARK    7  A    between atoms: O_16  and  C_17
REMARK    8  A    between atoms: C_27  and  N_29
REMARK    9  A    between atoms: N_29  and  C_30
REMARK   10  A    between atoms: C_34  and  C_35
REMARK                            x       y       z     vdW  Elec       q    Type
REMARK                         _______ _______ _______ _____ _____    ______ ____
ROOT
ATOM      1  N   UNL     1      -7.795  -4.716  -3.908  0.00  0.00    -0.281 N 
ATOM      2  C   UNL     1      -8.103  -6.002  -3.494  0.00  0.00    +0.223 A 
ATOM      3  N   UNL     1      -8.006  -6.297  -2.208  0.00  0.00    -0.196 NA
ATOM      4  C   UNL     1      -8.294  -7.521  -1.769  0.00  0.00    +0.145 A 
ATOM      5  C   UNL     1      -8.703  -8.493  -2.700  0.00  0.00    +0.059 A 
ATOM      6  C   UNL     1      -8.944  -9.716  -1.935  0.00  0.00    +0.032 A 
ATOM      7  C   UNL     1      -8.681  -9.428  -0.650  0.00  0.00    +0.085 A 
ATOM      8  N   UNL     1      -8.291  -8.117  -0.538  0.00  0.00    -0.346 N 
ATOM      9  H   UNL     1      -8.049  -7.678   0.292  0.00  0.00    +0.167 HD
ATOM     10  C   UNL     1      -8.791  -8.136  -4.055  0.00  0.00    +0.137 A 
ATOM     11  N   UNL     1      -8.490  -6.889  -4.402  0.00  0.00    -0.198 NA
ATOM     12  H   UNL     1      -7.953  -4.451  -4.827  0.00  0.00    +0.155 HD
ENDROOT
BRANCH   1  16
ATOM     13  C   UNL     1      -6.181  -1.981  -1.196  0.00  0.00    +0.033 A 
ATOM     14  C   UNL     1      -6.023  -3.345  -0.987  0.00  0.00    +0.025 A 
ATOM     15  C   UNL     1      -6.557  -4.249  -1.885  0.00  0.00    +0.029 A 
ATOM     16  C   UNL     1      -7.253  -3.797  -2.996  0.00  0.00    +0.076 A 
ATOM     17  C   UNL     1      -7.413  -2.429  -3.207  0.00  0.00    +0.143 A 
ATOM     18  C   UNL     1      -6.882  -1.524  -2.304  0.00  0.00    +0.070 A 
BRANCH  13  22
ATOM     19  N   UNL     1      -5.459   0.695   1.877  0.00  0.00    +0.383 N 
ATOM     20  C   UNL     1      -6.261   1.071   0.706  0.00  0.00    -0.059 C 
ATOM     21  C   UNL     1      -5.698   0.381  -0.541  0.00  0.00    +0.086 C 
ATOM     22  N   UNL     1      -5.639  -1.067  -0.286  0.00  0.00    -0.333 N 
ATOM     23  C   UNL     1      -4.993  -1.526   0.954  0.00  0.00    +0.086 C 
ATOM     24  C   UNL     1      -5.590  -0.746   2.130  0.00  0.00    -0.059 C 
ATOM     25  H   UNL     1      -4.491   0.918   1.704  0.00  0.00    -0.081 HD
BRANCH  19  27
ATOM     26  C   UNL     1      -5.089   1.058   4.270  0.00  0.00    -0.014 C 
ATOM     27  C   UNL     1      -5.931   1.441   3.051  0.00  0.00    -0.075 C 
ATOM     28  C   UNL     1      -5.796   2.942   2.789  0.00  0.00    -0.014 C 
ENDBRANCH  19  27
ENDBRANCH  13  22
BRANCH  17  29
ATOM     29  O   UNL     1      -8.095  -1.984  -4.296  0.00  0.00    -0.493 OA
ATOM     30  C   UNL     1      -8.220  -0.569  -4.449  0.00  0.00    +0.277 C 
ENDBRANCH  17  29
ENDBRANCH   1  16
BRANCH  10  31
ATOM     31  N   UNL     1      -9.189  -9.060  -5.006  0.00  0.00    -0.298 N 
ATOM     32  H   UNL     1      -9.309  -9.990  -4.758  0.00  0.00    +0.154 HD
BRANCH  31  33
ATOM     33  C   UNL     1      -9.416  -8.653  -6.319  0.00  0.00    +0.052 A 
ATOM     34  C   UNL     1      -9.455  -7.321  -6.684  0.00  0.00    +0.031 A 
ATOM     35  C   UNL     1      -9.680  -7.000  -7.979  0.00  0.00    +0.048 A 
ATOM     36  S   UNL     1      -9.849  -8.480  -8.754  0.00  0.00    -0.090 S 
ATOM     37  C   UNL     1      -9.615  -9.563  -7.357  0.00  0.00    +0.095 A 
BRANCH  37  38
ATOM     38  C   UNL     1      -9.630 -10.979  -7.313  0.00  0.00    +0.250 C 
ATOM     39  O   UNL     1      -9.451 -11.557  -6.256  0.00  0.00    -0.270 OA
ATOM     40  N   UNL     1      -9.841 -11.686  -8.441  0.00  0.00    -0.325 N 
ATOM     41  H   UNL     1      -9.983 -11.226  -9.283  0.00  0.00    +0.145 HD
ATOM     42  H   UNL     1      -9.851 -12.655  -8.411  0.00  0.00    +0.145 HD
ENDBRANCH  37  38
ENDBRANCH  31  33
ENDBRANCH  10  31
TORSDOF 7
