REMARK  Name = CHEMBL455208
REMARK  7 active torsions:
REMARK  status: ('A' for Active; 'I' for Inactive)
REMARK    1  A    between atoms: C_1  and  O_2
REMARK    2  A    between atoms: O_2  and  C_3
REMARK    3  A    between atoms: C_8  and  C_9
REMARK    4  A    between atoms: C_9  and  C_10
REMARK    5  A    between atoms: C_15  and  C_20
REMARK    6  A    between atoms: N_27  and  C_29
REMARK    7  A    between atoms: C_32  and  N_35
REMARK                            x       y       z     vdW  Elec       q    Type
REMARK                         _______ _______ _______ _____ _____    ______ ____
ROOT
ATOM      1  C   UNL     1       2.844  -5.186   6.375  0.00  0.00    +0.105 A 
ATOM      2  C   UNL     1       3.749  -4.766   7.445  0.00  0.00    +0.086 A 
ATOM      3  C   UNL     1       4.507  -3.613   7.709  0.00  0.00    +0.131 A 
ATOM      4  N   UNL     1       5.240  -3.580   8.818  0.00  0.00    -0.220 NA
ATOM      5  C   UNL     1       5.258  -4.603   9.654  0.00  0.00    +0.225 A 
ATOM      6  N   UNL     1       4.566  -5.702   9.448  0.00  0.00    -0.216 NA
ATOM      7  C   UNL     1       3.800  -5.830   8.365  0.00  0.00    +0.164 A 
ATOM      8  N   UNL     1       2.988  -6.812   7.880  0.00  0.00    -0.243 N 
ATOM      9  N   UNL     1       2.417  -6.390   6.675  0.00  0.00    -0.168 NA
ATOM     10  N   UNL     1       4.492  -2.541   6.839  0.00  0.00    -0.342 N 
ATOM     11  H   UNL     1       3.792  -2.469   6.170  0.00  0.00    +0.144 HD
ATOM     12  H   UNL     1       5.180  -1.860   6.896  0.00  0.00    +0.144 HD
ENDROOT
BRANCH   1  18
ATOM     13  C   UNL     1       2.912  -1.728   1.537  0.00  0.00    +0.113 A 
ATOM     14  N   UNL     1       3.808  -2.216   2.436  0.00  0.00    -0.342 N 
ATOM     15  H   UNL     1       4.764  -2.056   2.440  0.00  0.00    +0.167 HD
ATOM     16  C   UNL     1       3.102  -2.982   3.344  0.00  0.00    +0.067 A 
ATOM     17  C   UNL     1       3.456  -3.719   4.462  0.00  0.00    +0.038 A 
ATOM     18  C   UNL     1       2.474  -4.396   5.178  0.00  0.00    +0.005 A 
ATOM     19  C   UNL     1       1.137  -4.333   4.769  0.00  0.00    +0.012 A 
ATOM     20  C   UNL     1       0.782  -3.610   3.669  0.00  0.00    +0.030 A 
ATOM     21  C   UNL     1       1.757  -2.922   2.938  0.00  0.00    +0.089 A 
ATOM     22  N   UNL     1       1.712  -2.135   1.833  0.00  0.00    -0.232 NA
BRANCH  13  23
ATOM     23  C   UNL     1       3.257  -0.838   0.370  0.00  0.00    +0.113 C 
BRANCH  23  29
ATOM     24  C   UNL     1       1.428  -1.239  -1.298  0.00  0.00    +0.124 A 
ATOM     25  C   UNL     1       0.957  -1.806  -2.474  0.00  0.00    +0.046 A 
ATOM     26  C   UNL     1       1.794  -2.588  -3.245  0.00  0.00    +0.004 A 
ATOM     27  C   UNL     1       3.100  -2.808  -2.847  0.00  0.00    +0.001 A 
ATOM     28  C   UNL     1       3.571  -2.245  -1.676  0.00  0.00    +0.007 A 
ATOM     29  C   UNL     1       2.740  -1.456  -0.903  0.00  0.00    +0.002 A 
BRANCH  24  31
ATOM     30  C   UNL     1      -0.731  -0.288  -1.005  0.00  0.00    +0.277 C 
ATOM     31  O   UNL     1       0.607  -0.469  -0.537  0.00  0.00    -0.495 OA
ENDBRANCH  24  31
ENDBRANCH  23  29
ENDBRANCH  13  23
ENDBRANCH   1  18
BRANCH   8  32
ATOM     32  C   UNL     1       2.746  -8.104   8.525  0.00  0.00    +0.109 C 
ATOM     33  C   UNL     1       3.184  -9.232   7.588  0.00  0.00    +0.025 C 
ATOM     34  C   UNL     1       2.931 -10.582   8.262  0.00  0.00    -0.013 C 
ATOM     35  C   UNL     1       1.440 -10.727   8.570  0.00  0.00    -0.068 C 
ATOM     36  C   UNL     1       1.001  -9.599   9.507  0.00  0.00    -0.013 C 
ATOM     37  C   UNL     1       1.254  -8.249   8.834  0.00  0.00    +0.025 C 
BRANCH  35  38
ATOM     38  N   UNL     1       1.197 -12.023   9.217  0.00  0.00    +0.383 N 
ATOM     39  C   UNL     1      -0.235 -12.161   9.515  0.00  0.00    -0.063 C 
ATOM     40  C   UNL     1      -0.486 -13.503  10.206  0.00  0.00    +0.062 C 
ATOM     41  N   UNL     1      -0.044 -14.594   9.325  0.00  0.00    -0.319 NA
ATOM     42  C   UNL     1       1.382 -14.455   8.998  0.00  0.00    +0.062 C 
ATOM     43  C   UNL     1       1.618 -13.105   8.317  0.00  0.00    -0.063 C 
ATOM     44  H   UNL     1      -0.234 -15.493   9.741  0.00  0.00    +0.122 HD
ATOM     45  H   UNL     1       1.725 -12.075  10.075  0.00  0.00    -0.081 HD
ENDBRANCH  35  38
ENDBRANCH   8  32
TORSDOF 6
