REMARK  Name = CHEMBL1091644
REMARK  4 active torsions:
REMARK  status: ('A' for Active; 'I' for Inactive)
REMARK    1  A    between atoms: C_1  and  C_2
REMARK    2  A    between atoms: C_4  and  C_6
REMARK    3  A    between atoms: C_8  and  C_16
REMARK    4  A    between atoms: C_22  and  C_26
REMARK                            x       y       z     vdW  Elec       q    Type
REMARK                         _______ _______ _______ _____ _____    ______ ____
ROOT
ATOM      1  C   UNL     1      -1.654  -1.886   2.622  0.00  0.00    +0.118 A 
ATOM      2  N   UNL     1      -1.582  -3.135   2.241  0.00  0.00    -0.231 NA
ATOM      3  C   UNL     1      -1.605  -3.940   3.316  0.00  0.00    +0.100 A 
ATOM      4  C   UNL     1      -1.699  -3.122   4.435  0.00  0.00    +0.113 A 
ATOM      5  N   UNL     1      -1.722  -1.824   3.964  0.00  0.00    -0.298 N 
ATOM      6  C   UNL     1      -1.806  -0.793   4.872  0.00  0.00    +0.113 A 
ATOM      7  C   UNL     1      -1.860  -1.063   6.189  0.00  0.00    +0.131 A 
ATOM      8  N   UNL     1      -1.834  -2.320   6.649  0.00  0.00    -0.237 NA
ATOM      9  C   UNL     1      -1.764  -3.350   5.826  0.00  0.00    +0.142 A 
ATOM     10  N   UNL     1      -1.737  -4.641   6.324  0.00  0.00    -0.341 N 
ATOM     11  H   UNL     1      -1.385  -5.364   5.780  0.00  0.00    +0.144 HD
ATOM     12  H   UNL     1      -2.070  -4.824   7.217  0.00  0.00    +0.144 HD
ENDROOT
BRANCH   3  13
ATOM     13  C   UNL     1      -1.544  -5.417   3.309  0.00  0.00    +0.005 A 
ATOM     14  C   UNL     1      -2.428  -6.155   4.116  0.00  0.00    +0.011 A 
ATOM     15  C   UNL     1      -2.389  -7.513   4.126  0.00  0.00    +0.010 A 
ATOM     16  C   UNL     1      -1.458  -8.195   3.324  0.00  0.00    +0.000 A 
ATOM     17  C   UNL     1      -1.399  -9.602   3.318  0.00  0.00    +0.012 A 
ATOM     18  C   UNL     1      -0.475 -10.209   2.520  0.00  0.00    +0.029 A 
ATOM     19  C   UNL     1       0.387  -9.430   1.732  0.00  0.00    +0.072 A 
ATOM     20  N   UNL     1       0.327  -8.113   1.743  0.00  0.00    -0.247 NA
ATOM     21  C   UNL     1      -0.559  -7.465   2.505  0.00  0.00    +0.072 A 
ATOM     22  C   UNL     1      -0.619  -6.062   2.504  0.00  0.00    +0.038 A 
BRANCH  19  23
ATOM     23  C   UNL     1       1.387 -10.104   0.869  0.00  0.00    +0.000 A 
ATOM     24  C   UNL     1       1.462 -11.495   0.840  0.00  0.00    +0.010 A 
ATOM     25  C   UNL     1       2.394 -12.117   0.034  0.00  0.00    +0.001 A 
ATOM     26  C   UNL     1       3.254 -11.361  -0.744  0.00  0.00    +0.000 A 
ATOM     27  C   UNL     1       3.183  -9.980  -0.719  0.00  0.00    +0.001 A 
ATOM     28  C   UNL     1       2.252  -9.348   0.079  0.00  0.00    +0.010 A 
ENDBRANCH  19  23
ENDBRANCH   3  13
BRANCH   1  32
ATOM     29  C   UNL     1      -1.710   1.343  -0.398  0.00  0.00    +0.045 C 
ATOM     30  C   UNL     1      -1.831  -0.181  -0.350  0.00  0.00    +0.103 C 
ATOM     31  C   UNL     1      -2.829  -0.687   0.705  0.00  0.00    +0.049 C 
ATOM     32  C   UNL     1      -1.654  -0.696   1.698  0.00  0.00    +0.061 C 
ATOM     33  C   UNL     1      -0.729  -0.861   0.480  0.00  0.00    +0.049 C 
ATOM     34  O   UNL     1      -2.016  -0.764  -1.642  0.00  0.00    -0.228 OA
ENDBRANCH   1  32
TORSDOF 3
