REMARK  Name = CHEMBL557725
REMARK  9 active torsions:
REMARK  status: ('A' for Active; 'I' for Inactive)
REMARK    1  A    between atoms: C_1  and  N_2
REMARK    2  A    between atoms: N_2  and  C_3
REMARK    3  A    between atoms: C_4  and  C_6
REMARK    4  A    between atoms: C_10  and  C_12
REMARK    5  A    between atoms: C_15  and  C_22
REMARK    6  A    between atoms: C_26  and  N_28
REMARK    7  A    between atoms: N_31  and  C_32
REMARK    8  A    between atoms: C_36  and  O_38
REMARK    9  A    between atoms: O_38  and  C_39
REMARK                            x       y       z     vdW  Elec       q    Type
REMARK                         _______ _______ _______ _____ _____    ______ ____
ROOT
ATOM      1  C   UNL     1      -5.320 -11.954  -0.007  0.00  0.00    -0.014 A 
ATOM      2  C   UNL     1      -4.473 -12.335  -1.048  0.00  0.00    +0.009 A 
ATOM      3  C   UNL     1      -3.358 -13.104  -0.784  0.00  0.00    +0.002 A 
ATOM      4  C   UNL     1      -3.075 -13.498   0.510  0.00  0.00    +0.023 A 
ATOM      5  C   UNL     1      -3.913 -13.123   1.553  0.00  0.00    +0.035 A 
ATOM      6  C   UNL     1      -5.033 -12.346   1.298  0.00  0.00    +0.032 A 
ENDROOT
BRANCH   1  10
ATOM      7  C   UNL     1      -6.042  -7.977  -2.410  0.00  0.00    +0.001 A 
ATOM      8  C   UNL     1      -5.615  -9.133  -1.756  0.00  0.00    +0.022 A 
ATOM      9  C   UNL     1      -6.567  -9.887  -1.075  0.00  0.00    +0.027 A 
ATOM     10  C   UNL     1      -6.519 -11.129  -0.289  0.00  0.00    +0.009 A 
ATOM     11  C   UNL     1      -7.785 -11.372   0.128  0.00  0.00    +0.093 A 
ATOM     12  N   UNL     1      -8.618 -10.390  -0.330  0.00  0.00    -0.345 N 
ATOM     13  H   UNL     1      -9.572 -10.349  -0.159  0.00  0.00    +0.167 HD
ATOM     14  C   UNL     1      -7.911  -9.469  -1.067  0.00  0.00    +0.139 A 
ATOM     15  N   UNL     1      -8.266  -8.360  -1.704  0.00  0.00    -0.237 NA
ATOM     16  C   UNL     1      -7.391  -7.623  -2.352  0.00  0.00    +0.121 A 
BRANCH   7  21
ATOM     17  C   UNL     1      -4.592  -5.190  -4.492  0.00  0.00    +0.037 A 
ATOM     18  C   UNL     1      -3.247  -5.563  -4.537  0.00  0.00    +0.013 A 
ATOM     19  C   UNL     1      -2.825  -6.709  -3.895  0.00  0.00    +0.001 A 
ATOM     20  C   UNL     1      -3.728  -7.494  -3.205  0.00  0.00    +0.008 A 
ATOM     21  C   UNL     1      -5.073  -7.132  -3.152  0.00  0.00    -0.016 A 
ATOM     22  C   UNL     1      -5.506  -5.975  -3.792  0.00  0.00    +0.021 A 
BRANCH  17  26
ATOM     23  C   UNL     1      -4.763  -2.260  -6.901  0.00  0.00    +0.132 C 
ATOM     24  N   UNL     1      -4.438  -3.563  -6.315  0.00  0.00    -0.304 N 
ATOM     25  C   UNL     1      -3.453  -4.432  -6.964  0.00  0.00    +0.132 C 
ATOM     26  C   UNL     1      -5.044  -3.961  -5.180  0.00  0.00    +0.246 C 
ATOM     27  O   UNL     1      -5.963  -3.311  -4.721  0.00  0.00    -0.270 OA
ENDBRANCH  17  26
ENDBRANCH   7  21
ENDBRANCH   1  10
BRANCH   5  28
ATOM     28  N   UNL     1      -3.624 -13.526   2.862  0.00  0.00    -0.269 N 
ATOM     29  C   UNL     1      -2.871 -14.622   3.079  0.00  0.00    +0.308 C 
ATOM     30  O   UNL     1      -2.367 -15.209   2.142  0.00  0.00    -0.252 OA
ATOM     31  N   UNL     1      -2.677 -15.068   4.337  0.00  0.00    -0.269 N 
ATOM     32  H   UNL     1      -3.966 -13.016   3.613  0.00  0.00    +0.156 HD
ATOM     33  H   UNL     1      -3.168 -14.672   5.073  0.00  0.00    +0.156 HD
BRANCH  31  34
ATOM     34  C   UNL     1      -1.766 -16.102   4.579  0.00  0.00    +0.038 A 
ATOM     35  C   UNL     1      -2.083 -17.112   5.479  0.00  0.00    +0.023 A 
ATOM     36  C   UNL     1      -1.184 -18.133   5.718  0.00  0.00    +0.005 A 
ATOM     37  C   UNL     1       0.033 -18.153   5.064  0.00  0.00    +0.046 A 
ATOM     38  C   UNL     1       0.356 -17.147   4.164  0.00  0.00    +0.130 A 
ATOM     39  C   UNL     1      -0.547 -16.123   3.917  0.00  0.00    +0.069 A 
BRANCH  38  40
ATOM     40  O   UNL     1       1.553 -17.167   3.522  0.00  0.00    -0.456 OA
BRANCH  40  41
ATOM     41  C   UNL     1       2.526 -16.325   3.959  0.00  0.00    +0.128 A 
ATOM     42  C   UNL     1       2.327 -15.569   5.105  0.00  0.00    +0.046 A 
ATOM     43  C   UNL     1       3.317 -14.713   5.547  0.00  0.00    +0.004 A 
ATOM     44  C   UNL     1       4.506 -14.611   4.849  0.00  0.00    +0.000 A 
ATOM     45  C   UNL     1       4.707 -15.363   3.706  0.00  0.00    +0.004 A 
ATOM     46  C   UNL     1       3.722 -16.225   3.263  0.00  0.00    +0.046 A 
ENDBRANCH  40  41
ENDBRANCH  38  40
ENDBRANCH  31  34
ENDBRANCH   5  28
TORSDOF 7
