REMARK  Name = CHEMBL516816
REMARK  10 active torsions:
REMARK  status: ('A' for Active; 'I' for Inactive)
REMARK    1  A    between atoms: C_1  and  C_2
REMARK    2  A    between atoms: C_2  and  C_3
REMARK    3  A    between atoms: C_2  and  N_4
REMARK    4  A    between atoms: N_7  and  C_10
REMARK    5  A    between atoms: C_13  and  O_38
REMARK    6  A    between atoms: C_14  and  N_16
REMARK    7  A    between atoms: C_25  and  N_27
REMARK    8  A    between atoms: N_27  and  C_28
REMARK    9  A    between atoms: C_33  and  C_34
REMARK   10  A    between atoms: O_38  and  C_39
REMARK                            x       y       z     vdW  Elec       q    Type
REMARK                         _______ _______ _______ _____ _____    ______ ____
ROOT
ATOM      1  N   UNL     1      -6.946  -2.384  -4.418  0.00  0.00    -0.281 N 
ATOM      2  C   UNL     1      -7.422  -1.098  -4.214  0.00  0.00    +0.223 A 
ATOM      3  N   UNL     1      -7.036  -0.442  -3.133  0.00  0.00    -0.196 NA
ATOM      4  C   UNL     1      -7.470   0.795  -2.899  0.00  0.00    +0.145 A 
ATOM      5  C   UNL     1      -8.347   1.389  -3.825  0.00  0.00    +0.059 A 
ATOM      6  C   UNL     1      -8.644   2.724  -3.308  0.00  0.00    +0.032 A 
ATOM      7  C   UNL     1      -7.966   2.855  -2.157  0.00  0.00    +0.085 A 
ATOM      8  N   UNL     1      -7.259   1.707  -1.901  0.00  0.00    -0.346 N 
ATOM      9  H   UNL     1      -6.693   1.563  -1.126  0.00  0.00    +0.167 HD
ATOM     10  C   UNL     1      -8.730   0.656  -4.959  0.00  0.00    +0.137 A 
ATOM     11  N   UNL     1      -8.243  -0.571  -5.114  0.00  0.00    -0.198 NA
ATOM     12  H   UNL     1      -7.284  -2.914  -5.157  0.00  0.00    +0.155 HD
ENDROOT
BRANCH   1  17
ATOM     13  C   UNL     1      -4.056  -2.623  -2.148  0.00  0.00    +0.032 A 
ATOM     14  C   UNL     1      -4.063  -3.981  -1.856  0.00  0.00    +0.027 A 
ATOM     15  C   UNL     1      -5.024  -4.805  -2.412  0.00  0.00    +0.049 A 
ATOM     16  C   UNL     1      -5.982  -4.279  -3.263  0.00  0.00    +0.141 A 
ATOM     17  C   UNL     1      -5.978  -2.917  -3.558  0.00  0.00    +0.077 A 
ATOM     18  C   UNL     1      -5.018  -2.090  -2.996  0.00  0.00    +0.050 A 
BRANCH  13  22
ATOM     19  N   UNL     1      -0.654  -0.454  -1.231  0.00  0.00    +0.383 N 
ATOM     20  C   UNL     1      -0.710  -1.909  -1.040  0.00  0.00    -0.059 C 
ATOM     21  C   UNL     1      -2.121  -2.312  -0.600  0.00  0.00    +0.086 C 
ATOM     22  N   UNL     1      -3.083  -1.791  -1.584  0.00  0.00    -0.333 N 
ATOM     23  C   UNL     1      -2.992  -0.371  -1.958  0.00  0.00    +0.086 C 
ATOM     24  C   UNL     1      -1.540  -0.060  -2.334  0.00  0.00    -0.059 C 
ATOM     25  H   UNL     1      -0.951   0.005  -0.383  0.00  0.00    -0.081 HD
BRANCH  19  27
ATOM     26  C   UNL     1       0.786   1.462  -1.734  0.00  0.00    -0.014 C 
ATOM     27  C   UNL     1       0.724  -0.055  -1.546  0.00  0.00    -0.075 C 
ATOM     28  C   UNL     1       1.648  -0.465  -0.397  0.00  0.00    -0.014 C 
ENDBRANCH  19  27
ENDBRANCH  13  22
BRANCH  16  29
ATOM     29  O   UNL     1      -6.926  -5.091  -3.810  0.00  0.00    -0.493 OA
ATOM     30  C   UNL     1      -6.870  -6.476  -3.463  0.00  0.00    +0.277 C 
ENDBRANCH  16  29
ENDBRANCH   1  17
BRANCH  10  31
ATOM     31  N   UNL     1      -9.590   1.200  -5.897  0.00  0.00    -0.298 N 
ATOM     32  H   UNL     1      -9.940   2.096  -5.772  0.00  0.00    +0.154 HD
BRANCH  31  33
ATOM     33  C   UNL     1      -9.953   0.462  -7.019  0.00  0.00    +0.047 A 
ATOM     34  C   UNL     1     -10.042  -0.922  -6.944  0.00  0.00    +0.024 A 
ATOM     35  C   UNL     1     -10.402  -1.654  -8.058  0.00  0.00    +0.005 A 
ATOM     36  C   UNL     1     -10.678  -1.019  -9.257  0.00  0.00    +0.039 A 
ATOM     37  C   UNL     1     -10.595   0.357  -9.352  0.00  0.00    +0.137 A 
ATOM     38  C   UNL     1     -10.237   1.113  -8.230  0.00  0.00    +0.093 A 
ATOM     39  F   UNL     1     -10.865   0.972 -10.524  0.00  0.00    -0.205 F 
BRANCH  38  40
ATOM     40  C   UNL     1     -10.151   2.580  -8.321  0.00  0.00    +0.246 C 
ATOM     41  O   UNL     1      -9.103   3.110  -8.636  0.00  0.00    -0.270 OA
ATOM     42  N   UNL     1     -11.235   3.336  -8.054  0.00  0.00    -0.325 N 
ATOM     43  H   UNL     1     -12.071   2.914  -7.803  0.00  0.00    +0.145 HD
ATOM     44  H   UNL     1     -11.179   4.303  -8.114  0.00  0.00    +0.145 HD
ENDBRANCH  38  40
ENDBRANCH  31  33
ENDBRANCH  10  31
TORSDOF 7
