REMARK  Name = CHEMBL549369
REMARK  5 active torsions:
REMARK  status: ('A' for Active; 'I' for Inactive)
REMARK    1  A    between atoms: C_1  and  N_2
REMARK    2  A    between atoms: N_5  and  C_8
REMARK    3  A    between atoms: C_11  and  C_14
REMARK    4  A    between atoms: N_25  and  S_27
REMARK    5  A    between atoms: S_27  and  C_30
REMARK                            x       y       z     vdW  Elec       q    Type
REMARK                         _______ _______ _______ _____ _____    ______ ____
ROOT
ATOM      1  C   UNL     1      -2.371  -6.727   4.288  0.00  0.00    +0.249 C 
ATOM      2  O   UNL     1      -3.515  -7.124   4.184  0.00  0.00    -0.270 OA
ATOM      3  N   UNL     1      -1.547  -7.277   5.202  0.00  0.00    -0.265 N 
ATOM      4  C   UNL     1      -2.009  -8.307   6.032  0.00  0.00    +0.152 A 
ATOM      5  C   UNL     1      -1.270  -8.961   7.021  0.00  0.00    +0.031 A 
ATOM      6  C   UNL     1      -2.071  -9.888   7.602  0.00  0.00    +0.044 A 
ATOM      7  N   UNL     1      -3.272  -9.828   7.001  0.00  0.00    -0.279 N 
ATOM      8  H   UNL     1      -4.043 -10.379   7.210  0.00  0.00    +0.189 HD
ATOM      9  N   UNL     1      -3.217  -8.825   6.022  0.00  0.00    -0.158 NA
ATOM     10  C   UNL     1      -1.646 -10.799   8.727  0.00  0.00    +0.072 C 
ATOM     11  C   UNL     1      -0.114 -10.832   8.784  0.00  0.00    +0.116 C 
ATOM     12  N   UNL     1       0.404  -9.461   8.670  0.00  0.00    -0.172 NA
ATOM     13  C   UNL     1       0.169  -8.725   7.415  0.00  0.00    +0.149 C 
ATOM     14  H   UNL     1      -0.634  -6.960   5.284  0.00  0.00    +0.157 HD
ENDROOT
BRANCH   1  18
ATOM     15  C   UNL     1      -0.970  -3.605   1.773  0.00  0.00    +0.030 A 
ATOM     16  C   UNL     1      -2.280  -4.059   1.652  0.00  0.00    +0.024 A 
ATOM     17  C   UNL     1      -2.737  -5.071   2.466  0.00  0.00    +0.015 A 
ATOM     18  C   UNL     1      -1.884  -5.643   3.414  0.00  0.00    +0.037 A 
ATOM     19  C   UNL     1      -0.568  -5.185   3.533  0.00  0.00    +0.015 A 
ATOM     20  C   UNL     1      -0.116  -4.176   2.712  0.00  0.00    +0.024 A 
BRANCH  15  25
ATOM     21  C   UNL     1      -0.039   1.464  -0.002  0.00  0.00    -0.096 C 
ATOM     22  N   UNL     1      -0.008  -0.004  -0.004  0.00  0.00    +0.380 N 
ATOM     23  C   UNL     1      -1.383  -0.521  -0.015  0.00  0.00    -0.060 C 
ATOM     24  C   UNL     1      -1.352  -2.048  -0.132  0.00  0.00    +0.086 C 
ATOM     25  N   UNL     1      -0.511  -2.583   0.950  0.00  0.00    -0.333 N 
ATOM     26  C   UNL     1       0.828  -2.004   1.137  0.00  0.00    +0.086 C 
ATOM     27  C   UNL     1       0.695  -0.479   1.195  0.00  0.00    -0.060 C 
ATOM     28  H   UNL     1       0.477  -0.328  -0.827  0.00  0.00    -0.082 HD
ENDBRANCH  15  25
ENDBRANCH   1  18
BRANCH  12  29
ATOM     29  S   UNL     1       1.230  -8.760   9.923  0.00  0.00    +0.061 S 
ATOM     30  O   UNL     1       1.099  -7.354   9.759  0.00  0.00    -0.153 OA
ATOM     31  O   UNL     1       0.820  -9.430  11.106  0.00  0.00    -0.153 OA
BRANCH  29  32
ATOM     32  C   UNL     1       2.937  -9.136   9.697  0.00  0.00    +0.111 A 
ATOM     33  C   UNL     1       3.469 -10.285  10.251  0.00  0.00    +0.067 A 
ATOM     34  C   UNL     1       4.810 -10.582  10.074  0.00  0.00    +0.128 A 
ATOM     35  C   UNL     1       5.617  -9.728   9.342  0.00  0.00    +0.076 A 
ATOM     36  C   UNL     1       5.082  -8.578   8.787  0.00  0.00    +0.128 A 
ATOM     37  C   UNL     1       3.740  -8.286   8.960  0.00  0.00    +0.067 A 
ATOM     38  F   UNL     1       5.868  -7.744   8.072  0.00  0.00    -0.205 F 
ATOM     39  F   UNL     1       5.331 -11.704  10.617  0.00  0.00    -0.205 F 
ENDBRANCH  29  32
ENDBRANCH  12  29
TORSDOF 4
