REMARK  Name = CHEMBL549369
REMARK  6 active torsions:
REMARK  status: ('A' for Active; 'I' for Inactive)
REMARK    1  A    between atoms: C_1  and  N_2
REMARK    2  A    between atoms: N_5  and  C_8
REMARK    3  A    between atoms: C_11  and  C_14
REMARK    4  A    between atoms: N_16  and  C_17
REMARK    5  A    between atoms: N_25  and  S_27
REMARK    6  A    between atoms: S_27  and  C_30
REMARK                            x       y       z     vdW  Elec       q    Type
REMARK                         _______ _______ _______ _____ _____    ______ ____
ROOT
ATOM      1  C   UNL     1      -2.006  -8.303   6.026  0.00  0.00    +0.125 A 
ATOM      2  C   UNL     1      -1.294  -8.944   6.981  0.00  0.00    +0.031 A 
ATOM      3  C   UNL     1      -2.127  -9.902   7.579  0.00  0.00    +0.070 A 
ATOM      4  N   UNL     1      -3.295  -9.843   7.005  0.00  0.00    -0.177 NA
ATOM      5  H   UNL     1      -3.990  -8.577   5.447  0.00  0.00    +0.190 HD
ATOM      6  N   UNL     1      -3.256  -8.840   6.024  0.00  0.00    -0.263 N 
ATOM      7  C   UNL     1      -1.689 -10.816   8.698  0.00  0.00    +0.075 C 
ATOM      8  C   UNL     1      -0.156 -10.843   8.738  0.00  0.00    +0.116 C 
ATOM      9  N   UNL     1       0.361  -9.471   8.638  0.00  0.00    -0.172 NA
ATOM     10  C   UNL     1       0.145  -8.725   7.385  0.00  0.00    +0.149 C 
ENDROOT
BRANCH   1  13
ATOM     11  C   UNL     1      -2.370  -6.728   4.287  0.00  0.00    +0.249 C 
ATOM     12  O   UNL     1      -3.515  -7.125   4.183  0.00  0.00    -0.270 OA
ATOM     13  N   UNL     1      -1.546  -7.278   5.200  0.00  0.00    -0.266 N 
ATOM     14  H   UNL     1      -0.633  -6.961   5.283  0.00  0.00    +0.157 HD
BRANCH  11  18
ATOM     15  C   UNL     1      -0.970  -3.605   1.773  0.00  0.00    +0.030 A 
ATOM     16  C   UNL     1      -2.280  -4.059   1.652  0.00  0.00    +0.024 A 
ATOM     17  C   UNL     1      -2.737  -5.071   2.465  0.00  0.00    +0.015 A 
ATOM     18  C   UNL     1      -1.884  -5.643   3.413  0.00  0.00    +0.037 A 
ATOM     19  C   UNL     1      -0.568  -5.185   3.532  0.00  0.00    +0.015 A 
ATOM     20  C   UNL     1      -0.116  -4.176   2.712  0.00  0.00    +0.024 A 
BRANCH  15  25
ATOM     21  C   UNL     1      -0.039   1.464  -0.002  0.00  0.00    -0.096 C 
ATOM     22  N   UNL     1      -0.008  -0.004  -0.004  0.00  0.00    +0.380 N 
ATOM     23  C   UNL     1      -1.383  -0.521  -0.015  0.00  0.00    -0.060 C 
ATOM     24  C   UNL     1      -1.352  -2.048  -0.132  0.00  0.00    +0.086 C 
ATOM     25  N   UNL     1      -0.511  -2.583   0.950  0.00  0.00    -0.333 N 
ATOM     26  C   UNL     1       0.828  -2.004   1.137  0.00  0.00    +0.086 C 
ATOM     27  C   UNL     1       0.695  -0.479   1.195  0.00  0.00    -0.060 C 
ATOM     28  H   UNL     1       0.477  -0.328  -0.827  0.00  0.00    -0.082 HD
ENDBRANCH  15  25
ENDBRANCH  11  18
ENDBRANCH   1  13
BRANCH   9  29
ATOM     29  S   UNL     1       1.169  -8.777   9.906  0.00  0.00    +0.061 S 
ATOM     30  O   UNL     1       1.039  -7.371   9.750  0.00  0.00    -0.153 OA
ATOM     31  O   UNL     1       0.741  -9.456  11.079  0.00  0.00    -0.153 OA
BRANCH  29  32
ATOM     32  C   UNL     1       2.878  -9.152   9.702  0.00  0.00    +0.111 A 
ATOM     33  C   UNL     1       3.404 -10.303  10.257  0.00  0.00    +0.067 A 
ATOM     34  C   UNL     1       4.747 -10.598  10.097  0.00  0.00    +0.128 A 
ATOM     35  C   UNL     1       5.564  -9.739   9.382  0.00  0.00    +0.076 A 
ATOM     36  C   UNL     1       5.036  -8.586   8.827  0.00  0.00    +0.128 A 
ATOM     37  C   UNL     1       3.691  -8.296   8.983  0.00  0.00    +0.067 A 
ATOM     38  F   UNL     1       5.832  -7.747   8.128  0.00  0.00    -0.205 F 
ATOM     39  F   UNL     1       5.261 -11.724  10.640  0.00  0.00    -0.205 F 
ENDBRANCH  29  32
ENDBRANCH   9  29
TORSDOF 5
