REMARK  Name = CHEMBL522785
REMARK  8 active torsions:
REMARK  status: ('A' for Active; 'I' for Inactive)
REMARK    1  A    between atoms: C_1  and  C_2
REMARK    2  A    between atoms: C_13  and  O_37
REMARK    3  A    between atoms: C_14  and  O_35
REMARK    4  A    between atoms: C_17  and  N_19
REMARK    5  A    between atoms: N_19  and  C_20
REMARK    6  A    between atoms: C_24  and  C_26
REMARK    7  A    between atoms: O_35  and  C_36
REMARK    8  A    between atoms: O_37  and  C_38
REMARK                            x       y       z     vdW  Elec       q    Type
REMARK                         _______ _______ _______ _____ _____    ______ ____
ROOT
ATOM      1  C   UNL     1      -2.548   0.467   0.259  0.00  0.00    +0.065 C 
ATOM      2  C   UNL     1      -1.675  -0.758   0.166  0.00  0.00    +0.035 A 
ATOM      3  C   UNL     1      -1.194  -1.308  -0.973  0.00  0.00    +0.068 A 
ATOM      4  C   UNL     1      -0.430  -2.431  -0.619  0.00  0.00    +0.147 A 
ATOM      5  N   UNL     1      -0.456  -2.546   0.688  0.00  0.00    -0.158 NA
ATOM      6  N   UNL     1      -1.230  -1.498   1.203  0.00  0.00    -0.280 N 
ATOM      7  H   UNL     1      -1.417  -1.335   2.141  0.00  0.00    +0.189 HD
ATOM      8  N   UNL     1       0.243  -3.282  -1.506  0.00  0.00    -0.269 N 
ATOM      9  C   UNL     1       0.073  -3.132  -2.872  0.00  0.00    +0.200 A 
ATOM     10  N   UNL     1       0.055  -1.913  -3.377  0.00  0.00    -0.327 N 
ATOM     11  C   UNL     1      -0.108  -1.726  -4.696  0.00  0.00    +0.056 A 
ATOM     12  C   UNL     1      -0.131  -0.446  -5.263  0.00  0.00    +0.075 A 
ATOM     13  C   UNL     1      -0.301  -0.308  -6.622  0.00  0.00    +0.163 A 
ATOM     14  C   UNL     1      -0.451  -1.434  -7.443  0.00  0.00    +0.162 A 
ATOM     15  C   UNL     1      -0.432  -2.692  -6.911  0.00  0.00    +0.062 A 
ATOM     16  C   UNL     1      -0.260  -2.860  -5.532  0.00  0.00    +0.042 A 
ATOM     17  C   UNL     1      -0.232  -4.143  -4.933  0.00  0.00    +0.136 A 
ATOM     18  N   UNL     1      -0.061  -4.222  -3.621  0.00  0.00    -0.200 NA
ATOM     19  H   UNL     1       0.828  -3.975  -1.163  0.00  0.00    +0.156 HD
ATOM     20  H   UNL     1       0.159  -1.147  -2.791  0.00  0.00    +0.169 HD
ENDROOT
BRANCH  17  21
ATOM     21  N   UNL     1      -0.375  -5.283  -5.698  0.00  0.00    -0.299 N 
ATOM     22  H   UNL     1      -0.415  -5.217  -6.665  0.00  0.00    +0.154 HD
BRANCH  21  23
ATOM     23  C   UNL     1      -0.461  -6.534  -5.079  0.00  0.00    +0.033 A 
ATOM     24  C   UNL     1      -0.968  -6.637  -3.788  0.00  0.00    +0.023 A 
ATOM     25  C   UNL     1      -1.055  -7.871  -3.172  0.00  0.00    +0.002 A 
ATOM     26  C   UNL     1      -0.640  -9.009  -3.834  0.00  0.00    +0.010 A 
ATOM     27  C   UNL     1      -0.130  -8.916  -5.130  0.00  0.00    +0.009 A 
ATOM     28  C   UNL     1      -0.047  -7.672  -5.754  0.00  0.00    +0.033 A 
BRANCH  27  29
ATOM     29  C   UNL     1       0.316 -10.134  -5.840  0.00  0.00    +0.109 A 
ATOM     30  N   UNL     1       0.823 -10.245  -7.048  0.00  0.00    -0.239 NA
ATOM     31  C   UNL     1       1.190 -11.429  -7.574  0.00  0.00    +0.079 A 
ATOM     32  C   UNL     1       1.744 -11.685  -8.852  0.00  0.00    +0.029 A 
ATOM     33  C   UNL     1       2.061 -12.951  -9.233  0.00  0.00    +0.002 A 
ATOM     34  C   UNL     1       1.857 -14.038  -8.393  0.00  0.00    +0.001 A 
ATOM     35  C   UNL     1       1.319 -13.832  -7.137  0.00  0.00    +0.017 A 
ATOM     36  C   UNL     1       0.995 -12.557  -6.742  0.00  0.00    +0.040 A 
ATOM     37  S   UNL     1       0.309 -11.829  -5.274  0.00  0.00    -0.067 S 
ENDBRANCH  27  29
ENDBRANCH  21  23
ENDBRANCH  17  21
BRANCH  14  38
ATOM     38  O   UNL     1      -0.617  -1.273  -8.783  0.00  0.00    -0.491 OA
ATOM     39  C   UNL     1      -0.764  -2.459  -9.566  0.00  0.00    +0.277 C 
ENDBRANCH  14  38
BRANCH  13  40
ATOM     40  O   UNL     1      -0.323   0.933  -7.175  0.00  0.00    -0.491 OA
ATOM     41  C   UNL     1      -0.166   2.041  -6.286  0.00  0.00    +0.277 C 
ENDBRANCH  13  40
TORSDOF 5
