REMARK  Name = CHEMBL1090363
REMARK  11 active torsions:
REMARK  status: ('A' for Active; 'I' for Inactive)
REMARK    1  A    between atoms: C_1  and  N_2
REMARK    2  A    between atoms: N_2  and  C_3
REMARK    3  A    between atoms: N_2  and  C_4
REMARK    4  A    between atoms: C_4  and  C_5
REMARK    5  A    between atoms: C_5  and  C_6
REMARK    6  A    between atoms: C_10  and  N_12
REMARK    7  A    between atoms: C_17  and  C_19
REMARK    8  A    between atoms: C_20  and  C_27
REMARK    9  A    between atoms: C_31  and  N_33
REMARK   10  A    between atoms: C_34  and  C_36
REMARK   11  A    between atoms: C_36  and  C_37
REMARK                            x       y       z     vdW  Elec       q    Type
REMARK                         _______ _______ _______ _____ _____    ______ ____
ROOT
ATOM      1  C   UNL     1      -9.196  -4.951  -4.948  0.00  0.00    +0.100 A 
ATOM      2  C   UNL     1      -8.981  -4.280  -6.139  0.00  0.00    +0.100 A 
ATOM      3  N   UNL     1      -9.793  -4.818  -7.063  0.00  0.00    -0.221 NA
ATOM      4  C   UNL     1     -10.492  -5.775  -6.518  0.00  0.00    +0.178 A 
ATOM      5  N   UNL     1     -10.172  -5.924  -5.196  0.00  0.00    -0.291 N 
ATOM      6  C   UNL     1     -10.835  -6.908  -4.499  0.00  0.00    +0.101 A 
ATOM      7  C   UNL     1     -11.743  -7.676  -5.100  0.00  0.00    +0.067 A 
ATOM      8  S   UNL     1     -11.733  -7.026  -6.763  0.00  0.00    -0.058 S 
ENDROOT
BRANCH   1  14
ATOM      9  N   UNL     1      -5.454  -3.308  -2.484  0.00  0.00    -0.284 N 
ATOM     10  C   UNL     1      -6.708  -3.897  -2.482  0.00  0.00    +0.220 A 
ATOM     11  N   UNL     1      -7.269  -4.215  -1.324  0.00  0.00    -0.223 NA
ATOM     12  C   UNL     1      -8.468  -4.780  -1.277  0.00  0.00    +0.116 A 
ATOM     13  C   UNL     1      -9.140  -5.041  -2.454  0.00  0.00    +0.050 A 
ATOM     14  C   UNL     1      -8.522  -4.694  -3.666  0.00  0.00    +0.095 A 
ATOM     15  N   UNL     1      -7.315  -4.123  -3.635  0.00  0.00    -0.213 NA
ATOM     16  H   UNL     1      -5.065  -2.999  -3.317  0.00  0.00    +0.155 HD
BRANCH   9  21
ATOM     17  C   UNL     1      -4.184  -3.959   0.903  0.00  0.00    -0.047 A 
ATOM     18  C   UNL     1      -3.354  -2.868   1.086  0.00  0.00    +0.004 A 
ATOM     19  C   UNL     1      -3.219  -1.923   0.085  0.00  0.00    +0.002 A 
ATOM     20  C   UNL     1      -3.914  -2.066  -1.100  0.00  0.00    +0.023 A 
ATOM     21  C   UNL     1      -4.749  -3.161  -1.286  0.00  0.00    +0.034 A 
ATOM     22  C   UNL     1      -4.877  -4.111  -0.281  0.00  0.00    +0.027 A 
BRANCH  17  23
ATOM     23  C   UNL     1      -4.326  -4.987   1.996  0.00  0.00    +0.016 C 
BRANCH  23  24
ATOM     24  C   UNL     1      -3.268  -6.077   1.813  0.00  0.00    -0.075 C 
BRANCH  24  26
ATOM     25  C   UNL     1      -2.471  -8.185   2.635  0.00  0.00    -0.097 C 
ATOM     26  N   UNL     1      -3.407  -7.078   2.878  0.00  0.00    +0.376 N 
ATOM     27  C   UNL     1      -3.106  -6.459   4.176  0.00  0.00    -0.097 C 
ATOM     28  H   UNL     1      -4.352  -7.433   2.886  0.00  0.00    -0.083 HD
ENDBRANCH  24  26
ENDBRANCH  23  24
ENDBRANCH  17  23
ENDBRANCH   9  21
ENDBRANCH   1  14
BRANCH   2  29
ATOM     29  C   UNL     1      -8.027  -3.168  -6.356  0.00  0.00    +0.004 A 
ATOM     30  C   UNL     1      -7.790  -2.241  -5.340  0.00  0.00    +0.010 A 
ATOM     31  C   UNL     1      -6.902  -1.205  -5.544  0.00  0.00    +0.002 A 
ATOM     32  C   UNL     1      -6.243  -1.082  -6.753  0.00  0.00    +0.023 A 
ATOM     33  C   UNL     1      -6.471  -2.000  -7.770  0.00  0.00    +0.034 A 
ATOM     34  C   UNL     1      -7.359  -3.047  -7.572  0.00  0.00    +0.033 A 
BRANCH  33  35
ATOM     35  N   UNL     1      -5.802  -1.872  -8.993  0.00  0.00    -0.285 N 
ATOM     36  C   UNL     1      -6.427  -2.201 -10.141  0.00  0.00    +0.222 C 
ATOM     37  O   UNL     1      -7.537  -2.688 -10.109  0.00  0.00    -0.275 OA
ATOM     38  H   UNL     1      -4.889  -1.546  -9.014  0.00  0.00    +0.155 HD
BRANCH  36  39
ATOM     39  C   UNL     1      -5.746  -1.963 -11.464  0.00  0.00    +0.131 C 
BRANCH  39  40
ATOM     40  C   UNL     1      -6.650  -2.413 -12.582  0.00  0.00    -0.039 A 
ATOM     41  C   UNL     1      -6.587  -3.716 -13.040  0.00  0.00    +0.004 A 
ATOM     42  C   UNL     1      -7.416  -4.129 -14.066  0.00  0.00    +0.000 A 
ATOM     43  C   UNL     1      -8.309  -3.239 -14.634  0.00  0.00    +0.000 A 
ATOM     44  C   UNL     1      -8.373  -1.937 -14.175  0.00  0.00    +0.000 A 
ATOM     45  C   UNL     1      -7.547  -1.525 -13.146  0.00  0.00    +0.004 A 
ENDBRANCH  39  40
ENDBRANCH  36  39
ENDBRANCH  33  35
ENDBRANCH   2  29
TORSDOF 9
