REMARK  Name = CHEMBL511765
REMARK  12 active torsions:
REMARK  status: ('A' for Active; 'I' for Inactive)
REMARK    1  A    between atoms: C_1  and  C_2
REMARK    2  A    between atoms: C_4  and  O_37
REMARK    3  A    between atoms: C_5  and  N_15
REMARK    4  A    between atoms: C_7  and  N_8
REMARK    5  A    between atoms: C_9  and  C_11
REMARK    6  A    between atoms: C_11  and  N_12
REMARK    7  A    between atoms: N_12  and  C_13
REMARK    8  A    between atoms: N_12  and  C_14
REMARK    9  A    between atoms: C_24  and  N_26
REMARK   10  A    between atoms: N_26  and  C_27
REMARK   11  A    between atoms: C_32  and  C_33
REMARK   12  A    between atoms: O_37  and  C_38
REMARK                            x       y       z     vdW  Elec       q    Type
REMARK                         _______ _______ _______ _____ _____    ______ ____
ROOT
ATOM      1  N   UNL     1       0.619  -3.592  -0.644  0.00  0.00    -0.281 N 
ATOM      2  C   UNL     1       1.328  -4.385   0.244  0.00  0.00    +0.223 A 
ATOM      3  N   UNL     1       1.960  -3.803   1.250  0.00  0.00    -0.196 NA
ATOM      4  C   UNL     1       2.653  -4.528   2.127  0.00  0.00    +0.145 A 
ATOM      5  C   UNL     1       2.698  -5.925   1.961  0.00  0.00    +0.059 A 
ATOM      6  C   UNL     1       3.518  -6.440   3.056  0.00  0.00    +0.032 A 
ATOM      7  C   UNL     1       3.903  -5.380   3.785  0.00  0.00    +0.085 A 
ATOM      8  N   UNL     1       3.391  -4.230   3.239  0.00  0.00    -0.346 N 
ATOM      9  H   UNL     1       3.533  -3.337   3.590  0.00  0.00    +0.167 HD
ATOM     10  C   UNL     1       2.012  -6.500   0.880  0.00  0.00    +0.137 A 
ATOM     11  N   UNL     1       1.342  -5.699   0.057  0.00  0.00    -0.198 NA
ATOM     12  H   UNL     1       0.216  -3.989  -1.433  0.00  0.00    +0.155 HD
ENDROOT
BRANCH   1  17
ATOM     13  C   UNL     1       0.074   1.980   0.317  0.00  0.00    +0.046 C 
ATOM     14  C   UNL     1       0.219   0.502   0.062  0.00  0.00    -0.026 A 
ATOM     15  C   UNL     1       0.318   0.033  -1.235  0.00  0.00    +0.052 A 
ATOM     16  C   UNL     1       0.451  -1.325  -1.473  0.00  0.00    +0.142 A 
ATOM     17  C   UNL     1       0.485  -2.219  -0.405  0.00  0.00    +0.078 A 
ATOM     18  C   UNL     1       0.386  -1.747   0.894  0.00  0.00    +0.050 A 
ATOM     19  C   UNL     1       0.258  -0.385   1.129  0.00  0.00    +0.038 A 
BRANCH  19  20
ATOM     20  N   UNL     1       0.163   0.094   2.442  0.00  0.00    -0.287 N 
ATOM     21  C   UNL     1      -0.318  -0.702   3.417  0.00  0.00    +0.201 C 
ATOM     22  O   UNL     1      -0.610  -1.853   3.170  0.00  0.00    -0.278 OA
ATOM     23  H   UNL     1       0.444   0.999   2.649  0.00  0.00    +0.155 HD
BRANCH  21  24
ATOM     24  C   UNL     1      -0.492  -0.163   4.813  0.00  0.00    +0.018 C 
BRANCH  24  25
ATOM     25  N   UNL     1      -1.027  -1.219   5.682  0.00  0.00    +0.382 N 
ATOM     26  C   UNL     1      -1.085  -0.731   7.067  0.00  0.00    -0.096 C 
ATOM     27  C   UNL     1      -2.378  -1.584   5.235  0.00  0.00    -0.096 C 
ATOM     28  H   UNL     1      -0.427  -2.029   5.636  0.00  0.00    -0.082 HD
ENDBRANCH  24  25
ENDBRANCH  21  24
ENDBRANCH  19  20
BRANCH  16  29
ATOM     29  O   UNL     1       0.547  -1.785  -2.750  0.00  0.00    -0.493 OA
ATOM     30  C   UNL     1       0.504  -0.812  -3.796  0.00  0.00    +0.277 C 
ENDBRANCH  16  29
ENDBRANCH   1  17
BRANCH  10  31
ATOM     31  N   UNL     1       2.029  -7.869   0.677  0.00  0.00    -0.298 N 
ATOM     32  H   UNL     1       2.449  -8.451   1.330  0.00  0.00    +0.154 HD
BRANCH  31  33
ATOM     33  C   UNL     1       1.443  -8.411  -0.462  0.00  0.00    +0.047 A 
ATOM     34  C   UNL     1       1.475  -7.713  -1.662  0.00  0.00    +0.024 A 
ATOM     35  C   UNL     1       0.894  -8.251  -2.793  0.00  0.00    +0.005 A 
ATOM     36  C   UNL     1       0.275  -9.488  -2.742  0.00  0.00    +0.039 A 
ATOM     37  C   UNL     1       0.232 -10.199  -1.559  0.00  0.00    +0.137 A 
ATOM     38  C   UNL     1       0.822  -9.668  -0.406  0.00  0.00    +0.093 A 
ATOM     39  F   UNL     1      -0.373 -11.406  -1.515  0.00  0.00    -0.205 F 
BRANCH  38  40
ATOM     40  C   UNL     1       0.786 -10.422   0.860  0.00  0.00    +0.246 C 
ATOM     41  O   UNL     1      -0.142 -10.271   1.631  0.00  0.00    -0.270 OA
ATOM     42  N   UNL     1       1.781 -11.278   1.163  0.00  0.00    -0.325 N 
ATOM     43  H   UNL     1       2.522 -11.399   0.547  0.00  0.00    +0.145 HD
ATOM     44  H   UNL     1       1.758 -11.774   1.996  0.00  0.00    +0.145 HD
ENDBRANCH  38  40
ENDBRANCH  31  33
ENDBRANCH  10  31
TORSDOF 8
