REMARK  Name = CHEMBL429097
REMARK  7 active torsions:
REMARK  status: ('A' for Active; 'I' for Inactive)
REMARK    1  A    between atoms: C_1  and  N_2
REMARK    2  A    between atoms: C_3  and  C_5
REMARK    3  A    between atoms: C_8  and  C_11
REMARK    4  A    between atoms: C_13  and  C_21
REMARK    5  A    between atoms: C_25  and  O_27
REMARK    6  A    between atoms: O_27  and  C_28
REMARK    7  A    between atoms: C_28  and  C_29
REMARK                            x       y       z     vdW  Elec       q    Type
REMARK                         _______ _______ _______ _____ _____    ______ ____
ROOT
ATOM      1  C   UNL     1      -1.261  -6.355  -1.799  0.00  0.00    +0.118 A 
ATOM      2  N   UNL     1      -0.509  -7.138  -1.067  0.00  0.00    -0.231 NA
ATOM      3  C   UNL     1      -0.960  -8.400  -1.143  0.00  0.00    +0.100 A 
ATOM      4  C   UNL     1      -2.066  -8.389  -1.983  0.00  0.00    +0.113 A 
ATOM      5  N   UNL     1      -2.236  -7.076  -2.379  0.00  0.00    -0.298 N 
ATOM      6  C   UNL     1      -3.279  -6.771  -3.225  0.00  0.00    +0.113 A 
ATOM      7  C   UNL     1      -4.108  -7.744  -3.644  0.00  0.00    +0.131 A 
ATOM      8  N   UNL     1      -3.948  -9.017  -3.259  0.00  0.00    -0.237 NA
ATOM      9  C   UNL     1      -2.962  -9.371  -2.455  0.00  0.00    +0.142 A 
ATOM     10  N   UNL     1      -2.816 -10.693  -2.069  0.00  0.00    -0.341 N 
ATOM     11  H   UNL     1      -2.309 -10.912  -1.272  0.00  0.00    +0.144 HD
ATOM     12  H   UNL     1      -3.221 -11.399  -2.596  0.00  0.00    +0.144 HD
ENDROOT
BRANCH   1  16
ATOM     13  C   UNL     1       0.412  -2.411  -1.364  0.00  0.00    +0.075 C 
ATOM     14  C   UNL     1       0.510  -3.091  -2.732  0.00  0.00    +0.013 C 
ATOM     15  C   UNL     1       0.313  -4.599  -2.567  0.00  0.00    +0.012 C 
ATOM     16  C   UNL     1      -1.066  -4.870  -1.961  0.00  0.00    +0.056 C 
ATOM     17  C   UNL     1      -1.164  -4.190  -0.594  0.00  0.00    +0.012 C 
ATOM     18  C   UNL     1      -0.966  -2.682  -0.758  0.00  0.00    +0.013 C 
BRANCH  13  21
ATOM     19  C   UNL     1       1.946   0.995  -2.203  0.00  0.00    +0.128 C 
ATOM     20  N   UNL     1       1.756  -0.450  -2.045  0.00  0.00    -0.318 N 
ATOM     21  C   UNL     1       0.607  -0.926  -1.527  0.00  0.00    +0.216 C 
ATOM     22  O   UNL     1      -0.270  -0.159  -1.191  0.00  0.00    -0.276 OA
ATOM     23  H   UNL     1       2.458  -1.063  -2.314  0.00  0.00    +0.148 HD
ENDBRANCH  13  21
ENDBRANCH   1  16
BRANCH   3  24
ATOM     24  C   UNL     1      -0.385  -9.582  -0.462  0.00  0.00    +0.006 A 
ATOM     25  C   UNL     1      -0.198 -10.774  -1.165  0.00  0.00    +0.010 A 
ATOM     26  C   UNL     1       0.338 -11.873  -0.527  0.00  0.00    +0.004 A 
ATOM     27  C   UNL     1       0.691 -11.799   0.808  0.00  0.00    +0.046 A 
ATOM     28  C   UNL     1       0.509 -10.618   1.515  0.00  0.00    +0.122 A 
ATOM     29  C   UNL     1      -0.022  -9.507   0.882  0.00  0.00    +0.055 A 
BRANCH  28  30
ATOM     30  O   UNL     1       0.859 -10.551   2.827  0.00  0.00    -0.487 OA
BRANCH  30  31
ATOM     31  C   UNL     1       1.407 -11.733   3.414  0.00  0.00    +0.264 C 
BRANCH  31  32
ATOM     32  C   UNL     1       1.731 -11.471   4.862  0.00  0.00    -0.010 A 
ATOM     33  C   UNL     1       2.978 -10.989   5.214  0.00  0.00    +0.007 A 
ATOM     34  C   UNL     1       3.276 -10.749   6.543  0.00  0.00    +0.000 A 
ATOM     35  C   UNL     1       2.327 -10.989   7.518  0.00  0.00    +0.000 A 
ATOM     36  C   UNL     1       1.079 -11.469   7.165  0.00  0.00    +0.000 A 
ATOM     37  C   UNL     1       0.780 -11.706   5.837  0.00  0.00    +0.007 A 
ENDBRANCH  31  32
ENDBRANCH  30  31
ENDBRANCH  28  30
ENDBRANCH   3  24
TORSDOF 6
