REMARK  Name = CHEMBL243946
REMARK  3 active torsions:
REMARK  status: ('A' for Active; 'I' for Inactive)
REMARK    1  A    between atoms: C_3  and  C_20
REMARK    2  A    between atoms: C_6  and  C_7
REMARK    3  A    between atoms: C_10  and  C_12
REMARK                            x       y       z     vdW  Elec       q    Type
REMARK                         _______ _______ _______ _____ _____    ______ ____
ROOT
ATOM      1  C   UNL     1      -1.264  -0.758   0.011  0.00  0.00    +0.136 A 
ATOM      2  C   UNL     1      -1.383  -2.131   0.010  0.00  0.00    +0.050 A 
ATOM      3  C   UNL     1      -2.748  -2.423   0.019  0.00  0.00    +0.050 A 
ATOM      4  C   UNL     1      -3.417  -1.210   0.026  0.00  0.00    +0.130 A 
ATOM      5  O   UNL     1      -2.498  -0.222   0.026  0.00  0.00    -0.455 OA
ENDROOT
BRANCH   4   6
ATOM      6  C   UNL     1      -4.815  -1.037   0.036  0.00  0.00    +0.066 C 
ATOM      7  C   UNL     1      -5.354   0.232   0.042  0.00  0.00    +0.082 C 
ATOM      8  C   UNL     1      -6.718   0.642   0.058  0.00  0.00    +0.276 C 
ATOM      9  O   UNL     1      -7.716  -0.272   0.071  0.00  0.00    -0.267 OA
ATOM     10  N   UNL     1      -6.981   1.912   0.061  0.00  0.00    -0.161 NA
ATOM     11  C   UNL     1      -6.005   2.835   0.048  0.00  0.00    +0.139 C 
ATOM     12  S   UNL     1      -6.138   4.542   0.049  0.00  0.00    -0.026 S 
ATOM     13  S   UNL     1      -4.533   1.821   0.038  0.00  0.00    -0.059 S 
ENDBRANCH   4   6
BRANCH   1  19
ATOM     14  C   UNL     1      -0.017   1.395   0.010  0.00  0.00    +0.012 A 
ATOM     15  C   UNL     1       1.156   2.094   0.002  0.00  0.00    +0.016 A 
ATOM     16  C   UNL     1       2.377   1.411  -0.013  0.00  0.00    +0.063 A 
ATOM     17  C   UNL     1       2.396   0.011  -0.021  0.00  0.00    +0.016 A 
ATOM     18  C   UNL     1       1.223  -0.687  -0.013  0.00  0.00    +0.012 A 
ATOM     19  C   UNL     1       0.002  -0.004   0.002  0.00  0.00    +0.017 A 
BRANCH  16  20
ATOM     20  C   UNL     1       3.643   2.165  -0.021  0.00  0.00    +0.387 C 
ATOM     21  O   UNL     1       3.627   3.388  -0.015  0.00  0.00    -0.241 OA
ATOM     22  O   UNL     1       4.711   1.567  -0.035  0.00  0.00    -0.241 OA
ENDBRANCH  16  20
ENDBRANCH   1  19
TORSDOF 3
