REMARK  Name = CHEMBL516870
REMARK  10 active torsions:
REMARK  status: ('A' for Active; 'I' for Inactive)
REMARK    1  A    between atoms: C_1  and  N_2
REMARK    2  A    between atoms: N_2  and  C_3
REMARK    3  A    between atoms: N_2  and  C_4
REMARK    4  A    between atoms: C_4  and  C_5
REMARK    5  A    between atoms: C_14  and  N_19
REMARK    6  A    between atoms: C_15  and  O_17
REMARK    7  A    between atoms: O_17  and  C_18
REMARK    8  A    between atoms: C_28  and  N_30
REMARK    9  A    between atoms: N_30  and  C_31
REMARK   10  A    between atoms: C_36  and  C_37
REMARK                            x       y       z     vdW  Elec       q    Type
REMARK                         _______ _______ _______ _____ _____    ______ ____
ROOT
ATOM      1  N   UNL     1      -2.691   1.992   5.984  0.00  0.00    -0.281 N 
ATOM      2  C   UNL     1      -2.859   2.880   4.934  0.00  0.00    +0.223 A 
ATOM      3  N   UNL     1      -2.012   2.833   3.919  0.00  0.00    -0.196 NA
ATOM      4  C   UNL     1      -2.138   3.670   2.890  0.00  0.00    +0.145 A 
ATOM      5  C   UNL     1      -3.190   4.604   2.906  0.00  0.00    +0.059 A 
ATOM      6  C   UNL     1      -3.073   5.371   1.666  0.00  0.00    +0.032 A 
ATOM      7  C   UNL     1      -2.012   4.882   1.005  0.00  0.00    +0.085 A 
ATOM      8  N   UNL     1      -1.443   3.863   1.728  0.00  0.00    -0.346 N 
ATOM      9  H   UNL     1      -0.664   3.355   1.455  0.00  0.00    +0.167 HD
ATOM     10  C   UNL     1      -4.065   4.619   4.003  0.00  0.00    +0.137 A 
ATOM     11  N   UNL     1      -3.866   3.743   4.983  0.00  0.00    -0.198 NA
ATOM     12  H   UNL     1      -3.304   2.007   6.735  0.00  0.00    +0.155 HD
ENDROOT
BRANCH   1  22
ATOM     13  C   UNL     1      -0.429  -0.672   2.382  0.00  0.00    +0.203 C 
ATOM     14  O   UNL     1      -1.529  -0.166   2.456  0.00  0.00    -0.277 OA
ATOM     15  N   UNL     1       0.307  -0.851   3.497  0.00  0.00    -0.273 N 
ATOM     16  C   UNL     1       1.587  -1.571   3.440  0.00  0.00    +0.114 C 
ATOM     17  C   UNL     1       1.630  -2.543   4.626  0.00  0.00    +0.024 C 
ATOM     18  C   UNL     1       1.603  -1.740   5.925  0.00  0.00    +0.038 C 
ATOM     19  C   UNL     1       0.459  -0.760   5.917  0.00  0.00    -0.022 A 
ATOM     20  C   UNL     1      -0.134  -0.349   4.732  0.00  0.00    +0.041 A 
ATOM     21  C   UNL     1      -1.181   0.564   4.753  0.00  0.00    +0.050 A 
ATOM     22  C   UNL     1      -1.636   1.071   5.960  0.00  0.00    +0.078 A 
ATOM     23  C   UNL     1      -1.038   0.661   7.150  0.00  0.00    +0.142 A 
ATOM     24  C   UNL     1       0.000  -0.258   7.124  0.00  0.00    +0.053 A 
BRANCH  23  25
ATOM     25  O   UNL     1      -1.480   1.155   8.339  0.00  0.00    -0.493 OA
ATOM     26  C   UNL     1      -0.821   0.691   9.519  0.00  0.00    +0.277 C 
ENDBRANCH  23  25
BRANCH  13  27
ATOM     27  C   UNL     1       0.115  -1.100   1.044  0.00  0.00    +0.018 C 
BRANCH  27  29
ATOM     28  C   UNL     1      -0.894   0.747  -0.107  0.00  0.00    -0.096 C 
ATOM     29  N   UNL     1      -0.830  -0.718  -0.014  0.00  0.00    +0.382 N 
ATOM     30  C   UNL     1      -0.378  -1.271  -1.298  0.00  0.00    -0.096 C 
ATOM     31  H   UNL     1      -1.746  -1.081   0.206  0.00  0.00    -0.082 HD
ENDBRANCH  27  29
ENDBRANCH  13  27
ENDBRANCH   1  22
BRANCH  10  32
ATOM     32  N   UNL     1      -5.114   5.521   4.061  0.00  0.00    -0.298 N 
ATOM     33  H   UNL     1      -5.300   6.098   3.303  0.00  0.00    +0.154 HD
BRANCH  32  34
ATOM     34  C   UNL     1      -5.901   5.599   5.204  0.00  0.00    +0.047 A 
ATOM     35  C   UNL     1      -5.338   5.384   6.455  0.00  0.00    +0.024 A 
ATOM     36  C   UNL     1      -6.120   5.462   7.590  0.00  0.00    +0.005 A 
ATOM     37  C   UNL     1      -7.470   5.754   7.493  0.00  0.00    +0.039 A 
ATOM     38  C   UNL     1      -8.050   5.971   6.259  0.00  0.00    +0.137 A 
ATOM     39  C   UNL     1      -7.268   5.902   5.100  0.00  0.00    +0.093 A 
ATOM     40  F   UNL     1      -9.367   6.256   6.170  0.00  0.00    -0.205 F 
BRANCH  39  41
ATOM     41  C   UNL     1      -7.877   6.138   3.779  0.00  0.00    +0.246 C 
ATOM     42  O   UNL     1      -8.349   5.210   3.152  0.00  0.00    -0.270 OA
ATOM     43  N   UNL     1      -7.910   7.384   3.266  0.00  0.00    -0.325 N 
ATOM     44  H   UNL     1      -7.533   8.125   3.766  0.00  0.00    +0.145 HD
ATOM     45  H   UNL     1      -8.311   7.540   2.396  0.00  0.00    +0.145 HD
ENDBRANCH  39  41
ENDBRANCH  32  34
ENDBRANCH  10  32
TORSDOF 7
