REMARK  Name = CHEMBL249295
REMARK  5 active torsions:
REMARK  status: ('A' for Active; 'I' for Inactive)
REMARK    1  A    between atoms: C_1  and  N_2
REMARK    2  A    between atoms: N_5  and  C_8
REMARK    3  A    between atoms: C_10  and  C_12
REMARK    4  A    between atoms: C_14  and  C_22
REMARK    5  A    between atoms: C_28  and  C_32
REMARK                            x       y       z     vdW  Elec       q    Type
REMARK                         _______ _______ _______ _____ _____    ______ ____
ROOT
ATOM      1  C   UNL     1      -2.238  -5.772   3.927  0.00  0.00    +0.118 A 
ATOM      2  N   UNL     1      -2.201  -7.034   3.586  0.00  0.00    -0.231 NA
ATOM      3  C   UNL     1      -2.205  -7.803   4.687  0.00  0.00    +0.100 A 
ATOM      4  C   UNL     1      -2.248  -6.947   5.781  0.00  0.00    +0.113 A 
ATOM      5  N   UNL     1      -2.263  -5.665   5.268  0.00  0.00    -0.298 N 
ATOM      6  C   UNL     1      -2.299  -4.604   6.143  0.00  0.00    +0.113 A 
ATOM      7  C   UNL     1      -2.316  -4.830   7.470  0.00  0.00    +0.131 A 
ATOM      8  N   UNL     1      -2.299  -6.072   7.970  0.00  0.00    -0.237 NA
ATOM      9  C   UNL     1      -2.273  -7.129   7.180  0.00  0.00    +0.142 A 
ATOM     10  N   UNL     1      -2.255  -8.404   7.719  0.00  0.00    -0.341 N 
ATOM     11  H   UNL     1      -1.934  -9.150   7.189  0.00  0.00    +0.144 HD
ATOM     12  H   UNL     1      -2.562  -8.551   8.627  0.00  0.00    +0.144 HD
ENDROOT
BRANCH   3  13
ATOM     13  C   UNL     1      -2.171  -9.281   4.727  0.00  0.00    +0.005 A 
ATOM     14  C   UNL     1      -3.042  -9.975   5.585  0.00  0.00    +0.011 A 
ATOM     15  C   UNL     1      -3.028 -11.332   5.639  0.00  0.00    +0.010 A 
ATOM     16  C   UNL     1      -2.136 -12.058   4.832  0.00  0.00    +0.000 A 
ATOM     17  C   UNL     1      -2.103 -13.466   4.870  0.00  0.00    +0.012 A 
ATOM     18  C   UNL     1      -1.216 -14.116   4.064  0.00  0.00    +0.029 A 
ATOM     19  C   UNL     1      -0.365 -13.380   3.225  0.00  0.00    +0.072 A 
ATOM     20  N   UNL     1      -0.401 -12.061   3.194  0.00  0.00    -0.247 NA
ATOM     21  C   UNL     1      -1.250 -11.372   3.962  0.00  0.00    +0.072 A 
ATOM     22  C   UNL     1      -1.284  -9.969   3.916  0.00  0.00    +0.038 A 
BRANCH  19  23
ATOM     23  C   UNL     1       0.595 -14.100   2.354  0.00  0.00    +0.000 A 
ATOM     24  C   UNL     1       0.643 -15.493   2.368  0.00  0.00    +0.010 A 
ATOM     25  C   UNL     1       1.538 -16.158   1.555  0.00  0.00    +0.001 A 
ATOM     26  C   UNL     1       2.386 -15.445   0.727  0.00  0.00    +0.000 A 
ATOM     27  C   UNL     1       2.342 -14.062   0.708  0.00  0.00    +0.001 A 
ATOM     28  C   UNL     1       1.448 -13.387   1.513  0.00  0.00    +0.010 A 
ENDBRANCH  19  23
ENDBRANCH   3  13
BRANCH   1  31
ATOM     29  C   UNL     1      -2.478  -4.162   0.907  0.00  0.00    +0.058 C 
ATOM     30  C   UNL     1      -3.451  -4.614   2.009  0.00  0.00    +0.030 C 
ATOM     31  C   UNL     1      -2.246  -4.613   2.964  0.00  0.00    +0.058 C 
ATOM     32  C   UNL     1      -1.363  -4.835   1.725  0.00  0.00    +0.030 C 
BRANCH  29  37
ATOM     33  C   UNL     1      -1.844   1.217  -0.645  0.00  0.00    -0.096 C 
ATOM     34  N   UNL     1      -1.980  -0.245  -0.601  0.00  0.00    +0.379 N 
ATOM     35  C   UNL     1      -3.278  -0.598  -0.011  0.00  0.00    -0.064 C 
ATOM     36  C   UNL     1      -3.429  -2.120   0.017  0.00  0.00    +0.066 C 
ATOM     37  N   UNL     1      -2.336  -2.703   0.809  0.00  0.00    -0.303 NA
ATOM     38  C   UNL     1      -1.030  -2.337   0.244  0.00  0.00    +0.066 C 
ATOM     39  C   UNL     1      -0.899  -0.813   0.214  0.00  0.00    -0.064 C 
ATOM     40  H   UNL     1      -1.925  -0.615  -1.538  0.00  0.00    -0.082 HD
ENDBRANCH  29  37
ENDBRANCH   1  31
TORSDOF 4
