REMARK  Name = CHEMBL392082
REMARK  7 active torsions:
REMARK  status: ('A' for Active; 'I' for Inactive)
REMARK    1  A    between atoms: C_4  and  C_7
REMARK    2  A    between atoms: C_7  and  O_8
REMARK    3  A    between atoms: O_8  and  C_9
REMARK    4  A    between atoms: C_13  and  C_15
REMARK    5  A    between atoms: C_22  and  C_24
REMARK    6  A    between atoms: C_27  and  C_30
REMARK    7  A    between atoms: C_30  and  N_31
REMARK                            x       y       z     vdW  Elec       q    Type
REMARK                         _______ _______ _______ _____ _____    ______ ____
ROOT
ATOM      1  C   UNL     1       6.667  -2.249   4.167  0.00  0.00    +0.100 A 
ATOM      2  C   UNL     1       7.653  -3.184   4.454  0.00  0.00    +0.113 A 
ATOM      3  C   UNL     1       8.315  -4.185   3.712  0.00  0.00    +0.142 A 
ATOM      4  N   UNL     1       9.233  -4.928   4.302  0.00  0.00    -0.237 NA
ATOM      5  C   UNL     1       9.549  -4.750   5.591  0.00  0.00    +0.131 A 
ATOM      6  C   UNL     1       8.947  -3.810   6.341  0.00  0.00    +0.113 A 
ATOM      7  N   UNL     1       7.982  -3.003   5.783  0.00  0.00    -0.298 N 
ATOM      8  C   UNL     1       7.215  -2.001   6.250  0.00  0.00    +0.118 A 
ATOM      9  N   UNL     1       6.444  -1.553   5.293  0.00  0.00    -0.231 NA
ATOM     10  N   UNL     1       8.003  -4.387   2.378  0.00  0.00    -0.341 N 
ATOM     11  H   UNL     1       7.558  -3.689   1.873  0.00  0.00    +0.144 HD
ATOM     12  H   UNL     1       8.231  -5.227   1.949  0.00  0.00    +0.144 HD
ENDROOT
BRANCH   1  17
ATOM     13  C   UNL     1       4.919  -2.962   0.914  0.00  0.00    +0.122 A 
ATOM     14  C   UNL     1       4.733  -1.677   0.422  0.00  0.00    +0.046 A 
ATOM     15  C   UNL     1       5.175  -0.585   1.145  0.00  0.00    +0.004 A 
ATOM     16  C   UNL     1       5.803  -0.764   2.361  0.00  0.00    +0.010 A 
ATOM     17  C   UNL     1       5.993  -2.052   2.863  0.00  0.00    +0.006 A 
ATOM     18  C   UNL     1       5.543  -3.153   2.136  0.00  0.00    +0.055 A 
BRANCH  13  19
ATOM     19  O   UNL     1       4.483  -4.033   0.200  0.00  0.00    -0.487 OA
BRANCH  19  20
ATOM     20  C   UNL     1       3.849  -3.763  -1.052  0.00  0.00    +0.264 C 
BRANCH  20  24
ATOM     21  C   UNL     1       2.677  -7.441  -2.881  0.00  0.00    +0.000 A 
ATOM     22  C   UNL     1       1.806  -6.783  -2.033  0.00  0.00    +0.000 A 
ATOM     23  C   UNL     1       2.186  -5.593  -1.441  0.00  0.00    +0.007 A 
ATOM     24  C   UNL     1       3.436  -5.061  -1.696  0.00  0.00    -0.010 A 
ATOM     25  C   UNL     1       4.307  -5.719  -2.544  0.00  0.00    +0.007 A 
ATOM     26  C   UNL     1       3.927  -6.909  -3.137  0.00  0.00    +0.000 A 
ENDBRANCH  20  24
ENDBRANCH  19  20
ENDBRANCH  13  19
ENDBRANCH   1  17
BRANCH   8  27
ATOM     27  C   UNL     1       7.245  -1.470   7.660  0.00  0.00    +0.056 C 
ATOM     28  C   UNL     1       5.864  -1.637   8.297  0.00  0.00    +0.011 C 
ATOM     29  C   UNL     1       5.895  -1.098   9.729  0.00  0.00    +0.002 C 
ATOM     30  C   UNL     1       6.271   0.385   9.708  0.00  0.00    -0.028 C 
ATOM     31  C   UNL     1       7.652   0.552   9.071  0.00  0.00    +0.002 C 
ATOM     32  C   UNL     1       7.622   0.013   7.639  0.00  0.00    +0.011 C 
BRANCH  30  33
ATOM     33  C   UNL     1       6.301   0.923  11.140  0.00  0.00    -0.075 C 
BRANCH  33  34
ATOM     34  N   UNL     1       4.946   0.888  11.705  0.00  0.00    +0.383 N 
ATOM     35  C   UNL     1       4.089   1.837  10.983  0.00  0.00    -0.050 C 
ATOM     36  C   UNL     1       2.677   1.798  11.574  0.00  0.00    +0.141 C 
ATOM     37  O   UNL     1       2.741   2.105  12.969  0.00  0.00    -0.383 OA
ATOM     38  C   UNL     1       3.585   1.221  13.713  0.00  0.00    +0.141 C 
ATOM     39  C   UNL     1       4.998   1.259  13.126  0.00  0.00    -0.050 C 
ATOM     40  H   UNL     1       4.568  -0.043  11.615  0.00  0.00    -0.082 HD
ENDBRANCH  33  34
ENDBRANCH  30  33
ENDBRANCH   8  27
TORSDOF 7
