REMARK  Name = CHEMBL1222790
REMARK  4 active torsions:
REMARK  status: ('A' for Active; 'I' for Inactive)
REMARK    1  A    between atoms: C_6  and  C_10
REMARK    2  A    between atoms: C_17  and  C_19
REMARK    3  A    between atoms: N_26  and  C_27
REMARK    4  A    between atoms: C_29  and  C_33
REMARK                            x       y       z     vdW  Elec       q    Type
REMARK                         _______ _______ _______ _____ _____    ______ ____
ROOT
ATOM      1  C   UNL     1       0.792   1.192  -1.114  0.00  0.00    +0.022 A 
ATOM      2  C   UNL     1       2.143   1.528  -1.015  0.00  0.00    +0.033 A 
ATOM      3  C   UNL     1       2.829   0.356  -0.765  0.00  0.00    +0.105 A 
ATOM      4  C   UNL     1       4.194   0.043  -0.569  0.00  0.00    +0.152 A 
ATOM      5  N   UNL     1       4.543  -1.214  -0.345  0.00  0.00    -0.211 NA
ATOM      6  C   UNL     1       3.639  -2.191  -0.300  0.00  0.00    +0.172 A 
ATOM      7  N   UNL     1       2.365  -1.970  -0.472  0.00  0.00    -0.149 NA
ATOM      8  N   UNL     1       1.904  -0.669  -0.716  0.00  0.00    -0.235 N 
ATOM      9  C   UNL     1       0.680  -0.150  -0.927  0.00  0.00    +0.113 A 
ATOM     10  N   UNL     1       5.152   1.037  -0.611  0.00  0.00    -0.283 N 
ATOM     11  H   UNL     1       4.890   1.956  -0.776  0.00  0.00    +0.155 HD
ENDROOT
BRANCH   6  12
ATOM     12  C   UNL     1       4.104  -3.600  -0.041  0.00  0.00    +0.154 C 
ATOM     13  C   UNL     1       4.276  -4.360  -1.375  0.00  0.00    +0.040 C 
ATOM     14  C   UNL     1       2.902  -5.053  -1.522  0.00  0.00    +0.099 C 
ATOM     15  C   UNL     1       2.388  -5.163  -0.104  0.00  0.00    +0.223 C 
ATOM     16  O   UNL     1       1.482  -5.886   0.252  0.00  0.00    -0.275 OA
ATOM     17  N   UNL     1       3.083  -4.343   0.707  0.00  0.00    -0.227 N 
ATOM     18  C   UNL     1       2.870  -4.220   2.032  0.00  0.00    +0.255 C 
ATOM     19  O   UNL     1       1.918  -4.772   2.548  0.00  0.00    -0.269 OA
BRANCH  18  20
ATOM     20  C   UNL     1       3.793  -3.414   2.856  0.00  0.00    +0.056 A 
ATOM     21  C   UNL     1       3.829  -3.575   4.248  0.00  0.00    +0.019 A 
ATOM     22  C   UNL     1       4.710  -2.798   4.975  0.00  0.00    +0.060 A 
ATOM     23  C   UNL     1       5.523  -1.891   4.309  0.00  0.00    +0.213 A 
ATOM     24  N   UNL     1       5.466  -1.761   2.995  0.00  0.00    -0.227 NA
ATOM     25  C   UNL     1       4.647  -2.485   2.261  0.00  0.00    +0.127 A 
ATOM     26  F   UNL     1       6.385  -1.128   5.016  0.00  0.00    -0.184 F 
ENDBRANCH  18  20
ENDBRANCH   6  12
BRANCH  10  27
ATOM     27  C   UNL     1       6.495   0.720  -0.417  0.00  0.00    +0.120 A 
ATOM     28  C   UNL     1       7.002  -0.521  -0.177  0.00  0.00    +0.068 A 
ATOM     29  C   UNL     1       8.388  -0.398  -0.043  0.00  0.00    +0.068 A 
ATOM     30  N   UNL     1       8.709   0.861  -0.194  0.00  0.00    -0.177 NA
ATOM     31  H   UNL     1       7.481   2.546  -0.591  0.00  0.00    +0.190 HD
ATOM     32  N   UNL     1       7.537   1.590  -0.437  0.00  0.00    -0.264 N 
BRANCH  29  33
ATOM     33  C   UNL     1       9.350  -1.526   0.230  0.00  0.00    +0.040 C 
ATOM     34  C   UNL     1       8.767  -2.841   0.751  0.00  0.00    +0.010 C 
ATOM     35  C   UNL     1       9.565  -1.933   1.690  0.00  0.00    +0.010 C 
ENDBRANCH  29  33
ENDBRANCH  10  27
TORSDOF 4
