REMARK  Name = CHEMBL1222792
REMARK  5 active torsions:
REMARK  status: ('A' for Active; 'I' for Inactive)
REMARK    1  A    between atoms: C_6  and  C_10
REMARK    2  A    between atoms: C_11  and  C_15
REMARK    3  A    between atoms: N_17  and  C_18
REMARK    4  A    between atoms: N_25  and  C_26
REMARK    5  A    between atoms: C_28  and  C_32
REMARK                            x       y       z     vdW  Elec       q    Type
REMARK                         _______ _______ _______ _____ _____    ______ ____
ROOT
ATOM      1  C   UNL     1       3.366   2.897   0.250  0.00  0.00    +0.022 A 
ATOM      2  C   UNL     1       4.707   2.801   0.632  0.00  0.00    +0.033 A 
ATOM      3  C   UNL     1       5.093   1.493   0.430  0.00  0.00    +0.105 A 
ATOM      4  C   UNL     1       6.305   0.789   0.625  0.00  0.00    +0.152 A 
ATOM      5  N   UNL     1       6.363  -0.496   0.329  0.00  0.00    -0.209 NA
ATOM      6  C   UNL     1       5.296  -1.155  -0.153  0.00  0.00    +0.178 A 
ATOM      7  N   UNL     1       4.142  -0.558  -0.356  0.00  0.00    -0.146 NA
ATOM      8  N   UNL     1       3.999   0.806  -0.068  0.00  0.00    -0.235 N 
ATOM      9  C   UNL     1       2.962   1.670  -0.171  0.00  0.00    +0.113 A 
ATOM     10  N   UNL     1       7.419   1.441   1.120  0.00  0.00    -0.283 N 
ATOM     11  H   UNL     1       7.396   2.401   1.260  0.00  0.00    +0.155 HD
ENDROOT
BRANCH  10  12
ATOM     12  C   UNL     1       8.573   0.721   1.417  0.00  0.00    +0.120 A 
ATOM     13  C   UNL     1       8.792  -0.596   1.150  0.00  0.00    +0.068 A 
ATOM     14  C   UNL     1      10.072  -0.920   1.609  0.00  0.00    +0.068 A 
ATOM     15  N   UNL     1      10.607   0.153   2.133  0.00  0.00    -0.177 NA
ATOM     16  H   UNL     1       9.824   2.116   2.326  0.00  0.00    +0.190 HD
ATOM     17  N   UNL     1       9.688   1.205   2.022  0.00  0.00    -0.264 N 
BRANCH  14  18
ATOM     18  C   UNL     1      10.724  -2.275   1.517  0.00  0.00    +0.040 C 
ATOM     19  C   UNL     1       9.810  -3.489   1.341  0.00  0.00    +0.010 C 
ATOM     20  C   UNL     1      10.508  -3.244   2.680  0.00  0.00    +0.010 C 
ENDBRANCH  14  18
ENDBRANCH  10  12
BRANCH   6  21
ATOM     21  C   UNL     1       5.423  -2.589  -0.465  0.00  0.00    +0.007 C 
ATOM     22  C   UNL     1       4.793  -3.576   0.196  0.00  0.00    +0.021 C 
ATOM     23  C   UNL     1       5.155  -4.920  -0.392  0.00  0.00    +0.041 C 
ATOM     24  C   UNL     1       5.762  -4.599  -1.776  0.00  0.00    +0.010 C 
ATOM     25  C   UNL     1       6.275  -3.157  -1.576  0.00  0.00    +0.040 C 
BRANCH  22  26
ATOM     26  C   UNL     1       3.884  -3.376   1.328  0.00  0.00    +0.245 C 
ATOM     27  O   UNL     1       3.585  -2.249   1.677  0.00  0.00    -0.270 OA
ATOM     28  N   UNL     1       3.378  -4.440   1.982  0.00  0.00    -0.280 N 
ATOM     29  H   UNL     1       3.598  -5.338   1.690  0.00  0.00    +0.155 HD
BRANCH  28  30
ATOM     30  C   UNL     1       2.535  -4.249   3.083  0.00  0.00    +0.052 A 
ATOM     31  C   UNL     1       2.446  -5.218   4.081  0.00  0.00    +0.029 A 
ATOM     32  C   UNL     1       1.600  -4.985   5.151  0.00  0.00    +0.061 A 
ATOM     33  C   UNL     1       0.873  -3.805   5.194  0.00  0.00    +0.213 A 
ATOM     34  N   UNL     1       0.981  -2.908   4.232  0.00  0.00    -0.226 NA
ATOM     35  C   UNL     1       1.781  -3.090   3.199  0.00  0.00    +0.137 A 
ATOM     36  F   UNL     1       0.044  -3.571   6.235  0.00  0.00    -0.184 F 
ENDBRANCH  28  30
ENDBRANCH  22  26
ENDBRANCH   6  21
TORSDOF 5
