REMARK  Name = CHEMBL442388
REMARK  8 active torsions:
REMARK  status: ('A' for Active; 'I' for Inactive)
REMARK    1  A    between atoms: CG2_1  and  CB_2
REMARK    2  A    between atoms: CB_2  and  CA_3
REMARK    3  A    between atoms: CB_2  and  OG1_28
REMARK    4  A    between atoms: CA_3  and  C_4
REMARK    5  A    between atoms: CA_3  and  N_7
REMARK    6  A    between atoms: C_13  and  O_26
REMARK    7  A    between atoms: C_14  and  C_15
REMARK    8  A    between atoms: C_15  and  C_16
REMARK                            x       y       z     vdW  Elec       q    Type
REMARK                         _______ _______ _______ _____ _____    ______ ____
ROOT
ATOM      1  N   THR A   1       0.056  -0.038   2.447  0.00  0.00    -0.367 N 
ATOM      2  C   UNK A   0       0.715   0.633   3.351  0.00  0.00    +0.090 C 
ATOM      3  C   UNK A   0       2.126   1.024   3.115  0.00  0.00    +0.206 C 
ATOM      4  C   UNK A   0       2.797   1.720   4.061  0.00  0.00    +0.107 C 
ATOM      5  C   UNK A   0       2.167   2.080   5.275  0.00  0.00    +0.224 C 
ATOM      6  O   UNK A   0       2.790   2.707   6.113  0.00  0.00    -0.284 OA
ATOM      7  C   UNK A   0       0.765   1.706   5.538  0.00  0.00    +0.169 C 
ATOM      8  C   UNK A   0       0.063   1.017   4.614  0.00  0.00    +0.025 C 
ATOM      9  O   UNK A   0       2.739   0.685   1.958  0.00  0.00    -0.286 OA
ATOM     10  H   THR A   1      -0.825  -0.389   2.650  0.00  0.00    +0.161 HD
ENDROOT
BRANCH   7  11
ATOM     11  O   UNK A   0       0.178   2.060   6.709  0.00  0.00    -0.503 OA
ATOM     12  H   UNK A   0       0.757   2.554   7.305  0.00  0.00    +0.292 HD
ENDBRANCH   7  11
BRANCH   1  13
ATOM     13  CA  THR A   1       0.648  -0.263   1.126  0.00  0.00    +0.222 C 
BRANCH  13  14
ATOM     14  C   THR A   1       1.476  -1.522   1.153  0.00  0.00    +0.380 C 
ATOM     15  O   THR A   1       2.448  -1.628   0.425  0.00  0.00    -0.244 OA
ATOM     16  OXT THR A   1       1.173  -2.434   1.903  0.00  0.00    -0.244 OA
ENDBRANCH  13  14
BRANCH  13  18
ATOM     17  CG2 THR A   1      -1.305   0.872   0.058  0.00  0.00    +0.040 C 
ATOM     18  CB  THR A   1      -0.465  -0.406   0.086  0.00  0.00    +0.145 C 
BRANCH  18  19
ATOM     19  OG1 THR A   1      -1.298  -1.516   0.430  0.00  0.00    -0.389 OA
ATOM     20  HG1 THR A   1      -1.723  -1.435   1.294  0.00  0.00    +0.210 HD
ENDBRANCH  18  19
ENDBRANCH  13  18
ENDBRANCH   1  13
BRANCH   8  21
ATOM     21  C   UNK A   0      -1.372   0.638   4.877  0.00  0.00    +0.045 C 
BRANCH  21  22
ATOM     22  C   UNK A   0      -2.298   1.685   4.255  0.00  0.00    -0.003 C 
ATOM     23  C   UNK A   0      -2.098   3.027   4.962  0.00  0.00    +0.004 C 
ATOM     24  C   UNK A   0      -2.427   2.874   6.449  0.00  0.00    +0.001 C 
ATOM     25  C   UNK A   0      -3.881   2.426   6.606  0.00  0.00    +0.004 C 
ATOM     26  C   UNK A   0      -4.081   1.084   5.898  0.00  0.00    -0.008 C 
ATOM     27  C   UNK A   0      -3.752   1.237   4.412  0.00  0.00    -0.004 C 
ATOM     28  C   UNK A   0      -3.952  -0.104   3.705  0.00  0.00    +0.004 C 
ATOM     29  C   UNK A   0      -5.407  -0.552   3.862  0.00  0.00    +0.000 C 
ATOM     30  C   UNK A   0      -5.735  -0.705   5.348  0.00  0.00    +0.000 C 
ATOM     31  C   UNK A   0      -5.536   0.637   6.056  0.00  0.00    +0.004 C 
ENDBRANCH  21  22
ENDBRANCH   8  21
TORSDOF 7
