REMARK  Name = CHEMBL584355
REMARK  3 active torsions:
REMARK  status: ('A' for Active; 'I' for Inactive)
REMARK    1  A    between atoms: C_14  and  C_16
REMARK    2  A    between atoms: N_24  and  C_25
REMARK    3  A    between atoms: C_27  and  C_31
REMARK                            x       y       z     vdW  Elec       q    Type
REMARK                         _______ _______ _______ _____ _____    ______ ____
ROOT
ATOM      1  C   UNL     1       1.456   2.974   1.038  0.00  0.00    +0.022 A 
ATOM      2  C   UNL     1       2.733   3.032   1.598  0.00  0.00    +0.032 A 
ATOM      3  C   UNL     1       3.420   1.922   1.143  0.00  0.00    +0.103 A 
ATOM      4  C   UNL     1       4.729   1.430   1.351  0.00  0.00    +0.153 A 
ATOM      5  N   UNL     1       5.101   0.308   0.759  0.00  0.00    -0.198 NA
ATOM      6  C   UNL     1       4.267  -0.374  -0.033  0.00  0.00    +0.213 A 
ATOM      7  N   UNL     1       3.041   0.030  -0.266  0.00  0.00    -0.264 N 
ATOM      8  N   UNL     1       2.568   1.210   0.324  0.00  0.00    -0.257 N 
ATOM      9  C   UNL     1       1.388   1.855   0.269  0.00  0.00    +0.111 A 
ATOM     10  N   UNL     1       4.713  -1.546  -0.628  0.00  0.00    -0.288 N 
ATOM     11  C   UNL     1       3.886  -2.480  -1.413  0.00  0.00    +0.109 C 
ATOM     12  C   UNL     1       4.888  -3.220  -2.334  0.00  0.00    +0.021 C 
ATOM     13  C   UNL     1       6.118  -3.368  -1.401  0.00  0.00    +0.033 C 
ATOM     14  C   UNL     1       6.091  -2.058  -0.586  0.00  0.00    +0.162 C 
ATOM     15  N   UNL     1       5.611   2.115   2.164  0.00  0.00    -0.283 N 
ATOM     16  H   UNL     1       5.338   2.946   2.583  0.00  0.00    +0.155 HD
ATOM     17  H   UNL     1       2.462  -0.488  -0.847  0.00  0.00    +0.190 HD
ENDROOT
BRANCH  14  18
ATOM     18  C   UNL     1       7.031  -1.051  -1.197  0.00  0.00    +0.239 C 
ATOM     19  O   UNL     1       6.595  -0.163  -1.899  0.00  0.00    -0.273 OA
ATOM     20  N   UNL     1       8.355  -1.137  -0.964  0.00  0.00    -0.263 N 
ATOM     21  C   UNL     1       9.232  -0.272  -1.608  0.00  0.00    +0.164 A 
ATOM     22  N   UNL     1       8.953   0.686  -2.465  0.00  0.00    -0.233 NA
ATOM     23  C   UNL     1       9.909   1.427  -2.994  0.00  0.00    +0.120 A 
ATOM     24  C   UNL     1      11.182   1.155  -2.615  0.00  0.00    +0.068 A 
ATOM     25  S   UNL     1      10.908  -0.193  -1.477  0.00  0.00    -0.061 S 
ATOM     26  H   UNL     1       8.697  -1.802  -0.346  0.00  0.00    +0.157 HD
ENDBRANCH  14  18
BRANCH  15  27
ATOM     27  C   UNL     1       6.891   1.612   2.384  0.00  0.00    +0.120 A 
ATOM     28  C   UNL     1       7.327   0.358   2.078  0.00  0.00    +0.068 A 
ATOM     29  C   UNL     1       8.668   0.266   2.460  0.00  0.00    +0.068 A 
ATOM     30  N   UNL     1       9.031   1.413   2.975  0.00  0.00    -0.177 NA
ATOM     31  H   UNL     1       7.923   3.201   3.248  0.00  0.00    +0.190 HD
ATOM     32  N   UNL     1       7.935   2.283   2.935  0.00  0.00    -0.264 N 
BRANCH  29  33
ATOM     33  C   UNL     1       9.546  -0.949   2.306  0.00  0.00    +0.040 C 
ATOM     34  C   UNL     1       8.859  -2.287   2.030  0.00  0.00    +0.010 C 
ATOM     35  C   UNL     1       9.478  -2.014   3.402  0.00  0.00    +0.010 C 
ENDBRANCH  29  33
ENDBRANCH  15  27
TORSDOF 3
