REMARK  Name = CHEMBL514258
REMARK  10 active torsions:
REMARK  status: ('A' for Active; 'I' for Inactive)
REMARK    1  A    between atoms: C_1  and  N_2
REMARK    2  A    between atoms: N_2  and  C_3
REMARK    3  A    between atoms: N_2  and  C_4
REMARK    4  A    between atoms: C_4  and  C_5
REMARK    5  A    between atoms: C_13  and  N_18
REMARK    6  A    between atoms: C_14  and  O_16
REMARK    7  A    between atoms: O_16  and  C_17
REMARK    8  A    between atoms: C_27  and  N_29
REMARK    9  A    between atoms: N_29  and  C_30
REMARK   10  A    between atoms: C_35  and  C_36
REMARK                            x       y       z     vdW  Elec       q    Type
REMARK                         _______ _______ _______ _____ _____    ______ ____
ROOT
ATOM      1  N   UNL     1       7.211   1.603  -0.641  0.00  0.00    -0.281 N 
ATOM      2  C   UNL     1       6.845   1.632   0.695  0.00  0.00    +0.223 A 
ATOM      3  N   UNL     1       5.821   0.893   1.090  0.00  0.00    -0.196 NA
ATOM      4  C   UNL     1       5.437   0.892   2.366  0.00  0.00    +0.145 A 
ATOM      5  C   UNL     1       6.143   1.692   3.283  0.00  0.00    +0.059 A 
ATOM      6  C   UNL     1       5.502   1.487   4.582  0.00  0.00    +0.032 A 
ATOM      7  C   UNL     1       4.496   0.619   4.386  0.00  0.00    +0.085 A 
ATOM      8  N   UNL     1       4.447   0.256   3.063  0.00  0.00    -0.346 N 
ATOM      9  H   UNL     1       3.806  -0.362   2.679  0.00  0.00    +0.167 HD
ATOM     10  C   UNL     1       7.223   2.460   2.820  0.00  0.00    +0.137 A 
ATOM     11  N   UNL     1       7.538   2.395   1.531  0.00  0.00    -0.198 NA
ATOM     12  H   UNL     1       8.012   2.064  -0.934  0.00  0.00    +0.155 HD
ENDROOT
BRANCH   1  21
ATOM     13  C   UNL     1       2.104   0.024  -1.156  0.00  0.00    +0.203 C 
ATOM     14  O   UNL     1       2.532   0.642  -0.205  0.00  0.00    -0.277 OA
ATOM     15  N   UNL     1       2.927  -0.308  -2.170  0.00  0.00    -0.272 N 
ATOM     16  C   UNL     1       2.526  -1.046  -3.371  0.00  0.00    +0.118 C 
ATOM     17  C   UNL     1       3.805  -1.171  -4.214  0.00  0.00    +0.056 C 
ATOM     18  C   UNL     1       4.869  -0.471  -3.399  0.00  0.00    -0.021 A 
ATOM     19  C   UNL     1       4.290   0.007  -2.234  0.00  0.00    +0.041 A 
ATOM     20  C   UNL     1       5.080   0.699  -1.315  0.00  0.00    +0.050 A 
ATOM     21  C   UNL     1       6.425   0.907  -1.568  0.00  0.00    +0.078 A 
ATOM     22  C   UNL     1       6.996   0.425  -2.743  0.00  0.00    +0.142 A 
ATOM     23  C   UNL     1       6.214  -0.268  -3.651  0.00  0.00    +0.053 A 
BRANCH  22  24
ATOM     24  O   UNL     1       8.318   0.629  -2.995  0.00  0.00    -0.493 OA
ATOM     25  C   UNL     1       8.833   0.106  -4.221  0.00  0.00    +0.277 C 
ENDBRANCH  22  24
BRANCH  13  26
ATOM     26  C   UNL     1       0.651  -0.374  -1.204  0.00  0.00    +0.018 C 
BRANCH  26  28
ATOM     27  C   UNL     1      -0.026   1.571   0.027  0.00  0.00    -0.096 C 
ATOM     28  N   UNL     1      -0.027   0.102   0.010  0.00  0.00    +0.382 N 
ATOM     29  C   UNL     1      -1.412  -0.387   0.021  0.00  0.00    -0.096 C 
ATOM     30  H   UNL     1       0.458  -0.244   0.824  0.00  0.00    -0.082 HD
ENDBRANCH  26  28
ENDBRANCH  13  26
ENDBRANCH   1  21
BRANCH  10  31
ATOM     31  N   UNL     1       7.945   3.262   3.687  0.00  0.00    -0.297 N 
ATOM     32  H   UNL     1       7.752   3.247   4.637  0.00  0.00    +0.154 HD
BRANCH  31  33
ATOM     33  C   UNL     1       8.948   4.090   3.195  0.00  0.00    +0.063 A 
ATOM     34  C   UNL     1       9.737   3.686   2.118  0.00  0.00    +0.027 A 
ATOM     35  C   UNL     1      10.721   4.544   1.664  0.00  0.00    +0.022 A 
ATOM     36  C   UNL     1      10.896   5.772   2.287  0.00  0.00    +0.112 A 
ATOM     37  N   UNL     1      10.142   6.133   3.300  0.00  0.00    -0.248 NA
ATOM     38  C   UNL     1       9.179   5.347   3.769  0.00  0.00    +0.146 A 
BRANCH  38  39
ATOM     39  C   UNL     1       8.352   5.798   4.907  0.00  0.00    +0.262 C 
ATOM     40  O   UNL     1       7.535   5.045   5.401  0.00  0.00    -0.269 OA
ATOM     41  N   UNL     1       8.503   7.044   5.399  0.00  0.00    -0.324 N 
ATOM     42  H   UNL     1       9.155   7.644   5.005  0.00  0.00    +0.145 HD
ATOM     43  H   UNL     1       7.960   7.340   6.146  0.00  0.00    +0.145 HD
ENDBRANCH  38  39
ENDBRANCH  31  33
ENDBRANCH  10  31
TORSDOF 7
