REMARK  Name = CHEMBL501964
REMARK  8 active torsions:
REMARK  status: ('A' for Active; 'I' for Inactive)
REMARK    1  A    between atoms: C_1  and  O_2
REMARK    2  A    between atoms: O_2  and  C_3
REMARK    3  A    between atoms: C_8  and  N_9
REMARK    4  A    between atoms: C_18  and  N_20
REMARK    5  A    between atoms: N_20  and  C_21
REMARK    6  A    between atoms: C_26  and  C_27
REMARK    7  A    between atoms: C_34  and  C_36
REMARK    8  A    between atoms: C_36  and  N_37
REMARK                            x       y       z     vdW  Elec       q    Type
REMARK                         _______ _______ _______ _____ _____    ______ ____
ROOT
ATOM      1  N   UNL     1      -0.076  -2.777  -0.021  0.00  0.00    -0.281 N 
ATOM      2  C   UNL     1      -0.082  -4.070  -0.520  0.00  0.00    +0.223 A 
ATOM      3  N   UNL     1      -1.192  -4.536  -1.067  0.00  0.00    -0.196 NA
ATOM      4  C   UNL     1      -1.240  -5.772  -1.559  0.00  0.00    +0.145 A 
ATOM      5  C   UNL     1      -0.085  -6.573  -1.484  0.00  0.00    +0.059 A 
ATOM      6  C   UNL     1      -0.437  -7.855  -2.094  0.00  0.00    +0.032 A 
ATOM      7  C   UNL     1      -1.718  -7.761  -2.483  0.00  0.00    +0.085 A 
ATOM      8  N   UNL     1      -2.211  -6.519  -2.169  0.00  0.00    -0.346 N 
ATOM      9  H   UNL     1      -3.114  -6.216  -2.352  0.00  0.00    +0.167 HD
ATOM     10  C   UNL     1       1.071  -6.039  -0.895  0.00  0.00    +0.137 A 
ATOM     11  N   UNL     1       1.029  -4.792  -0.435  0.00  0.00    -0.198 NA
ATOM     12  H   UNL     1       0.751  -2.386   0.301  0.00  0.00    +0.155 HD
ENDROOT
BRANCH   1  18
ATOM     13  C   UNL     1      -1.217  -0.645   0.013  0.00  0.00    +0.142 A 
ATOM     14  C   UNL     1      -2.396   0.081   0.048  0.00  0.00    +0.053 A 
ATOM     15  C   UNL     1      -3.614  -0.573   0.095  0.00  0.00    -0.021 A 
ATOM     16  C   UNL     1      -3.672  -1.958   0.107  0.00  0.00    +0.041 A 
ATOM     17  C   UNL     1      -2.484  -2.689   0.072  0.00  0.00    +0.050 A 
ATOM     18  C   UNL     1      -1.264  -2.037   0.020  0.00  0.00    +0.078 A 
ATOM     19  N   UNL     1      -4.994  -2.418   0.157  0.00  0.00    -0.270 N 
ATOM     20  C   UNL     1      -5.919  -1.282   0.180  0.00  0.00    +0.118 C 
ATOM     21  C   UNL     1      -5.026  -0.032   0.139  0.00  0.00    +0.056 C 
ATOM     22  C   UNL     1      -5.361  -3.714   0.179  0.00  0.00    +0.234 C 
ATOM     23  O   UNL     1      -4.516  -4.584   0.157  0.00  0.00    -0.274 OA
BRANCH  13  25
ATOM     24  C   UNL     1      -0.051   1.427  -0.038  0.00  0.00    +0.277 C 
ATOM     25  O   UNL     1      -0.019  -0.001  -0.033  0.00  0.00    -0.493 OA
ENDBRANCH  13  25
BRANCH  22  26
ATOM     26  C   UNL     1      -6.821  -4.083   0.233  0.00  0.00    +0.181 C 
BRANCH  26  27
ATOM     27  N   UNL     1      -6.956  -5.546   0.248  0.00  0.00    -0.290 NA
ATOM     28  C   UNL     1      -6.500  -6.131  -1.021  0.00  0.00    +0.113 C 
ATOM     29  C   UNL     1      -6.601  -7.657  -0.940  0.00  0.00    +0.175 C 
ATOM     30  O   UNL     1      -7.948  -8.024  -0.627  0.00  0.00    -0.377 OA
ATOM     31  C   UNL     1      -8.424  -7.472   0.604  0.00  0.00    +0.175 C 
ATOM     32  C   UNL     1      -8.341  -5.944   0.538  0.00  0.00    +0.113 C 
ENDBRANCH  26  27
ENDBRANCH  22  26
ENDBRANCH   1  18
BRANCH  10  33
ATOM     33  N   UNL     1       2.229  -6.790  -0.799  0.00  0.00    -0.298 N 
ATOM     34  H   UNL     1       2.276  -7.665  -1.215  0.00  0.00    +0.154 HD
BRANCH  33  35
ATOM     35  C   UNL     1       3.327  -6.291  -0.106  0.00  0.00    +0.047 A 
ATOM     36  C   UNL     1       3.149  -5.341   0.891  0.00  0.00    +0.024 A 
ATOM     37  C   UNL     1       4.239  -4.845   1.578  0.00  0.00    +0.005 A 
ATOM     38  C   UNL     1       5.517  -5.288   1.282  0.00  0.00    +0.039 A 
ATOM     39  C   UNL     1       5.715  -6.233   0.294  0.00  0.00    +0.137 A 
ATOM     40  C   UNL     1       4.619  -6.749  -0.407  0.00  0.00    +0.093 A 
ATOM     41  F   UNL     1       6.964  -6.662   0.008  0.00  0.00    -0.205 F 
BRANCH  40  42
ATOM     42  C   UNL     1       4.821  -7.761  -1.458  0.00  0.00    +0.246 C 
ATOM     43  O   UNL     1       5.009  -7.415  -2.609  0.00  0.00    -0.270 OA
ATOM     44  N   UNL     1       4.798  -9.072  -1.145  0.00  0.00    -0.325 N 
ATOM     45  H   UNL     1       4.648  -9.349  -0.227  0.00  0.00    +0.145 HD
ATOM     46  H   UNL     1       4.931  -9.739  -1.837  0.00  0.00    +0.145 HD
ENDBRANCH  40  42
ENDBRANCH  33  35
ENDBRANCH  10  33
TORSDOF 7
