REMARK  Name = CHEMBL261253
REMARK  5 active torsions:
REMARK  status: ('A' for Active; 'I' for Inactive)
REMARK    1  A    between atoms: C_4  and  C_7
REMARK    2  A    between atoms: C_13  and  C_17
REMARK    3  A    between atoms: C_24  and  C_26
REMARK    4  A    between atoms: C_28  and  C_30
REMARK    5  A    between atoms: C_30  and  N_31
REMARK                            x       y       z     vdW  Elec       q    Type
REMARK                         _______ _______ _______ _____ _____    ______ ____
ROOT
ATOM      1  C   UNL     1       9.511   0.594   0.515  0.00  0.00    +0.100 A 
ATOM      2  C   UNL     1      10.758   0.122   0.907  0.00  0.00    +0.113 A 
ATOM      3  C   UNL     1      11.223  -1.068   1.504  0.00  0.00    +0.142 A 
ATOM      4  N   UNL     1      12.512  -1.207   1.756  0.00  0.00    -0.237 NA
ATOM      5  C   UNL     1      13.386  -0.238   1.455  0.00  0.00    +0.131 A 
ATOM      6  C   UNL     1      12.993   0.915   0.885  0.00  0.00    +0.113 A 
ATOM      7  N   UNL     1      11.663   1.119   0.599  0.00  0.00    -0.298 N 
ATOM      8  C   UNL     1      10.968   2.131   0.048  0.00  0.00    +0.118 A 
ATOM      9  N   UNL     1       9.699   1.817  -0.006  0.00  0.00    -0.231 NA
ATOM     10  N   UNL     1      10.336  -2.083   1.824  0.00  0.00    -0.341 N 
ATOM     11  H   UNL     1       9.470  -2.125   1.389  0.00  0.00    +0.144 HD
ATOM     12  H   UNL     1      10.581  -2.751   2.483  0.00  0.00    +0.144 HD
ENDROOT
BRANCH   1  19
ATOM     13  C   UNL     1       5.208  -2.716   3.189  0.00  0.00    +0.072 A 
ATOM     14  C   UNL     1       4.281  -2.757   2.136  0.00  0.00    +0.029 A 
ATOM     15  C   UNL     1       4.561  -2.128   0.959  0.00  0.00    +0.012 A 
ATOM     16  C   UNL     1       5.789  -1.448   0.840  0.00  0.00    +0.000 A 
ATOM     17  C   UNL     1       6.134  -0.781  -0.348  0.00  0.00    +0.010 A 
ATOM     18  C   UNL     1       7.324  -0.132  -0.441  0.00  0.00    +0.011 A 
ATOM     19  C   UNL     1       8.221  -0.119   0.641  0.00  0.00    +0.005 A 
ATOM     20  C   UNL     1       7.909  -0.767   1.824  0.00  0.00    +0.038 A 
ATOM     21  C   UNL     1       6.684  -1.443   1.940  0.00  0.00    +0.072 A 
ATOM     22  N   UNL     1       6.354  -2.074   3.072  0.00  0.00    -0.247 NA
BRANCH  13  26
ATOM     23  C   UNL     1       4.295  -4.689   6.842  0.00  0.00    +0.000 A 
ATOM     24  C   UNL     1       5.493  -4.013   6.706  0.00  0.00    +0.001 A 
ATOM     25  C   UNL     1       5.795  -3.370   5.522  0.00  0.00    +0.010 A 
ATOM     26  C   UNL     1       4.889  -3.405   4.463  0.00  0.00    +0.000 A 
ATOM     27  C   UNL     1       3.683  -4.088   4.606  0.00  0.00    +0.010 A 
ATOM     28  C   UNL     1       3.392  -4.727   5.795  0.00  0.00    +0.001 A 
ENDBRANCH  13  26
ENDBRANCH   1  19
BRANCH   8  29
ATOM     29  C   UNL     1      11.563   3.427  -0.439  0.00  0.00    +0.056 C 
ATOM     30  C   UNL     1      10.676   4.653  -0.167  0.00  0.00    +0.016 C 
ATOM     31  C   UNL     1      11.082   5.159  -1.561  0.00  0.00    +0.004 C 
ATOM     32  C   UNL     1      11.328   3.688  -1.937  0.00  0.00    +0.016 C 
BRANCH  31  33
ATOM     33  C   UNL     1      12.353   6.011  -1.557  0.00  0.00    +0.088 C 
BRANCH  33  34
ATOM     34  N   UNL     1      12.590   6.543  -2.906  0.00  0.00    -0.298 NA
ATOM     35  C   UNL     1      12.905   5.461  -3.850  0.00  0.00    +0.112 C 
ATOM     36  C   UNL     1      13.085   6.051  -5.252  0.00  0.00    +0.175 C 
ATOM     37  O   UNL     1      14.106   7.052  -5.214  0.00  0.00    -0.377 OA
ATOM     38  C   UNL     1      13.832   8.121  -4.305  0.00  0.00    +0.175 C 
ATOM     39  C   UNL     1      13.659   7.552  -2.894  0.00  0.00    +0.112 C 
ENDBRANCH  33  34
ENDBRANCH  31  33
ENDBRANCH   8  29
TORSDOF 5
