REMARK  Name = CHEMBL522785
REMARK  8 active torsions:
REMARK  status: ('A' for Active; 'I' for Inactive)
REMARK    1  A    between atoms: C_1  and  C_2
REMARK    2  A    between atoms: C_13  and  O_37
REMARK    3  A    between atoms: C_14  and  O_35
REMARK    4  A    between atoms: C_17  and  N_19
REMARK    5  A    between atoms: N_19  and  C_20
REMARK    6  A    between atoms: C_24  and  C_26
REMARK    7  A    between atoms: O_35  and  C_36
REMARK    8  A    between atoms: O_37  and  C_38
REMARK                            x       y       z     vdW  Elec       q    Type
REMARK                         _______ _______ _______ _____ _____    ______ ____
ROOT
ATOM      1  C   UNL     1       0.129   1.510   0.002  0.00  0.00    +0.065 C 
ATOM      2  C   UNL     1       0.309   0.013  -0.021  0.00  0.00    +0.035 A 
ATOM      3  C   UNL     1       0.232  -0.781  -1.112  0.00  0.00    +0.068 A 
ATOM      4  C   UNL     1       0.460  -2.104  -0.699  0.00  0.00    +0.147 A 
ATOM      5  N   UNL     1       0.665  -2.095   0.597  0.00  0.00    -0.158 NA
ATOM      6  N   UNL     1       0.580  -0.770   1.044  0.00  0.00    -0.280 N 
ATOM      7  H   UNL     1       0.694  -0.469   1.959  0.00  0.00    +0.189 HD
ATOM      8  N   UNL     1       0.466  -3.235  -1.525  0.00  0.00    -0.267 N 
ATOM      9  C   UNL     1       0.233  -3.101  -2.884  0.00  0.00    +0.223 A 
ATOM     10  N   UNL     1       0.013  -1.895  -3.372  0.00  0.00    -0.214 NA
ATOM     11  C   UNL     1      -0.217  -1.724  -4.683  0.00  0.00    +0.082 A 
ATOM     12  C   UNL     1      -0.453  -0.458  -5.232  0.00  0.00    +0.078 A 
ATOM     13  C   UNL     1      -0.684  -0.336  -6.584  0.00  0.00    +0.164 A 
ATOM     14  C   UNL     1      -0.685  -1.465  -7.415  0.00  0.00    +0.162 A 
ATOM     15  C   UNL     1      -0.457  -2.709  -6.901  0.00  0.00    +0.062 A 
ATOM     16  C   UNL     1      -0.219  -2.861  -5.529  0.00  0.00    +0.044 A 
ATOM     17  C   UNL     1       0.023  -4.129  -4.949  0.00  0.00    +0.136 A 
ATOM     18  N   UNL     1       0.245  -4.193  -3.643  0.00  0.00    -0.198 NA
ATOM     19  H   UNL     1       0.634  -4.112  -1.146  0.00  0.00    +0.156 HD
ENDROOT
BRANCH  17  20
ATOM     20  N   UNL     1       0.033  -5.272  -5.724  0.00  0.00    -0.299 N 
ATOM     21  H   UNL     1      -0.043  -5.204  -6.688  0.00  0.00    +0.154 HD
BRANCH  20  22
ATOM     22  C   UNL     1       0.153  -6.526  -5.119  0.00  0.00    +0.033 A 
ATOM     23  C   UNL     1      -0.436  -6.760  -3.881  0.00  0.00    +0.023 A 
ATOM     24  C   UNL     1      -0.319  -7.998  -3.279  0.00  0.00    +0.002 A 
ATOM     25  C   UNL     1       0.381  -9.011  -3.902  0.00  0.00    +0.010 A 
ATOM     26  C   UNL     1       0.975  -8.787  -5.145  0.00  0.00    +0.009 A 
ATOM     27  C   UNL     1       0.854  -7.539  -5.755  0.00  0.00    +0.033 A 
BRANCH  26  28
ATOM     28  C   UNL     1       1.726  -9.870  -5.815  0.00  0.00    +0.109 A 
ATOM     29  N   UNL     1       2.352  -9.848  -6.971  0.00  0.00    -0.239 NA
ATOM     30  C   UNL     1       3.003 -10.919  -7.464  0.00  0.00    +0.079 A 
ATOM     31  C   UNL     1       3.711 -11.027  -8.685  0.00  0.00    +0.029 A 
ATOM     32  C   UNL     1       4.317 -12.192  -9.038  0.00  0.00    +0.002 A 
ATOM     33  C   UNL     1       4.269 -13.315  -8.224  0.00  0.00    +0.001 A 
ATOM     34  C   UNL     1       3.588 -13.252  -7.022  0.00  0.00    +0.017 A 
ATOM     35  C   UNL     1       2.972 -12.081  -6.656  0.00  0.00    +0.040 A 
ATOM     36  S   UNL     1       2.021 -11.542  -5.255  0.00  0.00    -0.067 S 
ENDBRANCH  26  28
ENDBRANCH  20  22
ENDBRANCH  17  20
BRANCH  14  37
ATOM     37  O   UNL     1      -0.915  -1.319  -8.747  0.00  0.00    -0.491 OA
ATOM     38  C   UNL     1      -0.904  -2.508  -9.541  0.00  0.00    +0.277 C 
ENDBRANCH  14  37
BRANCH  13  39
ATOM     39  O   UNL     1      -0.913   0.892  -7.119  0.00  0.00    -0.491 OA
ATOM     40  C   UNL     1      -0.900   2.003  -6.221  0.00  0.00    +0.277 C 
ENDBRANCH  13  39
TORSDOF 5
