REMARK  Name = CHEMBL251795
REMARK  7 active torsions:
REMARK  status: ('A' for Active; 'I' for Inactive)
REMARK    1  A    between atoms: C_1  and  C_2
REMARK    2  A    between atoms: C_5  and  S_22
REMARK    3  A    between atoms: C_7  and  C_8
REMARK    4  A    between atoms: C_16  and  C_18
REMARK    5  A    between atoms: C_18  and  C_20
REMARK    6  A    between atoms: C_18  and  N_21
REMARK    7  A    between atoms: S_22  and  C_23
REMARK                            x       y       z     vdW  Elec       q    Type
REMARK                         _______ _______ _______ _____ _____    ______ ____
ROOT
ATOM      1  C   UNL     1      -1.009   0.393   0.748  0.00  0.00    +0.044 C 
ATOM      2  C   UNL     1      -0.521  -1.031   0.675  0.00  0.00    -0.038 A 
ATOM      3  C   UNL     1      -0.650  -1.745  -0.499  0.00  0.00    +0.005 A 
ATOM      4  C   UNL     1      -0.204  -3.051  -0.571  0.00  0.00    +0.015 A 
ATOM      5  C   UNL     1       0.377  -3.655   0.539  0.00  0.00    +0.014 A 
ATOM      6  C   UNL     1       0.511  -2.946   1.724  0.00  0.00    +0.028 A 
ATOM      7  C   UNL     1       0.066  -1.625   1.794  0.00  0.00    +0.041 A 
ENDROOT
BRANCH   7   8
ATOM      8  C   UNL     1       0.211  -0.860   3.050  0.00  0.00    +0.247 C 
ATOM      9  O   UNL     1      -0.763  -0.348   3.566  0.00  0.00    -0.270 OA
ATOM     10  N   UNL     1       1.424  -0.730   3.625  0.00  0.00    -0.295 N 
ATOM     11  C   UNL     1       2.595  -1.419   3.063  0.00  0.00    +0.127 C 
ATOM     12  C   UNL     1       3.686  -0.379   2.782  0.00  0.00    +0.126 C 
ATOM     13  N   UNL     1       3.861   0.454   3.980  0.00  0.00    -0.300 N 
ATOM     14  C   UNL     1       2.691   1.142   4.542  0.00  0.00    +0.126 C 
ATOM     15  C   UNL     1       1.600   0.107   4.819  0.00  0.00    +0.127 C 
ATOM     16  C   UNL     1       5.074   0.584   4.554  0.00  0.00    +0.201 C 
ATOM     17  O   UNL     1       6.050   0.094   4.027  0.00  0.00    -0.277 OA
BRANCH  16  18
ATOM     18  C   UNL     1       5.216   1.337   5.852  0.00  0.00    +0.010 C 
ATOM     19  C   UNL     1       4.934   2.822   5.614  0.00  0.00    -0.005 C 
BRANCH  18  20
ATOM     20  N   UNL     1       6.584   1.175   6.364  0.00  0.00    +0.385 N 
ATOM     21  H   UNL     1       7.241   1.538   5.691  0.00  0.00    -0.089 HD
ATOM     22  H   UNL     1       6.679   1.679   7.233  0.00  0.00    -0.089 HD
ATOM     23  H   UNL     1       6.770   0.196   6.522  0.00  0.00    -0.089 HD
ENDBRANCH  18  20
ENDBRANCH  16  18
ENDBRANCH   7   8
BRANCH   5  24
ATOM     24  S   UNL     1       0.941  -5.322   0.442  0.00  0.00    -0.081 S 
BRANCH  24  25
ATOM     25  C   UNL     1      -0.497  -6.280   0.784  0.00  0.00    +0.071 A 
ATOM     26  C   UNL     1      -0.629  -7.627   0.935  0.00  0.00    +0.135 A 
ATOM     27  N   UNL     1      -1.817  -8.142   1.193  0.00  0.00    -0.232 NA
ATOM     28  C   UNL     1      -2.886  -7.375   1.308  0.00  0.00    +0.164 A 
ATOM     29  S   UNL     1      -2.187  -5.752   1.038  0.00  0.00    -0.045 S 
ATOM     30  N   UNL     1      -4.203  -7.734   1.572  0.00  0.00    -0.279 N 
ATOM     31  C   UNL     1      -4.518  -9.056   1.866  0.00  0.00    +0.126 A 
ATOM     32  C   UNL     1      -5.849  -9.430   2.019  0.00  0.00    +0.044 A 
ATOM     33  C   UNL     1      -6.149 -10.749   2.311  0.00  0.00    +0.006 A 
ATOM     34  C   UNL     1      -5.103 -11.653   2.440  0.00  0.00    +0.035 A 
ATOM     35  C   UNL     1      -3.804 -11.213   2.275  0.00  0.00    +0.108 A 
ATOM     36  N   UNL     1      -3.548  -9.949   1.992  0.00  0.00    -0.225 NA
ATOM     37 BR   UNL     1      -2.374 -12.439   2.449  0.00  0.00    -0.029 Br
ATOM     38  H   UNL     1      -4.902  -7.062   1.552  0.00  0.00    +0.155 HD
ENDBRANCH  24  25
ENDBRANCH   5  24
TORSDOF 5
