REMARK  Name = CHEMBL514868
REMARK  10 active torsions:
REMARK  status: ('A' for Active; 'I' for Inactive)
REMARK    1  A    between atoms: C_1  and  C_2
REMARK    2  A    between atoms: C_2  and  C_3
REMARK    3  A    between atoms: C_3  and  N_4
REMARK    4  A    between atoms: C_8  and  C_10
REMARK    5  A    between atoms: C_13  and  N_18
REMARK    6  A    between atoms: C_14  and  O_16
REMARK    7  A    between atoms: O_16  and  C_17
REMARK    8  A    between atoms: C_27  and  N_29
REMARK    9  A    between atoms: N_29  and  C_30
REMARK   10  A    between atoms: C_35  and  C_36
REMARK                            x       y       z     vdW  Elec       q    Type
REMARK                         _______ _______ _______ _____ _____    ______ ____
ROOT
ATOM      1  N   UNL     1       5.355  -6.750   5.472  0.00  0.00    -0.281 N 
ATOM      2  C   UNL     1       5.181  -6.944   6.833  0.00  0.00    +0.223 A 
ATOM      3  N   UNL     1       4.043  -6.562   7.389  0.00  0.00    -0.196 NA
ATOM      4  C   UNL     1       3.834  -6.730   8.694  0.00  0.00    +0.145 A 
ATOM      5  C   UNL     1       4.850  -7.321   9.468  0.00  0.00    +0.059 A 
ATOM      6  C   UNL     1       4.341  -7.372  10.838  0.00  0.00    +0.032 A 
ATOM      7  C   UNL     1       3.111  -6.836  10.816  0.00  0.00    +0.085 A 
ATOM      8  N   UNL     1       2.796  -6.448   9.538  0.00  0.00    -0.346 N 
ATOM      9  H   UNL     1       1.960  -6.034   9.272  0.00  0.00    +0.167 HD
ATOM     10  C   UNL     1       6.042  -7.710   8.836  0.00  0.00    +0.137 A 
ATOM     11  N   UNL     1       6.159  -7.509   7.528  0.00  0.00    -0.198 NA
ATOM     12  H   UNL     1       6.142  -7.104   5.029  0.00  0.00    +0.155 HD
ENDROOT
BRANCH   1  16
ATOM     13  C   UNL     1       2.495  -4.644   3.280  0.00  0.00    -0.020 A 
ATOM     14  C   UNL     1       2.634  -4.420   4.651  0.00  0.00    +0.010 A 
ATOM     15  C   UNL     1       3.580  -5.118   5.372  0.00  0.00    +0.027 A 
ATOM     16  C   UNL     1       4.396  -6.045   4.737  0.00  0.00    +0.076 A 
ATOM     17  C   UNL     1       4.262  -6.272   3.368  0.00  0.00    +0.142 A 
ATOM     18  C   UNL     1       3.311  -5.580   2.642  0.00  0.00    +0.055 A 
BRANCH  13  23
ATOM     19  N   UNL     1       0.827  -1.912   1.252  0.00  0.00    +0.383 N 
ATOM     20  C   UNL     1      -0.557  -2.382   1.418  0.00  0.00    -0.074 C 
ATOM     21  C   UNL     1      -0.594  -3.892   1.164  0.00  0.00    +0.009 C 
ATOM     22  C   UNL     1       0.482  -4.564   1.971  0.00  0.00    -0.026 C 
ATOM     23  C   UNL     1       1.482  -3.897   2.507  0.00  0.00    -0.061 C 
ATOM     24  C   UNL     1       1.638  -2.410   2.369  0.00  0.00    -0.043 C 
ATOM     25  H   UNL     1       1.201  -2.260   0.382  0.00  0.00    -0.081 HD
BRANCH  19  26
ATOM     26  C   UNL     1       0.850  -0.443   1.245  0.00  0.00    -0.079 C 
BRANCH  26  28
ATOM     27  C   UNL     1       0.131   1.602   0.002  0.00  0.00    +0.002 C 
ATOM     28  C   UNL     1       0.108   0.072   0.010  0.00  0.00    -0.022 C 
ENDBRANCH  26  28
ENDBRANCH  19  26
ENDBRANCH  13  23
BRANCH  17  29
ATOM     29  O   UNL     1       5.063  -7.180   2.748  0.00  0.00    -0.493 OA
ATOM     30  C   UNL     1       4.871  -7.362   1.343  0.00  0.00    +0.277 C 
ENDBRANCH  17  29
ENDBRANCH   1  16
BRANCH  10  31
ATOM     31  N   UNL     1       7.068  -8.295   9.559  0.00  0.00    -0.298 N 
ATOM     32  H   UNL     1       6.937  -8.518  10.494  0.00  0.00    +0.154 HD
BRANCH  31  33
ATOM     33  C   UNL     1       8.285  -8.565   8.944  0.00  0.00    +0.045 A 
ATOM     34  C   UNL     1       8.686  -7.827   7.837  0.00  0.00    +0.024 A 
ATOM     35  C   UNL     1       9.895  -8.097   7.228  0.00  0.00    +0.002 A 
ATOM     36  C   UNL     1      10.716  -9.102   7.713  0.00  0.00    +0.001 A 
ATOM     37  C   UNL     1      10.336  -9.843   8.810  0.00  0.00    +0.015 A 
ATOM     38  C   UNL     1       9.118  -9.579   9.441  0.00  0.00    +0.058 A 
BRANCH  38  39
ATOM     39  C   UNL     1       8.707 -10.365  10.619  0.00  0.00    +0.243 C 
ATOM     40  O   UNL     1       7.603 -10.203  11.104  0.00  0.00    -0.270 OA
ATOM     41  N   UNL     1       9.554 -11.263  11.159  0.00  0.00    -0.325 N 
ATOM     42  H   UNL     1      10.435 -11.392  10.773  0.00  0.00    +0.145 HD
ATOM     43  H   UNL     1       9.284 -11.780  11.934  0.00  0.00    +0.145 HD
ENDBRANCH  38  39
ENDBRANCH  31  33
ENDBRANCH  10  31
TORSDOF 8
