REMARK  Name = CHEMBL480544
REMARK  5 active torsions:
REMARK  status: ('A' for Active; 'I' for Inactive)
REMARK    1  A    between atoms: C_8  and  C_24
REMARK    2  A    between atoms: C_9  and  C_10
REMARK    3  A    between atoms: N_16  and  C_17
REMARK    4  A    between atoms: C_28  and  C_30
REMARK    5  A    between atoms: N_32  and  C_33
REMARK                            x       y       z     vdW  Elec       q    Type
REMARK                         _______ _______ _______ _____ _____    ______ ____
ROOT
ATOM      1  C   UNL     1      -1.364   0.124   2.655  0.00  0.00    +0.005 A 
ATOM      2  C   UNL     1      -0.436   1.067   2.186  0.00  0.00    +0.018 A 
ATOM      3  C   UNL     1       0.785   0.669   1.768  0.00  0.00    +0.093 A 
ATOM      4  N   UNL     1       1.134  -0.648   1.796  0.00  0.00    -0.299 N 
ATOM      5  C   UNL     1       0.252  -1.593   2.248  0.00  0.00    +0.116 A 
ATOM      6  C   UNL     1      -1.027  -1.195   2.687  0.00  0.00    +0.045 A 
ATOM      7  N   UNL     1       0.828  -2.787   2.173  0.00  0.00    -0.339 N 
ATOM      8  C   UNL     1       2.065  -2.658   1.685  0.00  0.00    +0.074 A 
ATOM      9  C   UNL     1       2.288  -1.309   1.435  0.00  0.00    +0.097 A 
ATOM     10  H   UNL     1       0.414  -3.624   2.434  0.00  0.00    +0.167 HD
ENDROOT
BRANCH   9  11
ATOM     11  C   UNL     1       3.515  -0.705   0.893  0.00  0.00    +0.095 A 
ATOM     12  C   UNL     1       3.467   0.524   0.217  0.00  0.00    +0.050 A 
ATOM     13  C   UNL     1       4.644   1.050  -0.274  0.00  0.00    +0.116 A 
ATOM     14  N   UNL     1       5.777   0.386  -0.094  0.00  0.00    -0.223 NA
ATOM     15  C   UNL     1       5.796  -0.774   0.548  0.00  0.00    +0.220 A 
ATOM     16  N   UNL     1       4.694  -1.315   1.040  0.00  0.00    -0.213 NA
ATOM     17  N   UNL     1       7.003  -1.434   0.712  0.00  0.00    -0.284 N 
ATOM     18  H   UNL     1       7.022  -2.320   1.106  0.00  0.00    +0.155 HD
BRANCH  17  19
ATOM     19  C   UNL     1       8.195  -0.823   0.310  0.00  0.00    +0.036 A 
ATOM     20  C   UNL     1       8.377   0.541   0.502  0.00  0.00    +0.023 A 
ATOM     21  C   UNL     1       9.554   1.143   0.104  0.00  0.00    +0.005 A 
ATOM     22  C   UNL     1      10.553   0.391  -0.485  0.00  0.00    +0.038 A 
ATOM     23  C   UNL     1      10.376  -0.969  -0.678  0.00  0.00    +0.125 A 
ATOM     24  C   UNL     1       9.201  -1.579  -0.276  0.00  0.00    +0.061 A 
ATOM     25  F   UNL     1      11.354  -1.702  -1.255  0.00  0.00    -0.205 F 
ENDBRANCH  17  19
ENDBRANCH   9  11
BRANCH   8  26
ATOM     26  C   UNL     1       3.029  -3.759   1.452  0.00  0.00    +0.001 A 
ATOM     27  C   UNL     1       4.359  -3.620   1.852  0.00  0.00    +0.010 A 
ATOM     28  C   UNL     1       5.259  -4.645   1.636  0.00  0.00    +0.001 A 
ATOM     29  C   UNL     1       4.851  -5.813   1.023  0.00  0.00    +0.013 A 
ATOM     30  C   UNL     1       3.523  -5.965   0.618  0.00  0.00    +0.038 A 
ATOM     31  C   UNL     1       2.609  -4.935   0.838  0.00  0.00    +0.023 A 
BRANCH  30  32
ATOM     32  C   UNL     1       3.087  -7.215  -0.039  0.00  0.00    +0.248 C 
ATOM     33  O   UNL     1       1.930  -7.345  -0.391  0.00  0.00    -0.270 OA
ATOM     34  N   UNL     1       3.971  -8.211  -0.247  0.00  0.00    -0.277 N 
ATOM     35  H   UNL     1       4.881  -8.127   0.077  0.00  0.00    +0.155 HD
BRANCH  34  36
ATOM     36  C   UNL     1       3.575  -9.367  -0.932  0.00  0.00    +0.105 A 
ATOM     37  C   UNL     1       2.640  -9.284  -1.957  0.00  0.00    +0.147 A 
ATOM     38  C   UNL     1       2.252 -10.428  -2.631  0.00  0.00    +0.040 A 
ATOM     39  C   UNL     1       2.792 -11.653  -2.286  0.00  0.00    +0.006 A 
ATOM     40  C   UNL     1       3.722 -11.740  -1.266  0.00  0.00    +0.040 A 
ATOM     41  C   UNL     1       4.120 -10.600  -0.592  0.00  0.00    +0.147 A 
ATOM     42  F   UNL     1       5.034 -10.684   0.400  0.00  0.00    -0.203 F 
ATOM     43  F   UNL     1       2.111  -8.088  -2.295  0.00  0.00    -0.203 F 
ENDBRANCH  34  36
ENDBRANCH  30  32
ENDBRANCH   8  26
TORSDOF 5
