REMARK  Name = CHEMBL1083074
REMARK  6 active torsions:
REMARK  status: ('A' for Active; 'I' for Inactive)
REMARK    1  A    between atoms: C_1  and  C_2
REMARK    2  A    between atoms: C_5  and  C_18
REMARK    3  A    between atoms: C_10  and  C_11
REMARK    4  A    between atoms: C_18  and  C_19
REMARK    5  A    between atoms: C_18  and  N_26
REMARK    6  A    between atoms: C_23  and  O_25
REMARK                            x       y       z     vdW  Elec       q    Type
REMARK                         _______ _______ _______ _____ _____    ______ ____
ROOT
ATOM      1  C   UNL     1      -0.018   1.503   0.010  0.00  0.00    +0.045 C 
ATOM      2  C   UNL     1       0.002  -0.004   0.002  0.00  0.00    -0.026 A 
ATOM      3  C   UNL     1       0.006  -0.733  -1.253  0.00  0.00    -0.007 A 
ATOM      4  C   UNL     1      -0.009  -0.221  -2.574  0.00  0.00    +0.011 A 
ATOM      5  C   UNL     1      -0.003  -1.059  -3.644  0.00  0.00    -0.057 A 
ATOM      6  C   UNL     1       0.016  -2.439  -3.486  0.00  0.00    +0.003 A 
ATOM      7  C   UNL     1       0.031  -2.978  -2.216  0.00  0.00    +0.016 A 
ATOM      8  C   UNL     1       0.025  -2.140  -1.121  0.00  0.00    +0.020 A 
ATOM      9  S   UNL     1       0.038  -2.399   0.634  0.00  0.00    -0.086 S 
ATOM     10  C   UNL     1       0.023  -0.698   1.166  0.00  0.00    +0.042 A 
ENDROOT
BRANCH  10  11
ATOM     11  C   UNL     1       0.030  -0.170   2.546  0.00  0.00    +0.083 A 
ATOM     12  C   UNL     1       0.059  -1.042   3.641  0.00  0.00    +0.049 A 
ATOM     13  C   UNL     1       0.064  -0.501   4.913  0.00  0.00    +0.116 A 
ATOM     14  N   UNL     1       0.042   0.815   5.058  0.00  0.00    -0.223 NA
ATOM     15  C   UNL     1       0.016   1.618   4.004  0.00  0.00    +0.213 A 
ATOM     16  N   UNL     1       0.015   1.144   2.768  0.00  0.00    -0.214 NA
ATOM     17  N   UNL     1      -0.007   2.988   4.201  0.00  0.00    -0.327 N 
ATOM     18  H   UNL     1      -0.003   3.349   5.101  0.00  0.00    +0.145 HD
ATOM     19  H   UNL     1      -0.026   3.587   3.438  0.00  0.00    +0.145 HD
ENDBRANCH  10  11
BRANCH   5  20
ATOM     20  C   UNL     1      -0.020  -0.477  -5.034  0.00  0.00    -0.013 C 
BRANCH  20  21
ATOM     21  C   UNL     1      -1.422  -0.530  -5.584  0.00  0.00    -0.054 A 
ATOM     22  C   UNL     1      -1.916  -1.713  -6.104  0.00  0.00    +0.002 A 
ATOM     23  C   UNL     1      -3.201  -1.765  -6.610  0.00  0.00    +0.004 A 
ATOM     24  C   UNL     1      -3.996  -0.634  -6.597  0.00  0.00    +0.045 A 
ATOM     25  C   UNL     1      -3.503   0.553  -6.076  0.00  0.00    +0.117 A 
ATOM     26  C   UNL     1      -2.214   0.601  -5.564  0.00  0.00    +0.047 A 
BRANCH  25  27
ATOM     27  O   UNL     1      -4.283   1.666  -6.062  0.00  0.00    -0.507 OA
ATOM     28  H   UNL     1      -4.814   1.764  -5.260  0.00  0.00    +0.292 HD
ENDBRANCH  25  27
ENDBRANCH  20  21
BRANCH  20  29
ATOM     29  N   UNL     1       0.876  -1.255  -5.901  0.00  0.00    +0.385 N 
ATOM     30  H   UNL     1       0.865  -0.866  -6.832  0.00  0.00    -0.089 HD
ATOM     31  H   UNL     1       1.815  -1.220  -5.532  0.00  0.00    -0.089 HD
ATOM     32  H   UNL     1       0.564  -2.214  -5.934  0.00  0.00    -0.089 HD
ENDBRANCH  20  29
ENDBRANCH   5  20
TORSDOF 5
