REMARK  Name = CHEMBL483402
REMARK  7 active torsions:
REMARK  status: ('A' for Active; 'I' for Inactive)
REMARK    1  A    between atoms: C_1  and  C_2
REMARK    2  A    between atoms: C_3  and  C_24
REMARK    3  A    between atoms: C_4  and  C_16
REMARK    4  A    between atoms: C_6  and  C_8
REMARK    5  A    between atoms: C_12  and  O_14
REMARK    6  A    between atoms: O_14  and  C_15
REMARK    7  A    between atoms: N_26  and  C_27
REMARK                            x       y       z     vdW  Elec       q    Type
REMARK                         _______ _______ _______ _____ _____    ______ ____
ROOT
ATOM      1  C   UNL     1       0.593   1.023  -1.162  0.00  0.00    +0.061 C 
ATOM      2  C   UNL     1       0.340  -0.413  -0.783  0.00  0.00    +0.017 C 
ATOM      3  C   UNL     1      -0.903  -0.820  -0.465  0.00  0.00    +0.058 C 
ATOM      4  C   UNL     1      -1.178  -2.250  -0.096  0.00  0.00    +0.150 C 
ATOM      5  N   UNL     1       0.054  -2.957   0.233  0.00  0.00    -0.361 N 
ATOM      6  C   UNL     1       1.224  -2.508  -0.087  0.00  0.00    +0.104 C 
ATOM      7  N   UNL     1       1.374  -1.314  -0.765  0.00  0.00    -0.304 N 
ATOM      8  H   UNL     1       2.205  -1.112  -1.223  0.00  0.00    +0.153 HD
ATOM      9  H   UNL     1      -0.006  -3.799   0.711  0.00  0.00    +0.162 HD
ENDROOT
BRANCH   4  10
ATOM     10  C   UNL     1      -1.849  -2.939  -1.256  0.00  0.00    +0.015 A 
ATOM     11  C   UNL     1      -1.924  -2.310  -2.484  0.00  0.00    +0.010 A 
ATOM     12  C   UNL     1      -2.539  -2.941  -3.549  0.00  0.00    +0.020 A 
ATOM     13  C   UNL     1      -3.079  -4.205  -3.386  0.00  0.00    +0.044 A 
ATOM     14  C   UNL     1      -3.004  -4.836  -2.158  0.00  0.00    +0.058 A 
ATOM     15  C   UNL     1      -2.384  -4.206  -1.093  0.00  0.00    +0.130 A 
ATOM     16  F   UNL     1      -2.306  -4.823   0.106  0.00  0.00    -0.205 F 
ATOM     17 CL   UNL     1      -3.852  -4.997  -4.724  0.00  0.00    -0.083 Cl
ENDBRANCH   4  10
BRANCH   6  18
ATOM     18  C   UNL     1       2.427  -3.292   0.278  0.00  0.00    +0.019 A 
ATOM     19  C   UNL     1       2.376  -4.688   0.364  0.00  0.00    +0.031 A 
ATOM     20  C   UNL     1       3.517  -5.383   0.706  0.00  0.00    +0.115 A 
ATOM     21  N   UNL     1       4.649  -4.750   0.953  0.00  0.00    -0.221 NA
ATOM     22  C   UNL     1       4.743  -3.433   0.884  0.00  0.00    +0.215 A 
ATOM     23  C   UNL     1       3.643  -2.659   0.540  0.00  0.00    +0.078 A 
BRANCH  22  24
ATOM     24  O   UNL     1       5.931  -2.831   1.147  0.00  0.00    -0.480 OA
ATOM     25  C   UNL     1       7.027  -3.681   1.489  0.00  0.00    +0.279 C 
ENDBRANCH  22  24
ENDBRANCH   6  18
BRANCH   3  26
ATOM     26  C   UNL     1      -1.968   0.114  -0.479  0.00  0.00    +0.248 C 
ATOM     27  O   UNL     1      -1.739   1.295  -0.668  0.00  0.00    -0.270 OA
ATOM     28  N   UNL     1      -3.233  -0.304  -0.282  0.00  0.00    -0.282 N 
ATOM     29  H   UNL     1      -3.405  -1.220  -0.011  0.00  0.00    +0.155 HD
BRANCH  28  30
ATOM     30  C   UNL     1      -4.301   0.582  -0.469  0.00  0.00    +0.034 A 
ATOM     31  C   UNL     1      -4.081   1.959  -0.397  0.00  0.00    +0.025 A 
ATOM     32  C   UNL     1      -5.108   2.840  -0.576  0.00  0.00    +0.029 A 
ATOM     33  C   UNL     1      -6.394   2.370  -0.834  0.00  0.00    +0.066 A 
ATOM     34  C   UNL     1      -6.627   0.984  -0.909  0.00  0.00    +0.021 A 
ATOM     35  C   UNL     1      -5.565   0.091  -0.729  0.00  0.00    +0.035 A 
ATOM     36  C   UNL     1      -8.051   0.821  -1.186  0.00  0.00    +0.142 A 
ATOM     37  N   UNL     1      -8.580   2.009  -1.262  0.00  0.00    -0.181 NA
ATOM     38  N   UNL     1      -7.601   2.986  -1.052  0.00  0.00    -0.277 N 
ATOM     39  H   UNL     1      -7.751   3.944  -1.060  0.00  0.00    +0.189 HD
ENDBRANCH  28  30
ENDBRANCH   3  26
TORSDOF 5
