REMARK  Name = CHEMBL575759
REMARK  2 active torsions:
REMARK  status: ('A' for Active; 'I' for Inactive)
REMARK    1  A    between atoms: C_9  and  N_11
REMARK    2  A    between atoms: N_24  and  C_25
REMARK                            x       y       z     vdW  Elec       q    Type
REMARK                         _______ _______ _______ _____ _____    ______ ____
ROOT
ATOM      1  N   UNL     1       5.096  -2.256  -0.029  0.00  0.00    -0.310 N 
ATOM      2  C   UNL     1       6.011  -2.368  -1.056  0.00  0.00    +0.221 A 
ATOM      3  N   UNL     1       5.752  -1.823  -2.240  0.00  0.00    -0.181 NA
ATOM      4  C   UNL     1       6.634  -1.930  -3.229  0.00  0.00    +0.225 A 
ATOM      5  N   UNL     1       7.775  -2.583  -3.034  0.00  0.00    -0.181 NA
ATOM      6  C   UNL     1       8.034  -3.129  -1.850  0.00  0.00    +0.224 A 
ATOM      7  N   UNL     1       7.155  -3.017  -0.859  0.00  0.00    -0.181 NA
ATOM      8  N   UNL     1       9.219  -3.807  -1.647  0.00  0.00    -0.303 N 
ATOM      9  C   UNL     1       9.525  -4.424  -0.347  0.00  0.00    +0.089 C 
ATOM     10  C   UNL     1       9.950  -5.876  -0.587  0.00  0.00    -0.063 C 
ATOM     11  N   UNL     1      11.059  -5.908  -1.549  0.00  0.00    +0.381 N 
ATOM     12  C   UNL     1      10.605  -5.409  -2.853  0.00  0.00    -0.063 C 
ATOM     13  C   UNL     1      10.210  -3.939  -2.727  0.00  0.00    +0.089 C 
ATOM     14  N   UNL     1       6.364  -1.363  -4.460  0.00  0.00    -0.283 N 
ATOM     15  H   UNL     1       5.287  -2.651   0.836  0.00  0.00    +0.149 HD
ATOM     16  H   UNL     1      11.812  -5.327  -1.211  0.00  0.00    -0.086 HD
ATOM     17  H   UNL     1       7.039  -1.372  -5.157  0.00  0.00    +0.155 HD
ATOM     18  H   UNL     1      11.389  -6.856  -1.649  0.00  0.00    -0.086 HD
ENDROOT
BRANCH   1  27
ATOM     19  C   UNL     1       0.356   2.121   0.006  0.00  0.00    +0.000 A 
ATOM     20  C   UNL     1       1.562   2.775  -0.159  0.00  0.00    +0.000 A 
ATOM     21  C   UNL     1       2.738   2.054  -0.157  0.00  0.00    +0.004 A 
ATOM     22  C   UNL     1       2.720   0.675   0.006  0.00  0.00    -0.042 A 
ATOM     23  C   UNL     1       1.518   0.023   0.165  0.00  0.00    -0.044 A 
ATOM     24  C   UNL     1       0.336   0.751   0.168  0.00  0.00    +0.004 A 
ATOM     25  C   UNL     1       1.423  -1.471   0.331  0.00  0.00    +0.037 C 
ATOM     26  C   UNL     1       2.775  -2.055   0.734  0.00  0.00    +0.027 C 
ATOM     27  C   UNL     1       3.836  -1.541  -0.246  0.00  0.00    +0.078 C 
ATOM     28  C   UNL     1       4.041  -0.049   0.005  0.00  0.00    +0.057 C 
ENDBRANCH   1  27
BRANCH  14  29
ATOM     29  C   UNL     1       5.121  -0.779  -4.702  0.00  0.00    +0.036 A 
ATOM     30  C   UNL     1       5.000   0.319  -5.552  0.00  0.00    +0.043 A 
ATOM     31  C   UNL     1       3.752   0.868  -5.764  0.00  0.00    +0.112 A 
ATOM     32  N   UNL     1       2.683   0.366  -5.174  0.00  0.00    -0.263 NA
ATOM     33  C   UNL     1       2.757  -0.672  -4.363  0.00  0.00    +0.112 A 
ATOM     34  C   UNL     1       3.966  -1.282  -4.103  0.00  0.00    +0.043 A 
ENDBRANCH  14  29
TORSDOF 2
