REMARK  Name = CHEMBL225492
REMARK  4 active torsions:
REMARK  status: ('A' for Active; 'I' for Inactive)
REMARK    1  A    between atoms: C_9  and  N_11
REMARK    2  A    between atoms: N_11  and  C_12
REMARK    3  A    between atoms: N_16  and  C_18
REMARK    4  A    between atoms: C_18  and  C_19
REMARK                            x       y       z     vdW  Elec       q    Type
REMARK                         _______ _______ _______ _____ _____    ______ ____
ROOT
ATOM      1  C   UNL     1      -0.057  -2.828  -0.013  0.00  0.00    +0.054 C 
ATOM      2  C   UNL     1      -0.545  -2.992   1.429  0.00  0.00    +0.018 C 
ATOM      3  C   UNL     1       0.473  -3.826   2.211  0.00  0.00    -0.017 C 
ATOM      4  C   UNL     1       0.668  -5.172   1.509  0.00  0.00    -0.078 C 
ATOM      5  N   UNL     1       1.160  -4.949   0.144  0.00  0.00    +0.384 N 
ATOM      6  C   UNL     1       0.157  -4.211  -0.633  0.00  0.00    -0.056 C 
ATOM      7  H   UNL     1       2.016  -4.416   0.179  0.00  0.00    -0.081 HD
ENDROOT
BRANCH   1   8
ATOM      8  N   UNL     1       1.206  -2.087  -0.021  0.00  0.00    -0.342 N 
ATOM      9  H   UNL     1       2.050  -2.567  -0.032  0.00  0.00    +0.146 HD
BRANCH   8  18
ATOM     10  C   UNL     1      -0.017   1.387   0.010  0.00  0.00    +0.002 A 
ATOM     11  C   UNL     1       1.139   2.109   0.003  0.00  0.00    +0.010 A 
ATOM     12  C   UNL     1       2.376   1.445  -0.013  0.00  0.00    -0.000 A 
ATOM     13  C   UNL     1       3.595   2.143  -0.020  0.00  0.00    +0.091 A 
ATOM     14  N   UNL     1       4.728   1.481  -0.034  0.00  0.00    -0.366 N 
ATOM     15  C   UNL     1       4.784   0.157  -0.043  0.00  0.00    +0.083 A 
ATOM     16  C   UNL     1       3.659  -0.611  -0.036  0.00  0.00    +0.028 A 
ATOM     17  C   UNL     1       2.407   0.027  -0.021  0.00  0.00    +0.006 A 
ATOM     18  C   UNL     1       1.197  -0.694  -0.013  0.00  0.00    +0.035 A 
ATOM     19  C   UNL     1       0.002  -0.004   0.002  0.00  0.00    +0.023 A 
ATOM     20  H   UNL     1       5.558   1.982  -0.039  0.00  0.00    +0.165 HD
ENDBRANCH   8  18
ENDBRANCH   1   8
BRANCH   5  21
ATOM     21  C   UNL     1       1.420  -6.244  -0.499  0.00  0.00    -0.043 C 
BRANCH  21  22
ATOM     22  C   UNL     1       2.542  -6.946   0.221  0.00  0.00    -0.064 A 
ATOM     23  C   UNL     1       3.851  -6.743  -0.175  0.00  0.00    +0.003 A 
ATOM     24  C   UNL     1       4.881  -7.386   0.485  0.00  0.00    +0.020 A 
ATOM     25  C   UNL     1       4.602  -8.235   1.541  0.00  0.00    +0.041 A 
ATOM     26  C   UNL     1       3.292  -8.438   1.937  0.00  0.00    +0.020 A 
ATOM     27  C   UNL     1       2.263  -7.789   1.280  0.00  0.00    +0.003 A 
ATOM     28 CL   UNL     1       5.895  -9.044   2.370  0.00  0.00    -0.084 Cl
ENDBRANCH  21  22
ENDBRANCH   5  21
TORSDOF 4
