REMARK  Name = CHEMBL1084947
REMARK  5 active torsions:
REMARK  status: ('A' for Active; 'I' for Inactive)
REMARK    1  A    between atoms: C_1  and  C_2
REMARK    2  A    between atoms: C_5  and  O_18
REMARK    3  A    between atoms: C_10  and  C_11
REMARK    4  A    between atoms: O_18  and  C_19
REMARK    5  A    between atoms: C_23  and  O_25
REMARK                            x       y       z     vdW  Elec       q    Type
REMARK                         _______ _______ _______ _____ _____    ______ ____
ROOT
ATOM      1  C   UNL     1      -0.184   1.418   0.042  0.00  0.00    +0.045 C 
ATOM      2  C   UNL     1      -0.087  -0.086   0.010  0.00  0.00    -0.026 A 
ATOM      3  C   UNL     1      -0.031  -0.793  -1.257  0.00  0.00    -0.004 A 
ATOM      4  C   UNL     1      -0.055  -0.258  -2.569  0.00  0.00    +0.055 A 
ATOM      5  C   UNL     1       0.006  -1.086  -3.662  0.00  0.00    +0.129 A 
ATOM      6  C   UNL     1       0.092  -2.470  -3.517  0.00  0.00    +0.047 A 
ATOM      7  C   UNL     1       0.118  -3.020  -2.253  0.00  0.00    +0.019 A 
ATOM      8  C   UNL     1       0.058  -2.199  -1.147  0.00  0.00    +0.020 A 
ATOM      9  S   UNL     1       0.061  -2.486   0.604  0.00  0.00    -0.086 S 
ATOM     10  C   UNL     1      -0.046  -0.797   1.163  0.00  0.00    +0.042 A 
ENDROOT
BRANCH  10  11
ATOM     11  C   UNL     1      -0.083  -0.292   2.551  0.00  0.00    +0.083 A 
ATOM     12  C   UNL     1      -0.025  -1.180   3.632  0.00  0.00    +0.049 A 
ATOM     13  C   UNL     1      -0.062  -0.661   4.913  0.00  0.00    +0.116 A 
ATOM     14  N   UNL     1      -0.151   0.650   5.079  0.00  0.00    -0.223 NA
ATOM     15  C   UNL     1      -0.205   1.468   4.037  0.00  0.00    +0.213 A 
ATOM     16  N   UNL     1      -0.167   1.015   2.794  0.00  0.00    -0.214 NA
ATOM     17  N   UNL     1      -0.299   2.832   4.256  0.00  0.00    -0.327 N 
ATOM     18  H   UNL     1      -0.324   3.177   5.162  0.00  0.00    +0.145 HD
ATOM     19  H   UNL     1      -0.339   3.442   3.503  0.00  0.00    +0.145 HD
ENDBRANCH  10  11
BRANCH   5  20
ATOM     20  O   UNL     1      -0.019  -0.547  -4.910  0.00  0.00    -0.456 OA
BRANCH  20  21
ATOM     21  C   UNL     1      -1.108  -0.785  -5.687  0.00  0.00    +0.132 A 
ATOM     22  C   UNL     1      -1.122  -0.369  -7.011  0.00  0.00    +0.046 A 
ATOM     23  C   UNL     1      -2.229  -0.611  -7.801  0.00  0.00    +0.007 A 
ATOM     24  C   UNL     1      -3.325  -1.269  -7.275  0.00  0.00    +0.045 A 
ATOM     25  C   UNL     1      -3.317  -1.687  -5.952  0.00  0.00    +0.120 A 
ATOM     26  C   UNL     1      -2.204  -1.450  -5.159  0.00  0.00    +0.091 A 
BRANCH  25  27
ATOM     27  O   UNL     1      -4.395  -2.333  -5.436  0.00  0.00    -0.507 OA
ATOM     28  H   UNL     1      -4.361  -3.295  -5.534  0.00  0.00    +0.292 HD
ENDBRANCH  25  27
ENDBRANCH  20  21
ENDBRANCH   5  20
TORSDOF 4
