REMARK  Name = CHEMBL375882
REMARK  6 active torsions:
REMARK  status: ('A' for Active; 'I' for Inactive)
REMARK    1  A    between atoms: C_1  and  C_2
REMARK    2  A    between atoms: C_2  and  C_3
REMARK    3  A    between atoms: C_2  and  C_4
REMARK    4  A    between atoms: C_4  and  N_5
REMARK    5  A    between atoms: C_8  and  N_11
REMARK    6  A    between atoms: N_11  and  C_12
REMARK                            x       y       z     vdW  Elec       q    Type
REMARK                         _______ _______ _______ _____ _____    ______ ____
ROOT
ATOM      1  N   UNL     1      -4.649   0.972  -4.344  0.00  0.00    -0.341 N 
ATOM      2  H   UNL     1      -4.045   1.119  -5.088  0.00  0.00    +0.146 HD
ENDROOT
BRANCH   1   3
ATOM      3  C   UNL     1      -6.026   0.969  -4.554  0.00  0.00    +0.035 A 
ATOM      4  C   UNL     1      -6.893   0.766  -3.499  0.00  0.00    +0.023 A 
ATOM      5  C   UNL     1      -8.270   0.761  -3.700  0.00  0.00    +0.002 A 
ATOM      6  C   UNL     1      -8.803   0.957  -4.938  0.00  0.00    +0.010 A 
ATOM      7  C   UNL     1      -7.956   1.167  -6.038  0.00  0.00    +0.002 A 
ATOM      8  C   UNL     1      -6.551   1.179  -5.844  0.00  0.00    +0.006 A 
ATOM      9  C   UNL     1      -5.726   1.397  -6.961  0.00  0.00    +0.030 A 
ATOM     10  C   UNL     1      -6.310   1.592  -8.176  0.00  0.00    +0.111 A 
ATOM     11  N   UNL     1      -7.627   1.582  -8.329  0.00  0.00    -0.263 NA
ATOM     12  C   UNL     1      -8.456   1.372  -7.334  0.00  0.00    +0.119 A 
ENDBRANCH   1   3
BRANCH   1  16
ATOM     13  N   UNL     1      -2.024  -0.360  -1.327  0.00  0.00    +0.380 N 
ATOM     14  C   UNL     1      -2.138   1.092  -1.508  0.00  0.00    -0.077 C 
ATOM     15  C   UNL     1      -2.726   1.393  -2.889  0.00  0.00    +0.003 C 
ATOM     16  C   UNL     1      -4.112   0.753  -2.998  0.00  0.00    +0.067 C 
ATOM     17  C   UNL     1      -3.992  -0.751  -2.734  0.00  0.00    +0.003 C 
ATOM     18  C   UNL     1      -3.357  -0.972  -1.359  0.00  0.00    -0.077 C 
ATOM     19  H   UNL     1      -1.460  -0.746  -2.069  0.00  0.00    -0.082 HD
BRANCH  13  20
ATOM     20  C   UNL     1      -1.388  -0.642  -0.033  0.00  0.00    -0.076 C 
BRANCH  20  22
ATOM     21  C   UNL     1       0.674  -0.304   1.336  0.00  0.00    +0.005 C 
ATOM     22  C   UNL     1       0.056  -0.136  -0.053  0.00  0.00    -0.034 C 
ATOM     23  C   UNL     1       0.864  -0.942  -1.072  0.00  0.00    +0.005 C 
ENDBRANCH  20  22
ENDBRANCH  13  20
ENDBRANCH   1  16
TORSDOF 4
