REMARK  Name = CHEMBL220465
REMARK  10 active torsions:
REMARK  status: ('A' for Active; 'I' for Inactive)
REMARK    1  A    between atoms: C_1  and  C_2
REMARK    2  A    between atoms: C_2  and  N_3
REMARK    3  A    between atoms: C_6  and  O_18
REMARK    4  A    between atoms: C_11  and  C_12
REMARK    5  A    between atoms: O_18  and  C_19
REMARK    6  A    between atoms: C_23  and  N_25
REMARK    7  A    between atoms: C_26  and  C_28
REMARK    8  A    between atoms: C_31  and  N_34
REMARK    9  A    between atoms: N_34  and  C_35
REMARK   10  A    between atoms: N_34  and  C_36
REMARK                            x       y       z     vdW  Elec       q    Type
REMARK                         _______ _______ _______ _____ _____    ______ ____
ROOT
ATOM      1  O   UNL     1      -2.676  -1.012  -4.738  0.00  0.00    -0.438 OA
ENDROOT
BRANCH   1   5
ATOM      2  N   UNL     1      -0.782   2.400  -1.764  0.00  0.00    -0.322 N 
ATOM      3  C   UNL     1      -1.150   1.716  -2.899  0.00  0.00    +0.076 A 
ATOM      4  C   UNL     1      -1.825   0.530  -3.156  0.00  0.00    +0.095 A 
ATOM      5  C   UNL     1      -2.018   0.144  -4.472  0.00  0.00    +0.223 A 
ATOM      6  N   UNL     1      -1.569   0.885  -5.477  0.00  0.00    -0.219 NA
ATOM      7  C   UNL     1      -0.924   2.017  -5.285  0.00  0.00    +0.144 A 
ATOM      8  C   UNL     1      -0.686   2.481  -3.990  0.00  0.00    +0.108 A 
ATOM      9  N   UNL     1      -0.070   3.572  -3.477  0.00  0.00    -0.224 NA
ATOM     10  C   UNL     1      -0.128   3.535  -2.169  0.00  0.00    +0.167 A 
BRANCH  10  11
ATOM     11  C   UNL     1       0.433   4.562  -1.263  0.00  0.00    +0.190 A 
ATOM     12  C   UNL     1       1.131   5.786  -1.677  0.00  0.00    +0.191 A 
ATOM     13  N   UNL     1       1.479   6.442  -0.604  0.00  0.00    -0.033 NA
ATOM     14  O   UNL     1       1.039   5.703   0.521  0.00  0.00    -0.240 OA
ATOM     15  N   UNL     1       0.388   4.539   0.044  0.00  0.00    -0.044 NA
ATOM     16  N   UNL     1       1.379   6.177  -2.986  0.00  0.00    -0.339 N 
ATOM     17  H   UNL     1       1.081   5.622  -3.723  0.00  0.00    +0.144 HD
ATOM     18  H   UNL     1       1.850   7.007  -3.163  0.00  0.00    +0.144 HD
ENDBRANCH  10  11
BRANCH   2  20
ATOM     19  C   UNL     1      -2.391   2.566   0.070  0.00  0.00    +0.027 C 
ATOM     20  C   UNL     1      -1.046   1.994  -0.381  0.00  0.00    +0.120 C 
ENDBRANCH   2  20
ENDBRANCH   1   5
BRANCH   1  21
ATOM     21  C   UNL     1      -2.939  -1.312  -6.037  0.00  0.00    +0.132 A 
ATOM     22  C   UNL     1      -1.923  -1.769  -6.865  0.00  0.00    +0.046 A 
ATOM     23  C   UNL     1      -2.189  -2.074  -8.186  0.00  0.00    +0.005 A 
ATOM     24  C   UNL     1      -3.468  -1.925  -8.687  0.00  0.00    +0.023 A 
ATOM     25  C   UNL     1      -4.489  -1.469  -7.864  0.00  0.00    +0.037 A 
ATOM     26  C   UNL     1      -4.225  -1.168  -6.535  0.00  0.00    +0.069 A 
BRANCH  25  27
ATOM     27  N   UNL     1      -5.784  -1.318  -8.372  0.00  0.00    -0.281 N 
ATOM     28  C   UNL     1      -6.565  -0.310  -7.936  0.00  0.00    +0.248 C 
ATOM     29  O   UNL     1      -6.178   0.417  -7.041  0.00  0.00    -0.270 OA
ATOM     30  H   UNL     1      -6.119  -1.938  -9.038  0.00  0.00    +0.155 HD
BRANCH  28  31
ATOM     31  C   UNL     1      -7.891  -0.089  -8.544  0.00  0.00    +0.037 A 
ATOM     32  C   UNL     1      -8.340  -0.928  -9.568  0.00  0.00    +0.015 A 
ATOM     33  C   UNL     1      -9.578  -0.719 -10.133  0.00  0.00    +0.024 A 
ATOM     34  C   UNL     1     -10.381   0.326  -9.686  0.00  0.00    +0.029 A 
ATOM     35  C   UNL     1      -9.937   1.163  -8.666  0.00  0.00    +0.024 A 
ATOM     36  C   UNL     1      -8.703   0.955  -8.092  0.00  0.00    +0.015 A 
BRANCH  34  37
ATOM     37  N   UNL     1     -11.631   0.535 -10.260  0.00  0.00    -0.336 N 
ATOM     38  C   UNL     1     -12.100  -0.344 -11.334  0.00  0.00    +0.129 C 
ATOM     39  C   UNL     1     -12.478   1.634  -9.790  0.00  0.00    +0.129 C 
ENDBRANCH  34  37
ENDBRANCH  28  31
ENDBRANCH  25  27
ENDBRANCH   1  21
TORSDOF 7
