REMARK  Name = CHEMBL1084106
REMARK  5 active torsions:
REMARK  status: ('A' for Active; 'I' for Inactive)
REMARK    1  A    between atoms: C_4  and  C_7
REMARK    2  A    between atoms: C_7  and  C_8
REMARK    3  A    between atoms: C_7  and  N_24
REMARK    4  A    between atoms: N_10  and  C_11
REMARK    5  A    between atoms: N_24  and  C_25
REMARK                            x       y       z     vdW  Elec       q    Type
REMARK                         _______ _______ _______ _____ _____    ______ ____
ROOT
ATOM      1  C   UNL     1       4.011  -1.160  -1.444  0.00  0.00    +0.207 C 
ATOM      2  O   UNL     1       3.799  -2.309  -1.769  0.00  0.00    -0.277 OA
ATOM      3  N   UNL     1       4.527  -0.291  -2.335  0.00  0.00    -0.285 N 
ATOM      4  H   UNL     1       4.636   0.642  -2.096  0.00  0.00    +0.155 HD
ENDROOT
BRANCH   3   5
ATOM      5  C   UNL     1       4.906  -0.735  -3.604  0.00  0.00    +0.052 A 
ATOM      6  C   UNL     1       4.178  -1.736  -4.226  0.00  0.00    +0.033 A 
ATOM      7  C   UNL     1       4.562  -2.172  -5.492  0.00  0.00    -0.010 A 
ATOM      8  C   UNL     1       3.834  -3.226  -6.202  0.00  0.00    +0.026 A 
ATOM      9  C   UNL     1       4.248  -3.608  -7.421  0.00  0.00    +0.086 A 
ATOM     10  N   UNL     1       5.333  -3.048  -8.033  0.00  0.00    -0.329 N 
ATOM     11  H   UNL     1       5.587  -3.363  -8.915  0.00  0.00    +0.168 HD
ATOM     12  C   UNL     1       6.063  -2.073  -7.456  0.00  0.00    +0.257 A 
ATOM     13  O   UNL     1       7.024  -1.599  -8.034  0.00  0.00    -0.267 OA
ATOM     14  C   UNL     1       5.687  -1.590  -6.124  0.00  0.00    +0.048 A 
ATOM     15  C   UNL     1       6.404  -0.583  -5.476  0.00  0.00    +0.035 A 
ATOM     16  C   UNL     1       6.011  -0.162  -4.237  0.00  0.00    +0.063 A 
ATOM     17 CL   UNL     1       6.901   1.096  -3.436  0.00  0.00    -0.082 Cl
ENDBRANCH   3   5
BRANCH   1  18
ATOM     18  C   UNL     1       3.698  -0.704  -0.042  0.00  0.00    +0.047 C 
BRANCH  18  22
ATOM     19  C   UNL     1      -0.035   1.371  -0.022  0.00  0.00    +0.000 A 
ATOM     20  C   UNL     1       1.151   2.082  -0.024  0.00  0.00    +0.000 A 
ATOM     21  C   UNL     1       2.359   1.410  -0.030  0.00  0.00    +0.002 A 
ATOM     22  C   UNL     1       2.381   0.028  -0.034  0.00  0.00    -0.053 A 
ATOM     23  C   UNL     1       1.196  -0.683  -0.031  0.00  0.00    +0.002 A 
ATOM     24  C   UNL     1      -0.013  -0.011  -0.026  0.00  0.00    +0.000 A 
ENDBRANCH  18  22
BRANCH  18  25
ATOM     25  N   UNL     1       3.615  -1.872   0.846  0.00  0.00    +0.391 N 
ATOM     26  H   UNL     1       3.325  -1.575   1.766  0.00  0.00    -0.084 HD
ATOM     27  H   UNL     1       2.943  -2.527   0.477  0.00  0.00    -0.084 HD
BRANCH  25  28
ATOM     28  C   UNL     1       4.932  -2.517   0.932  0.00  0.00    -0.070 C 
ATOM     29  C   UNL     1       5.056  -3.944   0.396  0.00  0.00    -0.017 C 
ATOM     30  C   UNL     1       5.083  -3.688   1.904  0.00  0.00    -0.017 C 
ENDBRANCH  25  28
ENDBRANCH  18  25
ENDBRANCH   1  18
TORSDOF 5
