REMARK  Name = CHEMBL375736
REMARK  7 active torsions:
REMARK  status: ('A' for Active; 'I' for Inactive)
REMARK    1  A    between atoms: C_1  and  C_2
REMARK    2  A    between atoms: C_2  and  C_3
REMARK    3  A    between atoms: C_2  and  C_4
REMARK    4  A    between atoms: C_4  and  C_5
REMARK    5  A    between atoms: C_5  and  N_6
REMARK    6  A    between atoms: C_10  and  N_12
REMARK    7  A    between atoms: N_12  and  C_13
REMARK                            x       y       z     vdW  Elec       q    Type
REMARK                         _______ _______ _______ _____ _____    ______ ____
ROOT
ATOM      1  N   UNL     1       2.111  -0.003   6.090  0.00  0.00    -0.342 N 
ATOM      2  H   UNL     1       2.508   0.235   5.237  0.00  0.00    +0.146 HD
ENDROOT
BRANCH   1   3
ATOM      3  C   UNL     1       2.824   0.195   7.270  0.00  0.00    +0.035 A 
ATOM      4  C   UNL     1       2.270  -0.146   8.486  0.00  0.00    +0.023 A 
ATOM      5  C   UNL     1       2.975   0.048   9.670  0.00  0.00    +0.002 A 
ATOM      6  C   UNL     1       4.229   0.579   9.665  0.00  0.00    +0.010 A 
ATOM      7  C   UNL     1       4.829   0.941   8.449  0.00  0.00    -0.000 A 
ATOM      8  C   UNL     1       4.122   0.742   7.235  0.00  0.00    +0.006 A 
ATOM      9  C   UNL     1       4.749   1.107   6.032  0.00  0.00    +0.028 A 
ATOM     10  C   UNL     1       6.006   1.629   6.082  0.00  0.00    +0.083 A 
ATOM     11  N   UNL     1       6.648   1.800   7.229  0.00  0.00    -0.366 N 
ATOM     12  C   UNL     1       6.120   1.493   8.391  0.00  0.00    +0.091 A 
ATOM     13  H   UNL     1       7.542   2.175   7.210  0.00  0.00    +0.165 HD
ENDBRANCH   1   3
BRANCH   1  18
ATOM     14  N   UNL     1       0.669  -0.610   3.687  0.00  0.00    +0.381 N 
ATOM     15  C   UNL     1       0.696  -2.078   3.673  0.00  0.00    -0.079 C 
ATOM     16  C   UNL     1       1.504  -2.588   4.868  0.00  0.00    -0.017 C 
ATOM     17  C   UNL     1       0.852  -2.100   6.165  0.00  0.00    +0.018 C 
ATOM     18  C   UNL     1       0.762  -0.572   6.136  0.00  0.00    +0.054 C 
ATOM     19  C   UNL     1      -0.019  -0.136   4.894  0.00  0.00    -0.056 C 
ATOM     20  H   UNL     1       1.615  -0.259   3.680  0.00  0.00    -0.082 HD
BRANCH  14  21
ATOM     21  C   UNL     1      -0.042  -0.124   2.497  0.00  0.00    -0.078 C 
BRANCH  21  22
ATOM     22  C   UNL     1       0.742  -0.511   1.242  0.00  0.00    -0.016 C 
BRANCH  22  24
ATOM     23  C   UNL     1      -0.019   1.526   0.010  0.00  0.00    +0.007 C 
ATOM     24  C   UNL     1       0.002  -0.004   0.002  0.00  0.00    -0.019 C 
ATOM     25  C   UNL     1       0.718  -0.497  -1.257  0.00  0.00    +0.007 C 
ENDBRANCH  22  24
ENDBRANCH  21  22
ENDBRANCH  14  21
ENDBRANCH   1  18
TORSDOF 5
