REMARK  Name = CHEMBL485592
REMARK  5 active torsions:
REMARK  status: ('A' for Active; 'I' for Inactive)
REMARK    1  A    between atoms: C_1  and  C_2
REMARK    2  A    between atoms: C_3  and  C_21
REMARK    3  A    between atoms: C_4  and  C_14
REMARK    4  A    between atoms: C_6  and  C_8
REMARK    5  A    between atoms: N_23  and  C_24
REMARK                            x       y       z     vdW  Elec       q    Type
REMARK                         _______ _______ _______ _____ _____    ______ ____
ROOT
ATOM      1  C   UNL     1      -0.018   1.502   0.021  0.00  0.00    +0.061 C 
ATOM      2  C   UNL     1       0.002  -0.005   0.005  0.00  0.00    +0.017 C 
ATOM      3  C   UNL     1      -1.152  -0.697   0.003  0.00  0.00    +0.058 C 
ATOM      4  C   UNL     1      -1.153  -2.199  -0.002  0.00  0.00    +0.148 C 
ATOM      5  N   UNL     1       0.151  -2.727  -0.385  0.00  0.00    -0.360 N 
ATOM      6  C   UNL     1       1.225  -2.008  -0.378  0.00  0.00    +0.123 C 
ATOM      7  N   UNL     1       1.197  -0.678  -0.014  0.00  0.00    -0.303 N 
ATOM      8  H   UNL     1       2.018  -0.223   0.230  0.00  0.00    +0.153 HD
ATOM      9  H   UNL     1       0.215  -3.656  -0.656  0.00  0.00    +0.162 HD
ENDROOT
BRANCH   4  10
ATOM     10  C   UNL     1      -1.502  -2.697   1.377  0.00  0.00    -0.020 A 
ATOM     11  C   UNL     1      -0.536  -2.726   2.366  0.00  0.00    +0.009 A 
ATOM     12  C   UNL     1      -0.855  -3.182   3.631  0.00  0.00    +0.039 A 
ATOM     13  C   UNL     1      -2.143  -3.611   3.907  0.00  0.00    +0.123 A 
ATOM     14  C   UNL     1      -3.109  -3.582   2.916  0.00  0.00    +0.039 A 
ATOM     15  C   UNL     1      -2.789  -3.120   1.653  0.00  0.00    +0.009 A 
ATOM     16  F   UNL     1      -2.455  -4.057   5.143  0.00  0.00    -0.205 F 
ENDBRANCH   4  10
BRANCH   6  17
ATOM     17  C   UNL     1       2.514  -2.624  -0.774  0.00  0.00    +0.102 A 
ATOM     18  C   UNL     1       3.678  -1.858  -0.765  0.00  0.00    +0.031 A 
ATOM     19  C   UNL     1       4.875  -2.448  -1.137  0.00  0.00    +0.004 A 
ATOM     20  C   UNL     1       4.867  -3.784  -1.507  0.00  0.00    +0.020 A 
ATOM     21  C   UNL     1       3.673  -4.485  -1.494  0.00  0.00    +0.111 A 
ATOM     22  N   UNL     1       2.550  -3.901  -1.131  0.00  0.00    -0.252 NA
ENDBRANCH   6  17
BRANCH   3  23
ATOM     23  C   UNL     1      -2.384   0.001   0.006  0.00  0.00    +0.248 C 
ATOM     24  O   UNL     1      -2.393   1.219   0.011  0.00  0.00    -0.270 OA
ATOM     25  N   UNL     1      -3.546  -0.682   0.005  0.00  0.00    -0.282 N 
ATOM     26  H   UNL     1      -3.539  -1.649  -0.069  0.00  0.00    +0.155 HD
BRANCH  25  27
ATOM     27  C   UNL     1      -4.762   0.005   0.110  0.00  0.00    +0.034 A 
ATOM     28  C   UNL     1      -4.908   1.255  -0.493  0.00  0.00    +0.025 A 
ATOM     29  C   UNL     1      -6.085   1.940  -0.403  0.00  0.00    +0.029 A 
ATOM     30  C   UNL     1      -7.159   1.394   0.296  0.00  0.00    +0.066 A 
ATOM     31  C   UNL     1      -7.022   0.134   0.909  0.00  0.00    +0.021 A 
ATOM     32  C   UNL     1      -5.812  -0.561   0.805  0.00  0.00    +0.035 A 
ATOM     33  C   UNL     1      -8.302  -0.152   1.550  0.00  0.00    +0.142 A 
ATOM     34  N   UNL     1      -9.095   0.856   1.323  0.00  0.00    -0.181 NA
ATOM     35  N   UNL     1      -8.435   1.824   0.559  0.00  0.00    -0.277 N 
ATOM     36  H   UNL     1      -8.818   2.665   0.264  0.00  0.00    +0.189 HD
ENDBRANCH  25  27
ENDBRANCH   3  23
TORSDOF 4
