REMARK  Name = CHEMBL224594
REMARK  5 active torsions:
REMARK  status: ('A' for Active; 'I' for Inactive)
REMARK    1  A    between atoms: C_3  and  C_10
REMARK    2  A    between atoms: C_5  and  N_7
REMARK    3  A    between atoms: C_10  and  N_11
REMARK    4  A    between atoms: C_15  and  N_17
REMARK    5  A    between atoms: N_17  and  C_18
REMARK                            x       y       z     vdW  Elec       q    Type
REMARK                         _______ _______ _______ _____ _____    ______ ____
ROOT
ATOM      1  N   UNL     1       4.106   2.426   1.360  0.00  0.00    +0.384 N 
ATOM      2  C   UNL     1       3.132   3.295   2.031  0.00  0.00    -0.078 C 
ATOM      3  C   UNL     1       3.537   3.486   3.494  0.00  0.00    -0.017 C 
ATOM      4  C   UNL     1       4.925   4.131   3.554  0.00  0.00    +0.018 C 
ATOM      5  C   UNL     1       5.918   3.254   2.787  0.00  0.00    +0.054 C 
ATOM      6  C   UNL     1       5.425   3.071   1.350  0.00  0.00    -0.056 C 
ATOM      7  H   UNL     1       4.167   1.548   1.852  0.00  0.00    -0.081 HD
ENDROOT
BRANCH   5   8
ATOM      8  N   UNL     1       7.233   3.900   2.774  0.00  0.00    -0.343 N 
ATOM      9  H   UNL     1       7.495   4.452   2.021  0.00  0.00    +0.146 HD
BRANCH   8  10
ATOM     10  C   UNL     1       8.111   3.721   3.849  0.00  0.00    +0.028 A 
ATOM     11  C   UNL     1       7.718   2.915   4.927  0.00  0.00    +0.025 A 
ATOM     12  C   UNL     1       8.527   2.705   5.994  0.00  0.00    +0.032 A 
ATOM     13  C   UNL     1       9.802   3.309   6.033  0.00  0.00    +0.093 A 
ATOM     14  C   UNL     1      10.218   4.155   4.904  0.00  0.00    +0.021 A 
ATOM     15  C   UNL     1       9.329   4.329   3.820  0.00  0.00    +0.034 A 
ATOM     16  C   UNL     1      11.489   4.610   5.202  0.00  0.00    +0.113 A 
ATOM     17  N   UNL     1      11.838   4.104   6.394  0.00  0.00    -0.284 N 
ATOM     18  N   UNL     1      10.802   3.309   6.897  0.00  0.00    -0.174 NA
ATOM     19  H   UNL     1      12.684   4.264   6.841  0.00  0.00    +0.188 HD
ENDBRANCH   8  10
ENDBRANCH   5   8
BRANCH   1  20
ATOM     20  C   UNL     1       3.672   2.182  -0.022  0.00  0.00    -0.043 C 
BRANCH  20  23
ATOM     21  C   UNL     1      -0.017   1.378   0.010  0.00  0.00    +0.002 A 
ATOM     22  C   UNL     1       1.171   2.085   0.002  0.00  0.00    +0.002 A 
ATOM     23  C   UNL     1       2.377   1.411  -0.013  0.00  0.00    -0.062 A 
ATOM     24  C   UNL     1       2.396   0.028  -0.020  0.00  0.00    +0.034 A 
ATOM     25  C   UNL     1       1.209  -0.679  -0.012  0.00  0.00    +0.126 A 
ATOM     26  C   UNL     1       0.002  -0.004   0.002  0.00  0.00    +0.033 A 
BRANCH  25  27
ATOM     27  N   UNL     1       1.229  -2.159  -0.020  0.00  0.00    +0.056 N 
ATOM     28  O   UNL     1       2.284  -2.749  -0.035  0.00  0.00    -0.126 OA
ATOM     29  O   UNL     1       0.190  -2.778  -0.013  0.00  0.00    -0.126 OA
ENDBRANCH  25  27
ENDBRANCH  20  23
ENDBRANCH   1  20
TORSDOF 5
