REMARK  Name = CHEMBL575555
REMARK  3 active torsions:
REMARK  status: ('A' for Active; 'I' for Inactive)
REMARK    1  A    between atoms: C_4  and  C_7
REMARK    2  A    between atoms: C_7  and  N_8
REMARK    3  A    between atoms: N_21  and  C_22
REMARK                            x       y       z     vdW  Elec       q    Type
REMARK                         _______ _______ _______ _____ _____    ______ ____
ROOT
ATOM      1  N   UNL     1       4.016  -1.234   1.358  0.00  0.00    -0.309 N 
ATOM      2  C   UNL     1       5.286  -1.726   1.582  0.00  0.00    +0.221 A 
ATOM      3  N   UNL     1       6.019  -2.165   0.564  0.00  0.00    -0.181 NA
ATOM      4  C   UNL     1       7.242  -2.638   0.780  0.00  0.00    +0.225 A 
ATOM      5  N   UNL     1       7.733  -2.671   2.015  0.00  0.00    -0.181 NA
ATOM      6  C   UNL     1       7.001  -2.232   3.033  0.00  0.00    +0.224 A 
ATOM      7  N   UNL     1       5.779  -1.754   2.816  0.00  0.00    -0.181 NA
ATOM      8  N   UNL     1       7.511  -2.267   4.315  0.00  0.00    -0.303 N 
ATOM      9  C   UNL     1       6.716  -1.791   5.458  0.00  0.00    +0.089 C 
ATOM     10  C   UNL     1       6.735  -2.871   6.545  0.00  0.00    -0.063 C 
ATOM     11  N   UNL     1       8.125  -3.211   6.873  0.00  0.00    +0.381 N 
ATOM     12  C   UNL     1       8.781  -3.813   5.706  0.00  0.00    -0.063 C 
ATOM     13  C   UNL     1       8.862  -2.785   4.578  0.00  0.00    +0.089 C 
ATOM     14  N   UNL     1       8.003  -3.095  -0.279  0.00  0.00    -0.283 N 
ATOM     15  H   UNL     1       3.483  -0.910   2.100  0.00  0.00    +0.149 HD
ATOM     16  H   UNL     1       8.620  -2.373   7.140  0.00  0.00    -0.086 HD
ATOM     17  H   UNL     1       8.861  -3.516  -0.114  0.00  0.00    +0.155 HD
ATOM     18  H   UNL     1       8.138  -3.866   7.640  0.00  0.00    -0.086 HD
ENDROOT
BRANCH  14  19
ATOM     19  C   UNL     1       7.538  -2.951  -1.585  0.00  0.00    +0.036 A 
ATOM     20  C   UNL     1       6.773  -1.845  -1.955  0.00  0.00    +0.043 A 
ATOM     21  C   UNL     1       6.332  -1.740  -3.257  0.00  0.00    +0.112 A 
ATOM     22  N   UNL     1       6.625  -2.669  -4.148  0.00  0.00    -0.263 NA
ATOM     23  C   UNL     1       7.346  -3.730  -3.838  0.00  0.00    +0.112 A 
ATOM     24  C   UNL     1       7.830  -3.906  -2.558  0.00  0.00    +0.043 A 
ENDBRANCH  14  19
BRANCH   1  25
ATOM     25  C   UNL     1       3.473  -1.202  -0.002  0.00  0.00    +0.139 C 
BRANCH  25  29
ATOM     26  C   UNL     1      -0.472   0.433   0.075  0.00  0.00    +0.000 A 
ATOM     27  C   UNL     1       0.618   1.266  -0.091  0.00  0.00    +0.000 A 
ATOM     28  C   UNL     1       1.895   0.737  -0.116  0.00  0.00    +0.005 A 
ATOM     29  C   UNL     1       2.081  -0.625   0.026  0.00  0.00    -0.030 A 
ATOM     30  C   UNL     1       0.991  -1.458   0.193  0.00  0.00    +0.005 A 
ATOM     31  C   UNL     1      -0.286  -0.929   0.217  0.00  0.00    +0.000 A 
ENDBRANCH  25  29
ENDBRANCH   1  25
TORSDOF 3
