REMARK  Name = CHEMBL225224
REMARK  3 active torsions:
REMARK  status: ('A' for Active; 'I' for Inactive)
REMARK    1  A    between atoms: C_4  and  C_8
REMARK    2  A    between atoms: C_8  and  N_9
REMARK    3  A    between atoms: N_12  and  C_13
REMARK                            x       y       z     vdW  Elec       q    Type
REMARK                         _______ _______ _______ _____ _____    ______ ____
ROOT
ATOM      1  N   UNL     1       4.156  -0.948   1.337  0.00  0.00    -0.295 N 
ATOM      2  C   UNL     1       5.311  -1.603   1.568  0.00  0.00    +0.304 C 
ATOM      3  O   UNL     1       5.987  -1.991   0.635  0.00  0.00    -0.252 OA
ATOM      4  N   UNL     1       5.718  -1.827   2.833  0.00  0.00    -0.269 N 
ATOM      5  H   UNL     1       3.617  -0.638   2.082  0.00  0.00    +0.151 HD
ATOM      6  H   UNL     1       5.214  -1.459   3.577  0.00  0.00    +0.156 HD
ENDROOT
BRANCH   4   7
ATOM      7  C   UNL     1       6.868  -2.591   3.075  0.00  0.00    +0.035 A 
ATOM      8  C   UNL     1       7.952  -2.509   2.201  0.00  0.00    +0.025 A 
ATOM      9  C   UNL     1       9.081  -3.244   2.418  0.00  0.00    +0.029 A 
ATOM     10  C   UNL     1       9.162  -4.089   3.522  0.00  0.00    +0.066 A 
ATOM     11  C   UNL     1       8.074  -4.179   4.411  0.00  0.00    +0.021 A 
ATOM     12  C   UNL     1       6.924  -3.416   4.180  0.00  0.00    +0.035 A 
ATOM     13  C   UNL     1       8.466  -5.132   5.445  0.00  0.00    +0.142 A 
ATOM     14  N   UNL     1       9.669  -5.547   5.168  0.00  0.00    -0.181 NA
ATOM     15  N   UNL     1      10.133  -4.934   4.000  0.00  0.00    -0.277 N 
ATOM     16  H   UNL     1      11.000  -5.081   3.593  0.00  0.00    +0.189 HD
ENDBRANCH   4   7
BRANCH   1  17
ATOM     17  C   UNL     1       3.714  -0.704  -0.038  0.00  0.00    +0.144 C 
BRANCH  17  21
ATOM     18  C   UNL     1      -0.001   1.407   0.011  0.00  0.00    +0.003 A 
ATOM     19  C   UNL     1       1.191   2.106  -0.002  0.00  0.00    +0.020 A 
ATOM     20  C   UNL     1       2.394   1.423  -0.018  0.00  0.00    +0.047 A 
ATOM     21  C   UNL     1       2.404   0.040  -0.021  0.00  0.00    +0.006 A 
ATOM     22  C   UNL     1       1.211  -0.660  -0.007  0.00  0.00    +0.047 A 
ATOM     23  C   UNL     1       0.008   0.024   0.008  0.00  0.00    +0.020 A 
ATOM     24 CL   UNL     1       1.222  -2.396  -0.011  0.00  0.00    -0.083 Cl
ATOM     25 CL   UNL     1       3.891   2.303  -0.035  0.00  0.00    -0.083 Cl
ENDBRANCH  17  21
ENDBRANCH   1  17
TORSDOF 3
