REMARK  Name = CHEMBL584291
REMARK  3 active torsions:
REMARK  status: ('A' for Active; 'I' for Inactive)
REMARK    1  A    between atoms: C_8  and  O_10
REMARK    2  A    between atoms: O_10  and  C_11
REMARK    3  A    between atoms: N_23  and  C_24
REMARK                            x       y       z     vdW  Elec       q    Type
REMARK                         _______ _______ _______ _____ _____    ______ ____
ROOT
ATOM      1  C   UNL     1       4.297  -4.329  -0.853  0.00  0.00    +0.324 A 
ATOM      2  N   UNL     1       4.867  -3.735  -1.895  0.00  0.00    -0.161 NA
ATOM      3  C   UNL     1       5.622  -4.439  -2.732  0.00  0.00    +0.227 A 
ATOM      4  N   UNL     1       5.808  -5.739  -2.525  0.00  0.00    -0.181 NA
ATOM      5  C   UNL     1       5.238  -6.333  -1.482  0.00  0.00    +0.225 A 
ATOM      6  N   UNL     1       4.486  -5.625  -0.643  0.00  0.00    -0.161 NA
ATOM      7  N   UNL     1       5.430  -7.683  -1.266  0.00  0.00    -0.303 N 
ATOM      8  C   UNL     1       6.161  -8.508  -2.239  0.00  0.00    +0.089 C 
ATOM      9  C   UNL     1       7.237  -9.302  -1.492  0.00  0.00    -0.063 C 
ATOM     10  N   UNL     1       6.613 -10.062  -0.400  0.00  0.00    +0.381 N 
ATOM     11  C   UNL     1       6.044  -9.139   0.590  0.00  0.00    -0.063 C 
ATOM     12  C   UNL     1       4.914  -8.335  -0.052  0.00  0.00    +0.089 C 
ATOM     13  N   UNL     1       6.215  -3.821  -3.817  0.00  0.00    -0.283 N 
ATOM     14  H   UNL     1       5.880 -10.646  -0.775  0.00  0.00    -0.086 HD
ATOM     15  H   UNL     1       6.003  -2.897  -4.023  0.00  0.00    +0.155 HD
ATOM     16  H   UNL     1       7.309 -10.643   0.044  0.00  0.00    -0.086 HD
ENDROOT
BRANCH  13  17
ATOM     17  C   UNL     1       7.116  -4.525  -4.614  0.00  0.00    +0.036 A 
ATOM     18  C   UNL     1       7.610  -5.765  -4.212  0.00  0.00    +0.043 A 
ATOM     19  C   UNL     1       8.500  -6.429  -5.029  0.00  0.00    +0.112 A 
ATOM     20  N   UNL     1       8.883  -5.905  -6.179  0.00  0.00    -0.263 NA
ATOM     21  C   UNL     1       8.438  -4.735  -6.595  0.00  0.00    +0.112 A 
ATOM     22  C   UNL     1       7.541  -4.010  -5.838  0.00  0.00    +0.043 A 
ENDBRANCH  13  17
BRANCH   1  23
ATOM     23  O   UNL     1       3.529  -3.610  -0.002  0.00  0.00    -0.458 OA
BRANCH  23  31
ATOM     24  C   UNL     1       1.360   1.862   1.083  0.00  0.00    +0.000 A 
ATOM     25  C   UNL     1       2.686   2.164   1.330  0.00  0.00    +0.000 A 
ATOM     26  C   UNL     1       3.656   1.195   1.164  0.00  0.00    +0.004 A 
ATOM     27  C   UNL     1       3.305  -0.079   0.750  0.00  0.00    -0.041 A 
ATOM     28  C   UNL     1       1.979  -0.381   0.503  0.00  0.00    -0.041 A 
ATOM     29  C   UNL     1       1.008   0.592   0.671  0.00  0.00    +0.004 A 
ATOM     30  C   UNL     1       1.855  -1.825   0.067  0.00  0.00    +0.080 C 
ATOM     31  C   UNL     1       3.282  -2.245  -0.346  0.00  0.00    +0.185 C 
ATOM     32  C   UNL     1       4.163  -1.300   0.497  0.00  0.00    +0.080 C 
ENDBRANCH  23  31
ENDBRANCH   1  23
TORSDOF 3
