REMARK  Name = CHEMBL375736
REMARK  7 active torsions:
REMARK  status: ('A' for Active; 'I' for Inactive)
REMARK    1  A    between atoms: C_1  and  C_2
REMARK    2  A    between atoms: C_2  and  C_3
REMARK    3  A    between atoms: C_2  and  C_4
REMARK    4  A    between atoms: C_4  and  C_5
REMARK    5  A    between atoms: C_5  and  N_6
REMARK    6  A    between atoms: C_10  and  N_12
REMARK    7  A    between atoms: N_12  and  C_13
REMARK                            x       y       z     vdW  Elec       q    Type
REMARK                         _______ _______ _______ _____ _____    ______ ____
ROOT
ATOM      1  N   UNL     1       0.669  -0.610   3.687  0.00  0.00    +0.381 N 
ATOM      2  C   UNL     1       0.696  -2.078   3.673  0.00  0.00    -0.079 C 
ATOM      3  C   UNL     1       1.504  -2.588   4.868  0.00  0.00    -0.017 C 
ATOM      4  C   UNL     1       0.852  -2.100   6.165  0.00  0.00    +0.018 C 
ATOM      5  C   UNL     1       0.762  -0.572   6.136  0.00  0.00    +0.054 C 
ATOM      6  C   UNL     1      -0.019  -0.136   4.894  0.00  0.00    -0.056 C 
ATOM      7  H   UNL     1       1.615  -0.259   3.680  0.00  0.00    -0.082 HD
ENDROOT
BRANCH   5   8
ATOM      8  N   UNL     1       0.072  -0.100   7.339  0.00  0.00    -0.342 N 
ATOM      9  H   UNL     1      -0.882   0.075   7.313  0.00  0.00    +0.146 HD
BRANCH   8  10
ATOM     10  C   UNL     1       0.785   0.099   8.519  0.00  0.00    +0.035 A 
ATOM     11  C   UNL     1       2.144  -0.142   8.562  0.00  0.00    +0.023 A 
ATOM     12  C   UNL     1       2.864   0.054   9.736  0.00  0.00    +0.002 A 
ATOM     13  C   UNL     1       2.254   0.487  10.875  0.00  0.00    +0.010 A 
ATOM     14  C   UNL     1       0.874   0.743  10.873  0.00  0.00    +0.002 A 
ATOM     15  C   UNL     1       0.130   0.553   9.680  0.00  0.00    +0.006 A 
ATOM     16  C   UNL     1      -1.248   0.822   9.705  0.00  0.00    +0.030 A 
ATOM     17  C   UNL     1      -1.809   1.258  10.868  0.00  0.00    +0.111 A 
ATOM     18  N   UNL     1      -1.090   1.434  11.968  0.00  0.00    -0.263 NA
ATOM     19  C   UNL     1       0.199   1.190  12.021  0.00  0.00    +0.119 A 
ENDBRANCH   8  10
ENDBRANCH   5   8
BRANCH   1  20
ATOM     20  C   UNL     1      -0.042  -0.124   2.497  0.00  0.00    -0.078 C 
BRANCH  20  21
ATOM     21  C   UNL     1       0.742  -0.511   1.242  0.00  0.00    -0.016 C 
BRANCH  21  23
ATOM     22  C   UNL     1      -0.019   1.526   0.010  0.00  0.00    +0.007 C 
ATOM     23  C   UNL     1       0.002  -0.004   0.002  0.00  0.00    -0.019 C 
ATOM     24  C   UNL     1       0.718  -0.497  -1.257  0.00  0.00    +0.007 C 
ENDBRANCH  21  23
ENDBRANCH  20  21
ENDBRANCH   1  20
TORSDOF 5
