REMARK  Name = CHEMBL1080071
REMARK  3 active torsions:
REMARK  status: ('A' for Active; 'I' for Inactive)
REMARK    1  A    between atoms: C_6  and  N_7
REMARK    2  A    between atoms: C_9  and  C_15
REMARK    3  A    between atoms: N_10  and  C_11
REMARK                            x       y       z     vdW  Elec       q    Type
REMARK                         _______ _______ _______ _____ _____    ______ ____
ROOT
ATOM      1  C   UNL     1      -0.008   1.400   0.183  0.00  0.00    +0.025 A 
ATOM      2  C   UNL     1       1.166   2.106   0.035  0.00  0.00    +0.030 A 
ATOM      3  C   UNL     1       2.379   1.433  -0.007  0.00  0.00    +0.067 A 
ATOM      4  C   UNL     1       2.410   0.031   0.102  0.00  0.00    +0.066 A 
ATOM      5  C   UNL     1       1.212  -0.675   0.252  0.00  0.00    +0.050 A 
ATOM      6  C   UNL     1       0.013   0.011   0.291  0.00  0.00    +0.027 A 
ATOM      7  N   UNL     1       3.708  -0.347   0.030  0.00  0.00    -0.338 N 
ATOM      8  C   UNL     1       4.468   0.710  -0.114  0.00  0.00    +0.145 A 
ATOM      9  N   UNL     1       3.694   1.838  -0.142  0.00  0.00    -0.321 N 
ATOM     10  H   UNL     1       4.027  -1.262   0.078  0.00  0.00    +0.167 HD
ENDROOT
BRANCH   8  11
ATOM     11  C   UNL     1       5.943   0.689  -0.228  0.00  0.00    +0.189 A 
ATOM     12  C   UNL     1       6.715   0.017  -1.280  0.00  0.00    +0.191 A 
ATOM     13  N   UNL     1       7.984   0.217  -1.050  0.00  0.00    -0.033 NA
ATOM     14  O   UNL     1       8.095   1.003   0.123  0.00  0.00    -0.240 OA
ATOM     15  N   UNL     1       6.784   1.270   0.588  0.00  0.00    -0.044 NA
ATOM     16  N   UNL     1       6.186  -0.709  -2.340  0.00  0.00    -0.339 N 
ATOM     17  H   UNL     1       5.226  -0.744  -2.471  0.00  0.00    +0.144 HD
ATOM     18  H   UNL     1       6.777  -1.181  -2.947  0.00  0.00    +0.144 HD
ENDBRANCH   8  11
BRANCH   9  19
ATOM     19  C   UNL     1       4.168   3.216  -0.289  0.00  0.00    +0.089 C 
ATOM     20  C   UNL     1       5.343   3.361  -1.270  0.00  0.00    +0.025 C 
ATOM     21  C   UNL     1       5.944   4.372  -0.279  0.00  0.00    +0.004 C 
ATOM     22  C   UNL     1       5.142   3.653   0.819  0.00  0.00    +0.025 C 
ENDBRANCH   9  19
BRANCH   6  23
ATOM     23  N   UNL     1      -1.187  -0.694   0.442  0.00  0.00    -0.358 N 
ATOM     24  H   UNL     1      -2.030  -0.215   0.470  0.00  0.00    +0.142 HD
ATOM     25  H   UNL     1      -1.175  -1.661   0.517  0.00  0.00    +0.142 HD
ENDBRANCH   6  23
TORSDOF 3
