REMARK  Name = CHEMBL570126
REMARK  5 active torsions:
REMARK  status: ('A' for Active; 'I' for Inactive)
REMARK    1  A    between atoms: C_1  and  C_2
REMARK    2  A    between atoms: C_8  and  N_12
REMARK    3  A    between atoms: C_16  and  C_19
REMARK    4  A    between atoms: N_21  and  C_22
REMARK    5  A    between atoms: N_24  and  C_25
REMARK                            x       y       z     vdW  Elec       q    Type
REMARK                         _______ _______ _______ _____ _____    ______ ____
ROOT
ATOM      1  N   UNL     1      -0.460   1.635   1.493  0.00  0.00    -0.311 N 
ATOM      2  C   UNL     1      -0.329   2.942   0.836  0.00  0.00    +0.125 C 
ATOM      3  C   UNL     1       0.972   3.602   1.312  0.00  0.00    +0.127 C 
ATOM      4  N   UNL     1       1.020   3.539   2.779  0.00  0.00    -0.297 N 
ATOM      5  C   UNL     1       0.889   2.231   3.437  0.00  0.00    +0.090 C 
ATOM      6  C   UNL     1      -0.417   1.572   2.961  0.00  0.00    +0.128 C 
ATOM      7  C   UNL     1       0.847   2.422   4.955  0.00  0.00    +0.029 C 
ATOM      8  C   UNL     1       1.186   4.681   3.522  0.00  0.00    +0.196 C 
ATOM      9  N   UNL     1       0.090   5.313   4.067  0.00  0.00    -0.224 N 
ATOM     10  N   UNL     1       2.388   5.170   3.714  0.00  0.00    -0.218 NA
ATOM     11  H   UNL     1      -0.790   4.913   3.987  0.00  0.00    +0.167 HD
ENDROOT
BRANCH   1  19
ATOM     12  C   UNL     1      -3.657   1.871   1.185  0.00  0.00    +0.046 C 
ATOM     13  C   UNL     1      -3.255   0.617   0.452  0.00  0.00    -0.021 A 
ATOM     14  C   UNL     1      -4.072  -0.225  -0.203  0.00  0.00    +0.088 A 
ATOM     15  N   UNL     1      -3.343  -1.253  -0.744  0.00  0.00    -0.345 N 
ATOM     16  H   UNL     1      -3.713  -1.984  -1.262  0.00  0.00    +0.167 HD
ATOM     17  C   UNL     1      -2.018  -1.095  -0.446  0.00  0.00    +0.143 A 
ATOM     18  C   UNL     1      -1.900   0.086   0.311  0.00  0.00    +0.061 A 
ATOM     19  C   UNL     1      -0.627   0.484   0.745  0.00  0.00    +0.134 A 
ATOM     20  N   UNL     1       0.416  -0.273   0.417  0.00  0.00    -0.220 NA
ATOM     21  C   UNL     1       0.262  -1.373  -0.298  0.00  0.00    +0.225 A 
ATOM     22  N   UNL     1      -0.914  -1.788  -0.719  0.00  0.00    -0.218 NA
ENDBRANCH   1  19
BRANCH  10  23
ATOM     23  C   UNL     1       3.466   4.604   3.087  0.00  0.00    +0.068 A 
ATOM     24  C   UNL     1       3.776   3.260   3.305  0.00  0.00    +0.028 A 
ATOM     25  C   UNL     1       4.864   2.695   2.671  0.00  0.00    +0.003 A 
ATOM     26  C   UNL     1       5.646   3.456   1.821  0.00  0.00    +0.015 A 
ATOM     27  C   UNL     1       5.345   4.789   1.601  0.00  0.00    +0.020 A 
ATOM     28  C   UNL     1       4.256   5.365   2.225  0.00  0.00    +0.043 A 
ATOM     29 BR   UNL     1       6.421   5.821   0.439  0.00  0.00    -0.050 Br
ENDBRANCH  10  23
BRANCH   9  30
ATOM     30  C   UNL     1       0.241   6.494   4.714  0.00  0.00    +0.173 C 
ATOM     31  N   UNL     1       0.368   7.484   5.256  0.00  0.00    -0.174 NA
ENDBRANCH   9  30
TORSDOF 3
