REMARK  Name = CHEMBL188434
REMARK  6 active torsions:
REMARK  status: ('A' for Active; 'I' for Inactive)
REMARK    1  A    between atoms: C_1  and  C_2
REMARK    2  A    between atoms: C_2  and  N_3
REMARK    3  A    between atoms: C_5  and  C_18
REMARK    4  A    between atoms: C_11  and  C_12
REMARK    5  A    between atoms: C_18  and  N_19
REMARK    6  A    between atoms: N_19  and  C_20
REMARK                            x       y       z     vdW  Elec       q    Type
REMARK                         _______ _______ _______ _____ _____    ______ ____
ROOT
ATOM      1  N   UNL     1       0.581  -0.302  -0.680  0.00  0.00    -0.322 N 
ATOM      2  C   UNL     1       0.329  -0.622  -1.992  0.00  0.00    +0.076 A 
ATOM      3  C   UNL     1      -0.794  -0.604  -2.812  0.00  0.00    +0.008 A 
ATOM      4  C   UNL     1      -0.667  -1.011  -4.123  0.00  0.00    +0.089 A 
ATOM      5  N   UNL     1       0.496  -1.415  -4.607  0.00  0.00    -0.365 N 
ATOM      6  C   UNL     1       1.590  -1.452  -3.876  0.00  0.00    +0.112 A 
ATOM      7  C   UNL     1       1.555  -1.057  -2.536  0.00  0.00    +0.106 A 
ATOM      8  N   UNL     1       2.477  -0.982  -1.549  0.00  0.00    -0.224 NA
ATOM      9  C   UNL     1       1.913  -0.533  -0.455  0.00  0.00    +0.167 A 
ATOM     10  H   UNL     1       0.545  -1.694  -5.535  0.00  0.00    +0.165 HD
ENDROOT
BRANCH   9  11
ATOM     11  C   UNL     1       2.609  -0.311   0.832  0.00  0.00    +0.190 A 
ATOM     12  C   UNL     1       4.035  -0.548   1.091  0.00  0.00    +0.191 A 
ATOM     13  N   UNL     1       4.282  -0.240   2.334  0.00  0.00    -0.033 NA
ATOM     14  O   UNL     1       3.071   0.196   2.925  0.00  0.00    -0.240 OA
ATOM     15  N   UNL     1       2.062   0.134   1.933  0.00  0.00    -0.044 NA
ATOM     16  N   UNL     1       4.962  -1.018   0.170  0.00  0.00    -0.339 N 
ATOM     17  H   UNL     1       4.684  -1.221  -0.737  0.00  0.00    +0.144 HD
ATOM     18  H   UNL     1       5.887  -1.143   0.433  0.00  0.00    +0.144 HD
ENDBRANCH   9  11
BRANCH   1  20
ATOM     19  C   UNL     1      -0.965  -0.973   1.091  0.00  0.00    +0.027 C 
ATOM     20  C   UNL     1      -0.391   0.200   0.294  0.00  0.00    +0.120 C 
ENDBRANCH   1  20
BRANCH   3  21
ATOM     21  C   UNL     1      -2.127  -0.148  -2.277  0.00  0.00    +0.120 C 
BRANCH  21  22
ATOM     22  N   UNL     1      -2.176   1.321  -2.272  0.00  0.00    -0.309 NA
ATOM     23  H   UNL     1      -1.361   1.708  -1.820  0.00  0.00    +0.123 HD
BRANCH  22  24
ATOM     24  C   UNL     1      -3.409   1.804  -1.638  0.00  0.00    +0.050 C 
ATOM     25  C   UNL     1      -4.536   1.846  -2.675  0.00  0.00    -0.001 C 
ATOM     26  C   UNL     1      -5.796   2.425  -2.029  0.00  0.00    -0.081 C 
ATOM     27  N   UNL     1      -5.522   3.784  -1.546  0.00  0.00    +0.379 N 
ATOM     28  C   UNL     1      -4.494   3.743  -0.500  0.00  0.00    -0.081 C 
ATOM     29  C   UNL     1      -3.183   3.215  -1.088  0.00  0.00    -0.001 C 
ATOM     30  H   UNL     1      -5.198   4.353  -2.314  0.00  0.00    -0.086 HD
ATOM     31  H   UNL     1      -6.369   4.182  -1.169  0.00  0.00    -0.086 HD
ENDBRANCH  22  24
ENDBRANCH  21  22
ENDBRANCH   3  21
TORSDOF 5
