REMARK  Name = CHEMBL567603
REMARK  2 active torsions:
REMARK  status: ('A' for Active; 'I' for Inactive)
REMARK    1  A    between atoms: C_9  and  N_10
REMARK    2  A    between atoms: N_23  and  C_24
REMARK                            x       y       z     vdW  Elec       q    Type
REMARK                         _______ _______ _______ _____ _____    ______ ____
ROOT
ATOM      1  N   UNL     1       3.686  -0.623   1.490  0.00  0.00    -0.306 N 
ATOM      2  C   UNL     1       4.768   0.153   1.853  0.00  0.00    +0.222 A 
ATOM      3  N   UNL     1       5.279   1.026   0.992  0.00  0.00    -0.181 NA
ATOM      4  C   UNL     1       6.321   1.774   1.342  0.00  0.00    +0.225 A 
ATOM      5  N   UNL     1       6.852   1.648   2.554  0.00  0.00    -0.181 NA
ATOM      6  C   UNL     1       6.341   0.774   3.416  0.00  0.00    +0.224 A 
ATOM      7  N   UNL     1       5.296   0.030   3.067  0.00  0.00    -0.181 NA
ATOM      8  N   UNL     1       6.892   0.644   4.675  0.00  0.00    -0.303 N 
ATOM      9  C   UNL     1       6.347  -0.321   5.643  0.00  0.00    +0.089 C 
ATOM     10  C   UNL     1       7.503  -1.162   6.193  0.00  0.00    -0.063 C 
ATOM     11  N   UNL     1       8.537  -0.274   6.739  0.00  0.00    +0.381 N 
ATOM     12  C   UNL     1       9.117   0.539   5.663  0.00  0.00    -0.063 C 
ATOM     13  C   UNL     1       8.045   1.460   5.084  0.00  0.00    +0.089 C 
ATOM     14  N   UNL     1       6.853   2.682   0.446  0.00  0.00    -0.283 N 
ATOM     15  H   UNL     1       3.311  -1.258   2.120  0.00  0.00    +0.150 HD
ATOM     16  H   UNL     1       8.125   0.333   7.433  0.00  0.00    -0.086 HD
ATOM     17  H   UNL     1       7.560   3.283   0.727  0.00  0.00    +0.155 HD
ATOM     18  H   UNL     1       9.262  -0.828   7.169  0.00  0.00    -0.086 HD
ENDROOT
BRANCH   1  27
ATOM     19  C   UNL     1      -0.135   2.287   0.126  0.00  0.00    +0.000 A 
ATOM     20  C   UNL     1       1.137   2.828   0.077  0.00  0.00    +0.000 A 
ATOM     21  C   UNL     1       2.240   1.996   0.082  0.00  0.00    +0.006 A 
ATOM     22  C   UNL     1       2.076   0.622   0.136  0.00  0.00    -0.024 A 
ATOM     23  C   UNL     1       0.805   0.082   0.185  0.00  0.00    -0.042 A 
ATOM     24  C   UNL     1      -0.300   0.917   0.180  0.00  0.00    +0.004 A 
ATOM     25  C   UNL     1       0.892  -1.429   0.237  0.00  0.00    +0.037 C 
ATOM     26  C   UNL     1       2.326  -1.766  -0.225  0.00  0.00    +0.032 C 
ATOM     27  C   UNL     1       3.105  -0.488   0.152  0.00  0.00    +0.104 C 
ENDBRANCH   1  27
BRANCH  14  28
ATOM     28  C   UNL     1       6.372   2.733  -0.862  0.00  0.00    +0.036 A 
ATOM     29  C   UNL     1       6.335   3.938  -1.563  0.00  0.00    +0.043 A 
ATOM     30  C   UNL     1       5.852   3.946  -2.855  0.00  0.00    +0.112 A 
ATOM     31  N   UNL     1       5.430   2.834  -3.427  0.00  0.00    -0.263 NA
ATOM     32  C   UNL     1       5.449   1.675  -2.797  0.00  0.00    +0.112 A 
ATOM     33  C   UNL     1       5.923   1.581  -1.504  0.00  0.00    +0.043 A 
ENDBRANCH  14  28
TORSDOF 2
