REMARK  Name = CHEMBL466496
REMARK  4 active torsions:
REMARK  status: ('A' for Active; 'I' for Inactive)
REMARK    1  A    between atoms: C_1  and  C_2
REMARK    2  A    between atoms: C_2  and  C_4
REMARK    3  A    between atoms: C_2  and  N_10
REMARK    4  A    between atoms: C_12  and  N_17
REMARK                            x       y       z     vdW  Elec       q    Type
REMARK                         _______ _______ _______ _____ _____    ______ ____
ROOT
ATOM      1  N   UNL     1      -1.372  -0.511   0.012  0.00  0.00    -0.274 NA
ATOM      2  C   UNL     1      -1.775  -1.264   0.980  0.00  0.00    +0.119 C 
ATOM      3  C   UNL     1      -1.173  -1.831   2.248  0.00  0.00    +0.232 C 
ATOM      4  C   UNL     1      -2.593  -1.874   2.771  0.00  0.00    +0.234 C 
ATOM      5  O   UNL     1      -3.127  -1.850   3.854  0.00  0.00    -0.286 OA
ATOM      6  C   UNL     1      -3.038  -1.955   1.349  0.00  0.00    +0.247 C 
ATOM      7  O   UNL     1      -4.004  -2.390   0.758  0.00  0.00    -0.282 OA
ENDROOT
BRANCH   3   8
ATOM      8  N   UNL     1      -0.566  -3.152   2.075  0.00  0.00    -0.266 NA
ATOM      9  C   UNL     1       0.720  -3.328   2.330  0.00  0.00    +0.062 A 
ATOM     10  C   UNL     1       1.567  -2.220   2.795  0.00  0.00    +0.045 A 
ATOM     11  C   UNL     1       2.904  -2.392   2.775  0.00  0.00    +0.084 A 
ATOM     12  N   UNL     1       3.448  -3.557   2.329  0.00  0.00    -0.367 N 
ATOM     13  C   UNL     1       2.711  -4.690   2.172  0.00  0.00    +0.084 A 
ATOM     14  C   UNL     1       1.362  -4.640   2.168  0.00  0.00    +0.045 A 
ATOM     15  H   UNL     1       4.394  -3.581   2.116  0.00  0.00    +0.165 HD
ENDBRANCH   3   8
BRANCH   1  17
ATOM     16  C   UNL     1      -0.019   1.526   0.010  0.00  0.00    +0.038 C 
ATOM     17  C   UNL     1       0.002  -0.004   0.002  0.00  0.00    +0.133 C 
BRANCH  17  18
ATOM     18  C   UNL     1       0.707  -0.490  -1.238  0.00  0.00    -0.023 A 
ATOM     19  C   UNL     1       0.038  -0.522  -2.447  0.00  0.00    +0.006 A 
ATOM     20  C   UNL     1       0.685  -0.967  -3.584  0.00  0.00    +0.000 A 
ATOM     21  C   UNL     1       2.002  -1.381  -3.513  0.00  0.00    +0.000 A 
ATOM     22  C   UNL     1       2.672  -1.349  -2.304  0.00  0.00    +0.000 A 
ATOM     23  C   UNL     1       2.026  -0.899  -1.167  0.00  0.00    +0.006 A 
ENDBRANCH  17  18
ENDBRANCH   1  17
TORSDOF 3
