REMARK  Name = CHEMBL225434
REMARK  4 active torsions:
REMARK  status: ('A' for Active; 'I' for Inactive)
REMARK    1  A    between atoms: C_4  and  C_7
REMARK    2  A    between atoms: C_7  and  N_8
REMARK    3  A    between atoms: C_11  and  O_14
REMARK    4  A    between atoms: O_14  and  C_15
REMARK                            x       y       z     vdW  Elec       q    Type
REMARK                         _______ _______ _______ _____ _____    ______ ____
ROOT
ATOM      1  N   UNL     1       4.282  -0.420   1.324  0.00  0.00    +0.383 N 
ATOM      2  C   UNL     1       4.471   0.736   2.209  0.00  0.00    -0.075 C 
ATOM      3  C   UNL     1       4.809   0.252   3.620  0.00  0.00    +0.026 C 
ATOM      4  C   UNL     1       6.098  -0.575   3.576  0.00  0.00    +0.170 C 
ATOM      5  C   UNL     1       5.914  -1.735   2.593  0.00  0.00    +0.026 C 
ATOM      6  C   UNL     1       5.535  -1.178   1.220  0.00  0.00    -0.075 C 
ATOM      7  H   UNL     1       3.560  -1.016   1.702  0.00  0.00    -0.081 HD
ENDROOT
BRANCH   1   8
ATOM      8  C   UNL     1       3.881   0.046  -0.010  0.00  0.00    -0.043 C 
BRANCH   8  12
ATOM      9  C   UNL     1       0.065   1.950   0.232  0.00  0.00    +0.000 A 
ATOM     10  C   UNL     1       1.219   2.692   0.400  0.00  0.00    +0.000 A 
ATOM     11  C   UNL     1       2.454   2.076   0.322  0.00  0.00    +0.002 A 
ATOM     12  C   UNL     1       2.535   0.718   0.076  0.00  0.00    -0.064 A 
ATOM     13  C   UNL     1       1.380  -0.024  -0.091  0.00  0.00    +0.002 A 
ATOM     14  C   UNL     1       0.145   0.592  -0.014  0.00  0.00    +0.000 A 
ENDBRANCH   8  12
ENDBRANCH   1   8
BRANCH   4  15
ATOM     15  O   UNL     1       6.380  -1.091   4.878  0.00  0.00    -0.489 OA
BRANCH  15  16
ATOM     16  C   UNL     1       7.677  -1.387   5.157  0.00  0.00    +0.122 A 
ATOM     17  C   UNL     1       8.035  -1.791   6.442  0.00  0.00    +0.048 A 
ATOM     18  C   UNL     1       9.332  -2.093   6.744  0.00  0.00    +0.031 A 
ATOM     19  C   UNL     1      10.316  -1.999   5.764  0.00  0.00    +0.066 A 
ATOM     20  C   UNL     1       9.965  -1.593   4.462  0.00  0.00    +0.023 A 
ATOM     21  C   UNL     1       8.631  -1.292   4.166  0.00  0.00    +0.057 A 
ATOM     22  C   UNL     1      11.200  -1.595   3.684  0.00  0.00    +0.142 A 
ATOM     23  N   UNL     1      12.167  -1.970   4.473  0.00  0.00    -0.181 NA
ATOM     24  N   UNL     1      11.669  -2.227   5.754  0.00  0.00    -0.277 N 
ATOM     25  H   UNL     1      12.196  -2.518   6.514  0.00  0.00    +0.189 HD
ENDBRANCH  15  16
ENDBRANCH   4  15
TORSDOF 4
