REMARK  Name = CHEMBL483574
REMARK  7 active torsions:
REMARK  status: ('A' for Active; 'I' for Inactive)
REMARK    1  A    between atoms: C_1  and  C_2
REMARK    2  A    between atoms: C_3  and  C_24
REMARK    3  A    between atoms: C_4  and  C_16
REMARK    4  A    between atoms: C_6  and  C_8
REMARK    5  A    between atoms: C_11  and  O_14
REMARK    6  A    between atoms: O_14  and  C_15
REMARK    7  A    between atoms: N_26  and  C_27
REMARK                            x       y       z     vdW  Elec       q    Type
REMARK                         _______ _______ _______ _____ _____    ______ ____
ROOT
ATOM      1  C   UNL     1       0.583   1.018  -1.188  0.00  0.00    +0.061 C 
ATOM      2  C   UNL     1       0.335  -0.415  -0.794  0.00  0.00    +0.017 C 
ATOM      3  C   UNL     1      -0.907  -0.824  -0.477  0.00  0.00    +0.058 C 
ATOM      4  C   UNL     1      -1.177  -2.251  -0.093  0.00  0.00    +0.150 C 
ATOM      5  N   UNL     1       0.056  -2.949   0.249  0.00  0.00    -0.361 N 
ATOM      6  C   UNL     1       1.227  -2.498  -0.073  0.00  0.00    +0.106 C 
ATOM      7  N   UNL     1       1.373  -1.310  -0.763  0.00  0.00    -0.304 N 
ATOM      8  H   UNL     1       2.205  -1.109  -1.219  0.00  0.00    +0.153 HD
ATOM      9  H   UNL     1      -0.003  -3.784   0.739  0.00  0.00    +0.162 HD
ENDROOT
BRANCH   4  10
ATOM     10  C   UNL     1      -1.839  -2.957  -1.248  0.00  0.00    +0.015 A 
ATOM     11  C   UNL     1      -1.916  -2.340  -2.483  0.00  0.00    +0.010 A 
ATOM     12  C   UNL     1      -2.523  -2.986  -3.543  0.00  0.00    +0.020 A 
ATOM     13  C   UNL     1      -3.054  -4.252  -3.370  0.00  0.00    +0.044 A 
ATOM     14  C   UNL     1      -2.979  -4.870  -2.135  0.00  0.00    +0.058 A 
ATOM     15  C   UNL     1      -2.366  -4.225  -1.075  0.00  0.00    +0.130 A 
ATOM     16  F   UNL     1      -2.288  -4.830   0.131  0.00  0.00    -0.205 F 
ATOM     17 CL   UNL     1      -3.817  -5.062  -4.702  0.00  0.00    -0.083 Cl
ENDBRANCH   4  10
BRANCH   6  18
ATOM     18  C   UNL     1       2.429  -3.273   0.301  0.00  0.00    +0.031 A 
ATOM     19  C   UNL     1       3.587  -3.215  -0.487  0.00  0.00    +0.018 A 
ATOM     20  C   UNL     1       4.684  -3.955  -0.097  0.00  0.00    +0.068 A 
ATOM     21  C   UNL     1       4.607  -4.730   1.056  0.00  0.00    +0.214 A 
ATOM     22  N   UNL     1       3.499  -4.764   1.779  0.00  0.00    -0.221 NA
ATOM     23  C   UNL     1       2.431  -4.069   1.446  0.00  0.00    +0.126 A 
BRANCH  21  24
ATOM     24  O   UNL     1       5.681  -5.460   1.444  0.00  0.00    -0.480 OA
ATOM     25  C   UNL     1       5.542  -6.235   2.636  0.00  0.00    +0.279 C 
ENDBRANCH  21  24
ENDBRANCH   6  18
BRANCH   3  26
ATOM     26  C   UNL     1      -1.976   0.104  -0.505  0.00  0.00    +0.248 C 
ATOM     27  O   UNL     1      -1.752   1.284  -0.707  0.00  0.00    -0.270 OA
ATOM     28  N   UNL     1      -3.241  -0.317  -0.309  0.00  0.00    -0.282 N 
ATOM     29  H   UNL     1      -3.409  -1.231  -0.029  0.00  0.00    +0.155 HD
BRANCH  28  30
ATOM     30  C   UNL     1      -4.311   0.563  -0.510  0.00  0.00    +0.034 A 
ATOM     31  C   UNL     1      -4.098   1.941  -0.449  0.00  0.00    +0.025 A 
ATOM     32  C   UNL     1      -5.128   2.815  -0.641  0.00  0.00    +0.029 A 
ATOM     33  C   UNL     1      -6.410   2.338  -0.902  0.00  0.00    +0.066 A 
ATOM     34  C   UNL     1      -6.637   0.950  -0.966  0.00  0.00    +0.021 A 
ATOM     35  C   UNL     1      -5.571   0.063  -0.772  0.00  0.00    +0.035 A 
ATOM     36  C   UNL     1      -8.058   0.778  -1.250  0.00  0.00    +0.142 A 
ATOM     37  N   UNL     1      -8.592   1.962  -1.340  0.00  0.00    -0.181 NA
ATOM     38  N   UNL     1      -7.619   2.945  -1.133  0.00  0.00    -0.277 N 
ATOM     39  H   UNL     1      -7.773   3.903  -1.151  0.00  0.00    +0.189 HD
ENDBRANCH  28  30
ENDBRANCH   3  26
TORSDOF 5
