REMARK  Name = CHEMBL493251
REMARK  9 active torsions:
REMARK  status: ('A' for Active; 'I' for Inactive)
REMARK    1  A    between atoms: C_1  and  C_2
REMARK    2  A    between atoms: C_2  and  N_3
REMARK    3  A    between atoms: C_5  and  O_24
REMARK    4  A    between atoms: C_8  and  C_18
REMARK    5  A    between atoms: C_11  and  C_12
REMARK    6  A    between atoms: O_24  and  C_25
REMARK    7  A    between atoms: C_25  and  C_26
REMARK    8  A    between atoms: C_26  and  C_27
REMARK    9  A    between atoms: C_27  and  N_28
REMARK                            x       y       z     vdW  Elec       q    Type
REMARK                         _______ _______ _______ _____ _____    ______ ____
ROOT
ATOM      1  N   UNL     1       0.688  -0.476  -1.203  0.00  0.00    -0.320 N 
ATOM      2  C   UNL     1       0.108  -0.745  -2.422  0.00  0.00    +0.115 A 
ATOM      3  C   UNL     1      -1.189  -0.685  -2.933  0.00  0.00    +0.164 A 
ATOM      4  C   UNL     1      -1.408  -1.042  -4.252  0.00  0.00    +0.159 A 
ATOM      5  N   UNL     1      -0.417  -1.437  -5.031  0.00  0.00    -0.248 NA
ATOM      6  C   UNL     1       0.836  -1.514  -4.601  0.00  0.00    +0.115 A 
ATOM      7  C   UNL     1       1.149  -1.168  -3.269  0.00  0.00    +0.121 A 
ATOM      8  N   UNL     1       2.285  -1.140  -2.550  0.00  0.00    -0.223 NA
ATOM      9  C   UNL     1       2.028  -0.729  -1.332  0.00  0.00    +0.167 A 
ENDROOT
BRANCH   9  10
ATOM     10  C   UNL     1       3.033  -0.565  -0.259  0.00  0.00    +0.190 A 
ATOM     11  C   UNL     1       4.473  -0.825  -0.381  0.00  0.00    +0.191 A 
ATOM     12  N   UNL     1       5.035  -0.570   0.768  0.00  0.00    -0.033 NA
ATOM     13  O   UNL     1       4.023  -0.145   1.664  0.00  0.00    -0.240 OA
ATOM     14  N   UNL     1       2.793  -0.159   0.961  0.00  0.00    -0.044 NA
ATOM     15  N   UNL     1       5.125  -1.268  -1.524  0.00  0.00    -0.339 N 
ATOM     16  H   UNL     1       4.622  -1.433  -2.337  0.00  0.00    +0.144 HD
ATOM     17  H   UNL     1       6.084  -1.413  -1.510  0.00  0.00    +0.144 HD
ENDBRANCH   9  10
BRANCH   6  18
ATOM     18  C   UNL     1       1.902  -1.962  -5.515  0.00  0.00    +0.067 A 
ATOM     19  C   UNL     1       1.977  -1.699  -6.853  0.00  0.00    +0.029 A 
ATOM     20  C   UNL     1       3.145  -2.310  -7.333  0.00  0.00    +0.019 A 
ATOM     21  C   UNL     1       3.748  -2.923  -6.291  0.00  0.00    +0.083 A 
ATOM     22  N   UNL     1       2.999  -2.712  -5.172  0.00  0.00    -0.359 N 
ATOM     23  H   UNL     1       3.206  -3.038  -4.283  0.00  0.00    +0.165 HD
ENDBRANCH   6  18
BRANCH   1  25
ATOM     24  C   UNL     1      -0.019   1.526   0.010  0.00  0.00    +0.027 C 
ATOM     25  C   UNL     1       0.002  -0.004   0.002  0.00  0.00    +0.120 C 
ENDBRANCH   1  25
BRANCH   3  26
ATOM     26  O   UNL     1      -2.222  -0.281  -2.147  0.00  0.00    -0.488 OA
BRANCH  26  27
ATOM     27  C   UNL     1      -3.519  -0.247  -2.746  0.00  0.00    +0.227 C 
BRANCH  27  28
ATOM     28  C   UNL     1      -4.545   0.228  -1.716  0.00  0.00    +0.021 C 
BRANCH  28  29
ATOM     29  C   UNL     1      -5.934   0.265  -2.358  0.00  0.00    -0.083 C 
BRANCH  29  30
ATOM     30  N   UNL     1      -6.919   0.721  -1.368  0.00  0.00    +0.378 N 
ATOM     31  H   UNL     1      -6.927   0.085  -0.585  0.00  0.00    -0.090 HD
ATOM     32  H   UNL     1      -6.671   1.645  -1.049  0.00  0.00    -0.090 HD
ATOM     33  H   UNL     1      -7.834   0.745  -1.792  0.00  0.00    -0.090 HD
ENDBRANCH  29  30
ENDBRANCH  28  29
ENDBRANCH  27  28
ENDBRANCH  26  27
ENDBRANCH   3  26
TORSDOF 8
