REMARK  Name = CHEMBL483402
REMARK  7 active torsions:
REMARK  status: ('A' for Active; 'I' for Inactive)
REMARK    1  A    between atoms: C_1  and  C_2
REMARK    2  A    between atoms: C_4  and  C_16
REMARK    3  A    between atoms: C_6  and  C_8
REMARK    4  A    between atoms: C_12  and  O_14
REMARK    5  A    between atoms: O_14  and  C_15
REMARK    6  A    between atoms: C_24  and  N_26
REMARK    7  A    between atoms: N_26  and  C_27
REMARK                            x       y       z     vdW  Elec       q    Type
REMARK                         _______ _______ _______ _____ _____    ______ ____
ROOT
ATOM      1  C   UNL     1       0.495   1.535  -0.116  0.00  0.00    +0.066 C 
ATOM      2  C   UNL     1       0.370   0.035  -0.036  0.00  0.00    +0.051 C 
ATOM      3  C   UNL     1      -0.892  -0.562  -0.120  0.00  0.00    +0.064 C 
ATOM      4  C   UNL     1      -0.938  -2.076  -0.032  0.00  0.00    +0.177 C 
ATOM      5  N   UNL     1       0.356  -2.760   0.135  0.00  0.00    -0.252 NA
ATOM      6  C   UNL     1       1.444  -2.037   0.196  0.00  0.00    +0.157 C 
ATOM      7  N   UNL     1       1.447  -0.703   0.108  0.00  0.00    -0.232 NA
ATOM      8  C   UNL     1      -2.039   0.189  -0.277  0.00  0.00    +0.248 C 
ATOM      9  O   UNL     1      -1.967   1.536  -0.287  0.00  0.00    -0.270 OA
ENDROOT
BRANCH   4  10
ATOM     10  C   UNL     1      -1.586  -2.600  -1.287  0.00  0.00    +0.017 A 
ATOM     11  C   UNL     1      -2.869  -3.114  -1.240  0.00  0.00    +0.010 A 
ATOM     12  C   UNL     1      -3.464  -3.595  -2.392  0.00  0.00    +0.020 A 
ATOM     13  C   UNL     1      -2.777  -3.561  -3.593  0.00  0.00    +0.044 A 
ATOM     14  C   UNL     1      -1.494  -3.046  -3.641  0.00  0.00    +0.058 A 
ATOM     15  C   UNL     1      -0.900  -2.560  -2.489  0.00  0.00    +0.130 A 
ATOM     16  F   UNL     1       0.351  -2.053  -2.536  0.00  0.00    -0.205 F 
ATOM     17 CL   UNL     1      -3.525  -4.165  -5.038  0.00  0.00    -0.083 Cl
ENDBRANCH   4  10
BRANCH   6  18
ATOM     18  C   UNL     1       2.745  -2.734   0.364  0.00  0.00    +0.025 A 
ATOM     19  C   UNL     1       2.805  -4.129   0.450  0.00  0.00    +0.031 A 
ATOM     20  C   UNL     1       4.032  -4.739   0.607  0.00  0.00    +0.115 A 
ATOM     21  N   UNL     1       5.141  -4.027   0.676  0.00  0.00    -0.221 NA
ATOM     22  C   UNL     1       5.130  -2.708   0.599  0.00  0.00    +0.215 A 
ATOM     23  C   UNL     1       3.938  -2.016   0.435  0.00  0.00    +0.078 A 
BRANCH  22  24
ATOM     24  O   UNL     1       6.299  -2.022   0.676  0.00  0.00    -0.480 OA
ATOM     25  C   UNL     1       7.492  -2.790   0.839  0.00  0.00    +0.279 C 
ENDBRANCH  22  24
ENDBRANCH   6  18
BRANCH   8  26
ATOM     26  N   UNL     1      -3.249  -0.432  -0.421  0.00  0.00    -0.282 N 
ATOM     27  H   UNL     1      -3.568  -1.038   0.266  0.00  0.00    +0.155 HD
BRANCH  26  28
ATOM     28  C   UNL     1      -4.027  -0.193  -1.560  0.00  0.00    +0.034 A 
ATOM     29  C   UNL     1      -3.553   0.661  -2.558  0.00  0.00    +0.025 A 
ATOM     30  C   UNL     1      -4.296   0.907  -3.675  0.00  0.00    +0.029 A 
ATOM     31  C   UNL     1      -5.543   0.305  -3.833  0.00  0.00    +0.066 A 
ATOM     32  C   UNL     1      -6.030  -0.558  -2.833  0.00  0.00    +0.021 A 
ATOM     33  C   UNL     1      -5.256  -0.807  -1.694  0.00  0.00    +0.035 A 
ATOM     34  C   UNL     1      -7.338  -1.017  -3.288  0.00  0.00    +0.142 A 
ATOM     35  N   UNL     1      -7.574  -0.465  -4.444  0.00  0.00    -0.181 NA
ATOM     36  N   UNL     1      -6.500   0.352  -4.814  0.00  0.00    -0.277 N 
ATOM     37  H   UNL     1      -6.443   0.869  -5.633  0.00  0.00    +0.189 HD
ENDBRANCH  26  28
ENDBRANCH   8  26
TORSDOF 5
