REMARK  Name = CHEMBL427085
REMARK  7 active torsions:
REMARK  status: ('A' for Active; 'I' for Inactive)
REMARK    1  A    between atoms: C_1  and  C_2
REMARK    2  A    between atoms: C_2  and  C_3
REMARK    3  A    between atoms: C_2  and  C_4
REMARK    4  A    between atoms: C_4  and  C_5
REMARK    5  A    between atoms: C_5  and  N_6
REMARK    6  A    between atoms: C_10  and  N_12
REMARK    7  A    between atoms: N_12  and  C_13
REMARK                            x       y       z     vdW  Elec       q    Type
REMARK                         _______ _______ _______ _____ _____    ______ ____
ROOT
ATOM      1  N   UNL     1       0.669  -0.610   3.687  0.00  0.00    +0.381 N 
ATOM      2  C   UNL     1       0.696  -2.078   3.673  0.00  0.00    -0.079 C 
ATOM      3  C   UNL     1       1.504  -2.588   4.868  0.00  0.00    -0.017 C 
ATOM      4  C   UNL     1       0.852  -2.100   6.165  0.00  0.00    +0.018 C 
ATOM      5  C   UNL     1       0.762  -0.572   6.136  0.00  0.00    +0.054 C 
ATOM      6  C   UNL     1      -0.019  -0.136   4.894  0.00  0.00    -0.056 C 
ATOM      7  H   UNL     1       1.615  -0.259   3.680  0.00  0.00    -0.082 HD
ENDROOT
BRANCH   5   8
ATOM      8  N   UNL     1       0.072  -0.100   7.339  0.00  0.00    -0.343 N 
ATOM      9  H   UNL     1      -0.882   0.075   7.313  0.00  0.00    +0.146 HD
BRANCH   8  10
ATOM     10  C   UNL     1       0.788   0.100   8.524  0.00  0.00    +0.028 A 
ATOM     11  C   UNL     1       2.168  -0.152   8.540  0.00  0.00    +0.025 A 
ATOM     12  C   UNL     1       2.912   0.024   9.659  0.00  0.00    +0.032 A 
ATOM     13  C   UNL     1       2.294   0.472  10.846  0.00  0.00    +0.093 A 
ATOM     14  C   UNL     1       0.848   0.738  10.832  0.00  0.00    +0.021 A 
ATOM     15  C   UNL     1       0.131   0.539   9.633  0.00  0.00    +0.034 A 
ATOM     16  C   UNL     1       0.515   1.158  12.107  0.00  0.00    +0.113 A 
ATOM     17  N   UNL     1       1.634   1.157  12.846  0.00  0.00    -0.284 N 
ATOM     18  N   UNL     1       2.719   0.737  12.069  0.00  0.00    -0.174 NA
ATOM     19  H   UNL     1       1.683   1.411  13.781  0.00  0.00    +0.188 HD
ENDBRANCH   8  10
ENDBRANCH   5   8
BRANCH   1  20
ATOM     20  C   UNL     1      -0.042  -0.124   2.497  0.00  0.00    -0.078 C 
BRANCH  20  21
ATOM     21  C   UNL     1       0.742  -0.511   1.242  0.00  0.00    -0.016 C 
BRANCH  21  23
ATOM     22  C   UNL     1      -0.019   1.526   0.010  0.00  0.00    +0.007 C 
ATOM     23  C   UNL     1       0.002  -0.004   0.002  0.00  0.00    -0.019 C 
ATOM     24  C   UNL     1       0.718  -0.497  -1.257  0.00  0.00    +0.007 C 
ENDBRANCH  21  23
ENDBRANCH  20  21
ENDBRANCH   1  20
TORSDOF 5
