REMARK  Name = CHEMBL575741
REMARK  2 active torsions:
REMARK  status: ('A' for Active; 'I' for Inactive)
REMARK    1  A    between atoms: C_8  and  N_10
REMARK    2  A    between atoms: N_23  and  C_24
REMARK                            x       y       z     vdW  Elec       q    Type
REMARK                         _______ _______ _______ _____ _____    ______ ____
ROOT
ATOM      1  N   UNL     1       4.041  -2.950   0.451  0.00  0.00    -0.310 N 
ATOM      2  C   UNL     1       5.017  -3.685  -0.191  0.00  0.00    +0.221 A 
ATOM      3  N   UNL     1       5.373  -3.376  -1.434  0.00  0.00    -0.181 NA
ATOM      4  C   UNL     1       6.313  -4.083  -2.052  0.00  0.00    +0.225 A 
ATOM      5  N   UNL     1       6.898  -5.101  -1.427  0.00  0.00    -0.181 NA
ATOM      6  C   UNL     1       6.542  -5.410  -0.184  0.00  0.00    +0.224 A 
ATOM      7  N   UNL     1       5.605  -4.699   0.436  0.00  0.00    -0.181 NA
ATOM      8  N   UNL     1       7.148  -6.466   0.465  0.00  0.00    -0.303 N 
ATOM      9  C   UNL     1       6.766  -6.831   1.838  0.00  0.00    +0.089 C 
ATOM     10  C   UNL     1       6.478  -8.335   1.879  0.00  0.00    -0.063 C 
ATOM     11  N   UNL     1       7.638  -9.069   1.357  0.00  0.00    +0.381 N 
ATOM     12  C   UNL     1       7.840  -8.744  -0.060  0.00  0.00    -0.063 C 
ATOM     13  C   UNL     1       8.191  -7.264  -0.199  0.00  0.00    +0.089 C 
ATOM     14  N   UNL     1       6.683  -3.762  -3.344  0.00  0.00    -0.283 N 
ATOM     15  H   UNL     1       3.784  -3.173   1.359  0.00  0.00    +0.149 HD
ATOM     16  H   UNL     1       8.461  -8.811   1.881  0.00  0.00    -0.086 HD
ATOM     17  H   UNL     1       7.423  -4.225  -3.766  0.00  0.00    +0.155 HD
ATOM     18  H   UNL     1       7.478 -10.061   1.454  0.00  0.00    -0.086 HD
ENDROOT
BRANCH   1  26
ATOM     19  C   UNL     1       0.751   2.087   0.282  0.00  0.00    +0.000 A 
ATOM     20  C   UNL     1       1.982   2.695   0.111  0.00  0.00    +0.000 A 
ATOM     21  C   UNL     1       3.125   1.925   0.026  0.00  0.00    +0.004 A 
ATOM     22  C   UNL     1       3.044   0.545   0.111  0.00  0.00    -0.042 A 
ATOM     23  C   UNL     1       1.814  -0.063   0.282  0.00  0.00    -0.042 A 
ATOM     24  C   UNL     1       0.668   0.711   0.367  0.00  0.00    +0.004 A 
ATOM     25  C   UNL     1       1.990  -1.565   0.345  0.00  0.00    +0.058 C 
ATOM     26  C   UNL     1       3.393  -1.832  -0.240  0.00  0.00    +0.082 C 
ATOM     27  C   UNL     1       4.130  -0.507   0.048  0.00  0.00    +0.058 C 
ENDBRANCH   1  26
BRANCH  14  28
ATOM     28  C   UNL     1       5.992  -2.772  -4.041  0.00  0.00    +0.036 A 
ATOM     29  C   UNL     1       6.646  -1.962  -4.970  0.00  0.00    +0.043 A 
ATOM     30  C   UNL     1       5.926  -0.994  -5.638  0.00  0.00    +0.112 A 
ATOM     31  N   UNL     1       4.637  -0.829  -5.407  0.00  0.00    -0.263 NA
ATOM     32  C   UNL     1       3.983  -1.574  -4.536  0.00  0.00    +0.112 A 
ATOM     33  C   UNL     1       4.629  -2.568  -3.831  0.00  0.00    +0.043 A 
ENDBRANCH  14  28
TORSDOF 2
