REMARK  Name = CHEMBL570126
REMARK  6 active torsions:
REMARK  status: ('A' for Active; 'I' for Inactive)
REMARK    1  A    between atoms: C_1  and  C_2
REMARK    2  A    between atoms: C_8  and  N_12
REMARK    3  A    between atoms: C_16  and  C_19
REMARK    4  A    between atoms: C_20  and  N_24
REMARK    5  A    between atoms: N_21  and  C_22
REMARK    6  A    between atoms: N_24  and  C_25
REMARK                            x       y       z     vdW  Elec       q    Type
REMARK                         _______ _______ _______ _____ _____    ______ ____
ROOT
ATOM      1  N   UNL     1       0.462   0.569   2.712  0.00  0.00    -0.311 N 
ATOM      2  C   UNL     1      -0.233   1.671   2.033  0.00  0.00    +0.125 C 
ATOM      3  C   UNL     1       0.656   2.921   2.092  0.00  0.00    +0.127 C 
ATOM      4  N   UNL     1       1.104   3.112   3.479  0.00  0.00    -0.295 N 
ATOM      5  C   UNL     1       1.798   2.010   4.158  0.00  0.00    +0.090 C 
ATOM      6  C   UNL     1       0.905   0.758   4.100  0.00  0.00    +0.128 C 
ATOM      7  C   UNL     1       2.060   2.389   5.617  0.00  0.00    +0.029 C 
ATOM      8  C   UNL     1       0.879   4.295   4.125  0.00  0.00    +0.218 C 
ATOM      9  N   UNL     1      -0.270   4.928   3.964  0.00  0.00    -0.140 NA
ENDROOT
BRANCH   1  17
ATOM     10  C   UNL     1      -2.404  -0.746   3.369  0.00  0.00    +0.046 C 
ATOM     11  C   UNL     1      -1.647  -1.769   2.561  0.00  0.00    -0.021 A 
ATOM     12  C   UNL     1      -2.089  -2.981   2.188  0.00  0.00    +0.088 A 
ATOM     13  N   UNL     1      -1.119  -3.626   1.464  0.00  0.00    -0.345 N 
ATOM     14  H   UNL     1      -1.206  -4.516   1.087  0.00  0.00    +0.167 HD
ATOM     15  C   UNL     1      -0.012  -2.832   1.352  0.00  0.00    +0.143 A 
ATOM     16  C   UNL     1      -0.293  -1.630   2.028  0.00  0.00    +0.061 A 
ATOM     17  C   UNL     1       0.690  -0.629   2.058  0.00  0.00    +0.134 A 
ATOM     18  N   UNL     1       1.845  -0.860   1.441  0.00  0.00    -0.220 NA
ATOM     19  C   UNL     1       2.066  -2.002   0.815  0.00  0.00    +0.225 A 
ATOM     20  N   UNL     1       1.178  -2.971   0.769  0.00  0.00    -0.218 NA
ENDBRANCH   1  17
BRANCH   9  21
ATOM     21  C   UNL     1      -0.454   6.151   4.519  0.00  0.00    +0.208 C 
ATOM     22  N   UNL     1      -0.608   7.175   4.984  0.00  0.00    -0.169 NA
ENDBRANCH   9  21
BRANCH   8  23
ATOM     23  N   UNL     1       1.843   4.824   4.938  0.00  0.00    -0.182 NA
BRANCH  23  24
ATOM     24  C   UNL     1       3.162   4.929   4.483  0.00  0.00    +0.058 A 
ATOM     25  C   UNL     1       3.457   4.692   3.147  0.00  0.00    +0.025 A 
ATOM     26  C   UNL     1       4.760   4.796   2.700  0.00  0.00    +0.003 A 
ATOM     27  C   UNL     1       5.770   5.135   3.582  0.00  0.00    +0.015 A 
ATOM     28  C   UNL     1       5.479   5.371   4.913  0.00  0.00    +0.020 A 
ATOM     29  C   UNL     1       4.176   5.275   5.365  0.00  0.00    +0.040 A 
ATOM     30 BR   UNL     1       6.864   5.833   6.115  0.00  0.00    -0.050 Br
ENDBRANCH  23  24
ENDBRANCH   8  23
TORSDOF 4
