REMARK  Name = CHEMBL1080279
REMARK  11 active torsions:
REMARK  status: ('A' for Active; 'I' for Inactive)
REMARK    1  A    between atoms: C_1  and  N_2
REMARK    2  A    between atoms: N_2  and  C_3
REMARK    3  A    between atoms: N_2  and  C_4
REMARK    4  A    between atoms: C_4  and  C_5
REMARK    5  A    between atoms: C_5  and  N_6
REMARK    6  A    between atoms: N_6  and  C_7
REMARK    7  A    between atoms: C_7  and  C_8
REMARK    8  A    between atoms: C_12  and  O_14
REMARK    9  A    between atoms: O_14  and  C_15
REMARK   10  A    between atoms: C_16  and  C_18
REMARK   11  A    between atoms: C_23  and  C_27
REMARK                            x       y       z     vdW  Elec       q    Type
REMARK                         _______ _______ _______ _____ _____    ______ ____
ROOT
ATOM      1  N   UNL     1      -2.733  -2.544  -0.111  0.00  0.00    -0.293 N 
ATOM      2  C   UNL     1      -3.319  -2.879   1.055  0.00  0.00    +0.272 C 
ATOM      3  O   UNL     1      -4.459  -3.299   1.064  0.00  0.00    -0.268 OA
ENDROOT
BRANCH   2   4
ATOM      4  C   UNL     1      -2.575  -2.734   2.324  0.00  0.00    +0.164 A 
ATOM      5  N   UNL     1      -1.350  -2.297   2.517  0.00  0.00    -0.234 NA
ATOM      6  C   UNL     1      -0.793  -2.216   3.729  0.00  0.00    +0.079 A 
ATOM      7  C   UNL     1       0.511  -1.765   4.063  0.00  0.00    +0.029 A 
ATOM      8  C   UNL     1       0.933  -1.743   5.351  0.00  0.00    +0.011 A 
ATOM      9  C   UNL     1       0.107  -2.163   6.401  0.00  0.00    -0.014 A 
ATOM     10  C   UNL     1      -1.179  -2.613   6.115  0.00  0.00    +0.025 A 
ATOM     11  C   UNL     1      -1.609  -2.636   4.811  0.00  0.00    +0.040 A 
ATOM     12  S   UNL     1      -3.113  -3.103   3.988  0.00  0.00    -0.063 S 
BRANCH   9  13
ATOM     13  C   UNL     1       0.596  -2.129   7.801  0.00  0.00    +0.019 A 
ATOM     14  C   UNL     1       1.827  -1.708   8.216  0.00  0.00    +0.113 A 
ATOM     15  N   UNL     1       1.871  -1.835   9.557  0.00  0.00    -0.284 N 
ATOM     16  H   UNL     1       2.624  -1.611  10.126  0.00  0.00    +0.188 HD
ATOM     17  N   UNL     1       0.641  -2.347   9.989  0.00  0.00    -0.182 NA
ATOM     18  C   UNL     1      -0.126  -2.519   8.946  0.00  0.00    +0.142 A 
ENDBRANCH   9  13
ENDBRANCH   2   4
BRANCH   1  19
ATOM     19  C   UNL     1      -1.358  -2.037  -0.122  0.00  0.00    +0.090 C 
BRANCH  19  20
ATOM     20  C   UNL     1      -1.376  -0.512   0.012  0.00  0.00    -0.060 C 
BRANCH  20  22
ATOM     21  C   UNL     1      -0.018   1.465   0.010  0.00  0.00    -0.097 C 
ATOM     22  N   UNL     1       0.002  -0.004   0.002  0.00  0.00    +0.377 N 
ATOM     23  C   UNL     1       0.713  -0.491   1.192  0.00  0.00    -0.097 C 
ATOM     24  H   UNL     1       0.474  -0.330  -0.828  0.00  0.00    -0.083 HD
ENDBRANCH  20  22
ENDBRANCH  19  20
ENDBRANCH   1  19
BRANCH   1  25
ATOM     25  C   UNL     1      -3.470  -2.687  -1.369  0.00  0.00    +0.143 C 
BRANCH  25  26
ATOM     26  C   UNL     1      -3.235  -4.063  -1.936  0.00  0.00    -0.027 A 
ATOM     27  C   UNL     1      -2.174  -4.284  -2.795  0.00  0.00    +0.005 A 
ATOM     28  C   UNL     1      -1.955  -5.545  -3.317  0.00  0.00    +0.004 A 
ATOM     29  C   UNL     1      -2.796  -6.588  -2.981  0.00  0.00    +0.045 A 
ATOM     30  C   UNL     1      -3.861  -6.369  -2.120  0.00  0.00    +0.120 A 
ATOM     31  C   UNL     1      -4.075  -5.104  -1.593  0.00  0.00    +0.050 A 
BRANCH  30  32
ATOM     32  O   UNL     1      -4.690  -7.394  -1.788  0.00  0.00    -0.495 OA
ATOM     33  C   UNL     1      -4.406  -8.671  -2.364  0.00  0.00    +0.277 C 
ENDBRANCH  30  32
ENDBRANCH  25  26
ENDBRANCH   1  25
TORSDOF 8
