REMARK  Name = CHEMBL483574
REMARK  7 active torsions:
REMARK  status: ('A' for Active; 'I' for Inactive)
REMARK    1  A    between atoms: C_1  and  C_2
REMARK    2  A    between atoms: C_3  and  C_24
REMARK    3  A    between atoms: C_4  and  C_16
REMARK    4  A    between atoms: C_6  and  C_8
REMARK    5  A    between atoms: C_11  and  O_14
REMARK    6  A    between atoms: O_14  and  C_15
REMARK    7  A    between atoms: N_26  and  C_27
REMARK                            x       y       z     vdW  Elec       q    Type
REMARK                         _______ _______ _______ _____ _____    ______ ____
ROOT
ATOM      1  C   UNL     1      -0.835   1.194  -1.716  0.00  0.00    +0.061 C 
ATOM      2  C   UNL     1      -0.542  -0.011  -0.861  0.00  0.00    +0.017 C 
ATOM      3  C   UNL     1      -1.520  -0.890  -0.573  0.00  0.00    +0.058 C 
ATOM      4  C   UNL     1      -1.252  -2.092   0.287  0.00  0.00    +0.150 C 
ATOM      5  N   UNL     1       0.178  -2.352   0.401  0.00  0.00    -0.361 N 
ATOM      6  C   UNL     1       1.076  -1.469   0.097  0.00  0.00    +0.106 C 
ATOM      7  N   UNL     1       0.724  -0.222  -0.376  0.00  0.00    -0.304 N 
ATOM      8  H   UNL     1       1.368   0.503  -0.363  0.00  0.00    +0.153 HD
ATOM      9  H   UNL     1       0.469  -3.221   0.719  0.00  0.00    +0.162 HD
ENDROOT
BRANCH   4  10
ATOM     10  C   UNL     1      -1.822  -1.854   1.661  0.00  0.00    +0.015 A 
ATOM     11  C   UNL     1      -1.887  -0.570   2.169  0.00  0.00    +0.010 A 
ATOM     12  C   UNL     1      -2.409  -0.351   3.430  0.00  0.00    +0.020 A 
ATOM     13  C   UNL     1      -2.869  -1.416   4.184  0.00  0.00    +0.044 A 
ATOM     14  C   UNL     1      -2.806  -2.701   3.677  0.00  0.00    +0.058 A 
ATOM     15  C   UNL     1      -2.287  -2.920   2.412  0.00  0.00    +0.130 A 
ATOM     16  F   UNL     1      -2.228  -4.175   1.914  0.00  0.00    -0.205 F 
ATOM     17 CL   UNL     1      -3.525  -1.139   5.767  0.00  0.00    -0.083 Cl
ENDBRANCH   4  10
BRANCH   6  18
ATOM     18  C   UNL     1       2.507  -1.806   0.255  0.00  0.00    +0.031 A 
ATOM     19  C   UNL     1       3.471  -1.220  -0.576  0.00  0.00    +0.018 A 
ATOM     20  C   UNL     1       4.795  -1.566  -0.389  0.00  0.00    +0.068 A 
ATOM     21  C   UNL     1       5.125  -2.476   0.609  0.00  0.00    +0.214 A 
ATOM     22  N   UNL     1       4.191  -3.012   1.378  0.00  0.00    -0.221 NA
ATOM     23  C   UNL     1       2.917  -2.706   1.238  0.00  0.00    +0.126 A 
BRANCH  21  24
ATOM     24  O   UNL     1       6.423  -2.820   0.797  0.00  0.00    -0.480 OA
ATOM     25  C   UNL     1       6.701  -3.759   1.837  0.00  0.00    +0.279 C 
ENDBRANCH  21  24
ENDBRANCH   6  18
BRANCH   3  26
ATOM     26  C   UNL     1      -2.822  -0.678  -1.088  0.00  0.00    +0.248 C 
ATOM     27  O   UNL     1      -3.079   0.351  -1.686  0.00  0.00    -0.270 OA
ATOM     28  N   UNL     1      -3.776  -1.614  -0.916  0.00  0.00    -0.282 N 
ATOM     29  H   UNL     1      -3.568  -2.437  -0.446  0.00  0.00    +0.155 HD
BRANCH  28  30
ATOM     30  C   UNL     1      -5.066  -1.399  -1.416  0.00  0.00    +0.034 A 
ATOM     31  C   UNL     1      -5.559  -0.099  -1.530  0.00  0.00    +0.025 A 
ATOM     32  C   UNL     1      -6.814   0.132  -2.015  0.00  0.00    +0.029 A 
ATOM     33  C   UNL     1      -7.620  -0.936  -2.404  0.00  0.00    +0.066 A 
ATOM     34  C   UNL     1      -7.132  -2.252  -2.293  0.00  0.00    +0.021 A 
ATOM     35  C   UNL     1      -5.842  -2.475  -1.800  0.00  0.00    +0.035 A 
ATOM     36  C   UNL     1      -8.198  -3.126  -2.773  0.00  0.00    +0.142 A 
ATOM     37  N   UNL     1      -9.202  -2.374  -3.125  0.00  0.00    -0.181 NA
ATOM     38  N   UNL     1      -8.889  -1.027  -2.915  0.00  0.00    -0.277 N 
ATOM     39  H   UNL     1      -9.477  -0.278  -3.100  0.00  0.00    +0.189 HD
ENDBRANCH  28  30
ENDBRANCH   3  26
TORSDOF 5
