REMARK  Name = CHEMBL578643
REMARK  3 active torsions:
REMARK  status: ('A' for Active; 'I' for Inactive)
REMARK    1  A    between atoms: C_8  and  N_10
REMARK    2  A    between atoms: C_13  and  N_24
REMARK    3  A    between atoms: N_17  and  C_18
REMARK                            x       y       z     vdW  Elec       q    Type
REMARK                         _______ _______ _______ _____ _____    ______ ____
ROOT
ATOM      1  N   UNL     1       3.530  -3.413   0.309  0.00  0.00    -0.325 N 
ATOM      2  C   UNL     1       4.611  -3.987  -0.341  0.00  0.00    +0.126 A 
ATOM      3  C   UNL     1       5.019  -3.514  -1.585  0.00  0.00    +0.087 A 
ATOM      4  C   UNL     1       6.109  -4.122  -2.199  0.00  0.00    +0.128 A 
ATOM      5  N   UNL     1       6.724  -5.128  -1.581  0.00  0.00    -0.199 NA
ATOM      6  C   UNL     1       6.309  -5.551  -0.397  0.00  0.00    +0.223 A 
ATOM      7  N   UNL     1       5.277  -4.994   0.219  0.00  0.00    -0.199 NA
ATOM      8  N   UNL     1       6.974  -6.601   0.215  0.00  0.00    -0.283 N 
ATOM      9  H   UNL     1       3.254  -3.744   1.178  0.00  0.00    +0.148 HD
ATOM     10  H   UNL     1       7.782  -6.962  -0.183  0.00  0.00    +0.155 HD
ENDROOT
BRANCH   1  18
ATOM     11  C   UNL     1      -0.251   1.269   0.398  0.00  0.00    +0.000 A 
ATOM     12  C   UNL     1       0.916   2.008   0.353  0.00  0.00    +0.000 A 
ATOM     13  C   UNL     1       2.136   1.366   0.266  0.00  0.00    +0.004 A 
ATOM     14  C   UNL     1       2.194  -0.017   0.224  0.00  0.00    -0.042 A 
ATOM     15  C   UNL     1       1.027  -0.756   0.269  0.00  0.00    -0.042 A 
ATOM     16  C   UNL     1      -0.195  -0.110   0.357  0.00  0.00    +0.004 A 
ATOM     17  C   UNL     1       1.354  -2.233   0.209  0.00  0.00    +0.058 C 
ATOM     18  C   UNL     1       2.804  -2.304  -0.316  0.00  0.00    +0.080 C 
ATOM     19  C   UNL     1       3.385  -0.946   0.130  0.00  0.00    +0.058 C 
ENDBRANCH   1  18
BRANCH   4  20
ATOM     20  N   UNL     1       6.550  -3.685  -3.439  0.00  0.00    -0.319 N 
ATOM     21  C   UNL     1       7.702  -4.319  -4.099  0.00  0.00    +0.087 C 
ATOM     22  C   UNL     1       7.303  -4.677  -5.534  0.00  0.00    -0.063 C 
ATOM     23  N   UNL     1       6.799  -3.478  -6.215  0.00  0.00    +0.381 N 
ATOM     24  C   UNL     1       5.566  -3.015  -5.566  0.00  0.00    -0.063 C 
ATOM     25  C   UNL     1       5.876  -2.578  -4.135  0.00  0.00    +0.087 C 
ATOM     26  H   UNL     1       7.496  -2.749  -6.169  0.00  0.00    -0.086 HD
ATOM     27  H   UNL     1       6.608  -3.696  -7.181  0.00  0.00    -0.086 HD
ENDBRANCH   4  20
BRANCH   8  28
ATOM     28  C   UNL     1       6.482  -7.140   1.403  0.00  0.00    +0.036 A 
ATOM     29  C   UNL     1       5.110  -7.217   1.639  0.00  0.00    +0.043 A 
ATOM     30  C   UNL     1       4.664  -7.757   2.827  0.00  0.00    +0.112 A 
ATOM     31  N   UNL     1       5.517  -8.196   3.733  0.00  0.00    -0.263 NA
ATOM     32  C   UNL     1       6.823  -8.140   3.547  0.00  0.00    +0.112 A 
ATOM     33  C   UNL     1       7.349  -7.620   2.383  0.00  0.00    +0.043 A 
ENDBRANCH   8  28
TORSDOF 3
