REMARK  Name = CHEMBL1083072
REMARK  5 active torsions:
REMARK  status: ('A' for Active; 'I' for Inactive)
REMARK    1  A    between atoms: C_1  and  C_2
REMARK    2  A    between atoms: C_5  and  N_18
REMARK    3  A    between atoms: C_10  and  C_11
REMARK    4  A    between atoms: N_18  and  C_19
REMARK    5  A    between atoms: C_23  and  O_25
REMARK                            x       y       z     vdW  Elec       q    Type
REMARK                         _______ _______ _______ _____ _____    ______ ____
ROOT
ATOM      1  C   UNL     1      -0.465   1.658  -0.077  0.00  0.00    +0.045 C 
ATOM      2  C   UNL     1      -0.409   0.153  -0.033  0.00  0.00    -0.026 A 
ATOM      3  C   UNL     1      -0.288  -0.616  -1.258  0.00  0.00    -0.006 A 
ATOM      4  C   UNL     1      -0.208  -0.143  -2.592  0.00  0.00    +0.032 A 
ATOM      5  C   UNL     1      -0.095  -1.026  -3.641  0.00  0.00    +0.032 A 
ATOM      6  C   UNL     1      -0.057  -2.403  -3.425  0.00  0.00    +0.024 A 
ATOM      7  C   UNL     1      -0.133  -2.892  -2.138  0.00  0.00    +0.017 A 
ATOM      8  C   UNL     1      -0.246  -2.016  -1.078  0.00  0.00    +0.020 A 
ATOM      9  S   UNL     1      -0.369  -2.219   0.681  0.00  0.00    -0.086 S 
ATOM     10  C   UNL     1      -0.467  -0.503   1.152  0.00  0.00    +0.042 A 
ENDROOT
BRANCH  10  11
ATOM     11  C   UNL     1      -0.584   0.068   2.509  0.00  0.00    +0.083 A 
ATOM     12  C   UNL     1      -0.623  -0.768   3.632  0.00  0.00    +0.049 A 
ATOM     13  C   UNL     1      -0.733  -0.187   4.881  0.00  0.00    +0.116 A 
ATOM     14  N   UNL     1      -0.796   1.132   4.980  0.00  0.00    -0.223 NA
ATOM     15  C   UNL     1      -0.756   1.901   3.901  0.00  0.00    +0.213 A 
ATOM     16  N   UNL     1      -0.647   1.388   2.686  0.00  0.00    -0.214 NA
ATOM     17  N   UNL     1      -0.826   3.275   4.049  0.00  0.00    -0.327 N 
ATOM     18  H   UNL     1      -0.903   3.664   4.934  0.00  0.00    +0.145 HD
ATOM     19  H   UNL     1      -0.798   3.849   3.268  0.00  0.00    +0.145 HD
ENDBRANCH  10  11
BRANCH   5  20
ATOM     20  N   UNL     1      -0.018  -0.532  -4.948  0.00  0.00    -0.314 N 
ATOM     21  H   UNL     1       0.387   0.333  -5.117  0.00  0.00    +0.152 HD
BRANCH  20  22
ATOM     22  C   UNL     1      -0.525  -1.286  -6.010  0.00  0.00    +0.035 A 
ATOM     23  C   UNL     1      -1.604  -2.138  -5.806  0.00  0.00    +0.023 A 
ATOM     24  C   UNL     1      -2.104  -2.883  -6.856  0.00  0.00    +0.005 A 
ATOM     25  C   UNL     1      -1.535  -2.783  -8.111  0.00  0.00    +0.045 A 
ATOM     26  C   UNL     1      -0.458  -1.933  -8.321  0.00  0.00    +0.119 A 
ATOM     27  C   UNL     1       0.044  -1.180  -7.271  0.00  0.00    +0.068 A 
BRANCH  26  28
ATOM     28  O   UNL     1       0.101  -1.836  -9.556  0.00  0.00    -0.507 OA
ATOM     29  H   UNL     1      -0.294  -1.152 -10.114  0.00  0.00    +0.292 HD
ENDBRANCH  26  28
ENDBRANCH  20  22
ENDBRANCH   5  20
TORSDOF 4
