REMARK  Name = CHEMBL224533
REMARK  4 active torsions:
REMARK  status: ('A' for Active; 'I' for Inactive)
REMARK    1  A    between atoms: C_6  and  N_7
REMARK    2  A    between atoms: N_7  and  C_8
REMARK    3  A    between atoms: N_12  and  C_14
REMARK    4  A    between atoms: C_14  and  C_15
REMARK                            x       y       z     vdW  Elec       q    Type
REMARK                         _______ _______ _______ _____ _____    ______ ____
ROOT
ATOM      1  C   UNL     1      -2.478   0.029   0.027  0.00  0.00    +0.054 C 
ATOM      2  C   UNL     1      -2.846   0.381   1.471  0.00  0.00    +0.018 C 
ATOM      3  C   UNL     1      -3.061  -0.912   2.263  0.00  0.00    -0.017 C 
ATOM      4  C   UNL     1      -4.141  -1.751   1.577  0.00  0.00    -0.078 C 
ATOM      5  N   UNL     1      -3.719  -2.076   0.209  0.00  0.00    +0.384 N 
ATOM      6  C   UNL     1      -3.580  -0.844  -0.576  0.00  0.00    -0.056 C 
ATOM      7  H   UNL     1      -2.832  -2.557   0.238  0.00  0.00    -0.081 HD
ENDROOT
BRANCH   1   8
ATOM      8  N   UNL     1      -1.210  -0.704   0.010  0.00  0.00    -0.343 N 
ATOM      9  H   UNL     1      -1.210  -1.673   0.005  0.00  0.00    +0.146 HD
BRANCH   8  15
ATOM     10  C   UNL     1      -0.017   1.398   0.010  0.00  0.00    +0.025 A 
ATOM     11  C   UNL     1       1.125   2.127   0.003  0.00  0.00    +0.032 A 
ATOM     12  C   UNL     1       2.375   1.470  -0.013  0.00  0.00    +0.093 A 
ATOM     13  C   UNL     1       2.398  -0.001  -0.021  0.00  0.00    +0.021 A 
ATOM     14  C   UNL     1       1.172  -0.701  -0.013  0.00  0.00    +0.034 A 
ATOM     15  C   UNL     1       0.002  -0.004   0.002  0.00  0.00    +0.028 A 
ATOM     16  C   UNL     1       3.730  -0.371  -0.036  0.00  0.00    +0.113 A 
ATOM     17  N   UNL     1       4.469   0.748  -0.037  0.00  0.00    -0.284 N 
ATOM     18  N   UNL     1       3.634   1.871  -0.023  0.00  0.00    -0.174 NA
ATOM     19  H   UNL     1       5.439   0.775  -0.045  0.00  0.00    +0.188 HD
ENDBRANCH   8  15
ENDBRANCH   1   8
BRANCH   5  20
ATOM     20  C   UNL     1      -4.723  -2.946  -0.418  0.00  0.00    -0.043 C 
BRANCH  20  21
ATOM     21  C   UNL     1      -4.771  -4.264   0.310  0.00  0.00    -0.061 A 
ATOM     22  C   UNL     1      -3.957  -5.318  -0.075  0.00  0.00    +0.021 A 
ATOM     23  C   UNL     1      -4.029  -6.513   0.616  0.00  0.00    +0.111 A 
ATOM     24  N   UNL     1      -4.859  -6.656   1.630  0.00  0.00    -0.263 NA
ATOM     25  C   UNL     1      -5.649  -5.676   2.023  0.00  0.00    +0.111 A 
ATOM     26  C   UNL     1      -5.627  -4.451   1.384  0.00  0.00    +0.021 A 
ENDBRANCH  20  21
ENDBRANCH   5  20
TORSDOF 4
