REMARK  Name = CHEMBL473080
REMARK  6 active torsions:
REMARK  status: ('A' for Active; 'I' for Inactive)
REMARK    1  A    between atoms: C_3  and  S_17
REMARK    2  A    between atoms: C_6  and  C_7
REMARK    3  A    between atoms: S_17  and  N_20
REMARK    4  A    between atoms: N_20  and  C_21
REMARK    5  A    between atoms: C_21  and  C_22
REMARK    6  A    between atoms: C_22  and  N_23
REMARK                            x       y       z     vdW  Elec       q    Type
REMARK                         _______ _______ _______ _____ _____    ______ ____
ROOT
ATOM      1  C   UNL     1      -0.017   1.390   0.010  0.00  0.00    +0.010 A 
ATOM      2  C   UNL     1       1.170   2.094   0.002  0.00  0.00    +0.029 A 
ATOM      3  C   UNL     1       2.378   1.418  -0.013  0.00  0.00    +0.105 A 
ATOM      4  C   UNL     1       2.403   0.035  -0.021  0.00  0.00    +0.029 A 
ATOM      5  C   UNL     1       1.222  -0.679  -0.014  0.00  0.00    +0.010 A 
ATOM      6  C   UNL     1       0.002  -0.004   0.002  0.00  0.00    -0.017 A 
ENDROOT
BRANCH   6   7
ATOM      7  C   UNL     1      -1.269  -0.765   0.011  0.00  0.00    -0.006 A 
ATOM      8  C   UNL     1      -2.275  -0.478   0.933  0.00  0.00    +0.029 A 
ATOM      9  C   UNL     1      -3.446  -1.212   0.907  0.00  0.00    +0.114 A 
ATOM     10  N   UNL     1      -3.639  -2.178   0.033  0.00  0.00    -0.237 NA
ATOM     11  C   UNL     1      -2.722  -2.501  -0.871  0.00  0.00    +0.139 A 
ATOM     12  C   UNL     1      -1.504  -1.798  -0.915  0.00  0.00    +0.026 A 
ATOM     13  C   UNL     1      -0.733  -2.384  -2.010  0.00  0.00    +0.029 A 
ATOM     14  C   UNL     1      -1.490  -3.356  -2.544  0.00  0.00    +0.085 A 
ATOM     15  N   UNL     1      -2.678  -3.444  -1.869  0.00  0.00    -0.346 N 
ATOM     16  H   UNL     1      -3.388  -4.072  -2.073  0.00  0.00    +0.167 HD
ENDBRANCH   6   7
BRANCH   3  17
ATOM     17  S   UNL     1       3.889   2.323  -0.023  0.00  0.00    +0.058 S 
ATOM     18  O   UNL     1       4.872   1.466  -0.588  0.00  0.00    -0.153 OA
ATOM     19  O   UNL     1       3.593   3.603  -0.564  0.00  0.00    -0.153 OA
BRANCH  17  20
ATOM     20  N   UNL     1       4.324   2.566   1.557  0.00  0.00    -0.192 NA
ATOM     21  H   UNL     1       4.351   3.466   1.920  0.00  0.00    +0.148 HD
BRANCH  20  22
ATOM     22  C   UNL     1       4.670   1.423   2.405  0.00  0.00    +0.086 C 
BRANCH  22  23
ATOM     23  C   UNL     1       5.380   1.921   3.666  0.00  0.00    -0.069 C 
BRANCH  23  24
ATOM     24  N   UNL     1       5.727   0.774   4.517  0.00  0.00    +0.379 N 
ATOM     25  H   UNL     1       4.885   0.282   4.777  0.00  0.00    -0.090 HD
ATOM     26  H   UNL     1       6.337   0.151   4.010  0.00  0.00    -0.090 HD
ATOM     27  H   UNL     1       6.195   1.102   5.348  0.00  0.00    -0.090 HD
ENDBRANCH  23  24
ENDBRANCH  22  23
ENDBRANCH  20  22
ENDBRANCH  17  20
ENDBRANCH   3  17
TORSDOF 6
