REMARK  Name = CHEMBL520828
REMARK  7 active torsions:
REMARK  status: ('A' for Active; 'I' for Inactive)
REMARK    1  A    between atoms: C_1  and  C_2
REMARK    2  A    between atoms: C_4  and  C_16
REMARK    3  A    between atoms: C_6  and  C_8
REMARK    4  A    between atoms: C_11  and  O_14
REMARK    5  A    between atoms: O_14  and  C_15
REMARK    6  A    between atoms: C_24  and  N_26
REMARK    7  A    between atoms: N_26  and  C_27
REMARK                            x       y       z     vdW  Elec       q    Type
REMARK                         _______ _______ _______ _____ _____    ______ ____
ROOT
ATOM      1  C   UNL     1      -0.360   1.642   0.855  0.00  0.00    +0.066 C 
ATOM      2  C   UNL     1      -0.265   0.148   0.683  0.00  0.00    +0.051 C 
ATOM      3  C   UNL     1      -1.416  -0.593   0.396  0.00  0.00    +0.064 C 
ATOM      4  C   UNL     1      -1.242  -2.092   0.235  0.00  0.00    +0.177 C 
ATOM      5  N   UNL     1       0.127  -2.612   0.401  0.00  0.00    -0.252 NA
ATOM      6  C   UNL     1       1.091  -1.767   0.670  0.00  0.00    +0.156 C 
ATOM      7  N   UNL     1       0.899  -0.450   0.799  0.00  0.00    -0.232 NA
ATOM      8  C   UNL     1      -2.650   0.010   0.264  0.00  0.00    +0.248 C 
ATOM      9  O   UNL     1      -3.757  -0.746   0.110  0.00  0.00    -0.270 OA
ENDROOT
BRANCH   4  10
ATOM     10  C   UNL     1      -2.128  -2.777   1.244  0.00  0.00    +0.017 A 
ATOM     11  C   UNL     1      -3.286  -3.408   0.831  0.00  0.00    +0.010 A 
ATOM     12  C   UNL     1      -4.099  -4.036   1.755  0.00  0.00    +0.020 A 
ATOM     13  C   UNL     1      -3.754  -4.035   3.095  0.00  0.00    +0.044 A 
ATOM     14  C   UNL     1      -2.595  -3.405   3.510  0.00  0.00    +0.058 A 
ATOM     15  C   UNL     1      -1.778  -2.780   2.584  0.00  0.00    +0.130 A 
ATOM     16  F   UNL     1      -0.643  -2.168   2.987  0.00  0.00    -0.205 F 
ATOM     17 CL   UNL     1      -4.776  -4.824   4.255  0.00  0.00    -0.083 Cl
ENDBRANCH   4  10
BRANCH   6  18
ATOM     18  C   UNL     1       2.465  -2.297   0.834  0.00  0.00    +0.019 A 
ATOM     19  C   UNL     1       2.708  -3.664   0.696  0.00  0.00    +0.015 A 
ATOM     20  C   UNL     1       3.987  -4.154   0.850  0.00  0.00    +0.046 A 
ATOM     21  C   UNL     1       5.033  -3.288   1.141  0.00  0.00    +0.120 A 
ATOM     22  C   UNL     1       4.795  -1.927   1.278  0.00  0.00    +0.046 A 
ATOM     23  C   UNL     1       3.519  -1.430   1.121  0.00  0.00    +0.015 A 
BRANCH  21  24
ATOM     24  O   UNL     1       6.292  -3.774   1.291  0.00  0.00    -0.495 OA
ATOM     25  C   UNL     1       7.321  -2.829   1.590  0.00  0.00    +0.277 C 
ENDBRANCH  21  24
ENDBRANCH   6  18
BRANCH   8  26
ATOM     26  N   UNL     1      -2.751   1.374   0.291  0.00  0.00    -0.282 N 
ATOM     27  H   UNL     1      -2.261   1.909  -0.353  0.00  0.00    +0.155 HD
BRANCH  26  28
ATOM     28  C   UNL     1      -3.561   1.997   1.248  0.00  0.00    +0.034 A 
ATOM     29  C   UNL     1      -4.158   1.236   2.254  0.00  0.00    +0.025 A 
ATOM     30  C   UNL     1      -4.952   1.824   3.196  0.00  0.00    +0.029 A 
ATOM     31  C   UNL     1      -5.174   3.199   3.162  0.00  0.00    +0.066 A 
ATOM     32  C   UNL     1      -4.576   3.977   2.152  0.00  0.00    +0.021 A 
ATOM     33  C   UNL     1      -3.760   3.362   1.195  0.00  0.00    +0.035 A 
ATOM     34  C   UNL     1      -4.997   5.354   2.390  0.00  0.00    +0.142 A 
ATOM     35  N   UNL     1      -5.766   5.359   3.441  0.00  0.00    -0.181 NA
ATOM     36  N   UNL     1      -5.900   4.061   3.944  0.00  0.00    -0.277 N 
ATOM     37  H   UNL     1      -6.424   3.810   4.722  0.00  0.00    +0.189 HD
ENDBRANCH  26  28
ENDBRANCH   8  26
TORSDOF 5
