REMARK  Name = CHEMBL427085
REMARK  7 active torsions:
REMARK  status: ('A' for Active; 'I' for Inactive)
REMARK    1  A    between atoms: C_1  and  C_2
REMARK    2  A    between atoms: C_2  and  C_3
REMARK    3  A    between atoms: C_2  and  C_4
REMARK    4  A    between atoms: C_4  and  C_5
REMARK    5  A    between atoms: C_5  and  N_6
REMARK    6  A    between atoms: C_10  and  N_12
REMARK    7  A    between atoms: N_12  and  C_13
REMARK                            x       y       z     vdW  Elec       q    Type
REMARK                         _______ _______ _______ _____ _____    ______ ____
ROOT
ATOM      1  N   UNL     1      -2.794  -2.566  -0.111  0.00  0.00    +0.381 N 
ATOM      2  C   UNL     1      -3.406  -2.290   1.194  0.00  0.00    -0.079 C 
ATOM      3  C   UNL     1      -4.867  -2.744   1.183  0.00  0.00    -0.017 C 
ATOM      4  C   UNL     1      -4.926  -4.248   0.898  0.00  0.00    +0.018 C 
ATOM      5  C   UNL     1      -4.219  -4.534  -0.430  0.00  0.00    +0.054 C 
ATOM      6  C   UNL     1      -2.782  -4.013  -0.359  0.00  0.00    -0.056 C 
ATOM      7  H   UNL     1      -3.326  -2.106  -0.834  0.00  0.00    -0.082 HD
ENDROOT
BRANCH   5   8
ATOM      8  N   UNL     1      -4.204  -5.978  -0.675  0.00  0.00    -0.343 N 
ATOM      9  H   UNL     1      -3.432  -6.506  -0.417  0.00  0.00    +0.146 HD
BRANCH   8  10
ATOM     10  C   UNL     1      -5.303  -6.596  -1.282  0.00  0.00    +0.028 A 
ATOM     11  C   UNL     1      -6.410  -5.832  -1.657  0.00  0.00    +0.025 A 
ATOM     12  C   UNL     1      -7.492  -6.416  -2.249  0.00  0.00    +0.029 A 
ATOM     13  C   UNL     1      -7.503  -7.788  -2.487  0.00  0.00    +0.066 A 
ATOM     14  C   UNL     1      -6.392  -8.568  -2.113  0.00  0.00    +0.021 A 
ATOM     15  C   UNL     1      -5.286  -7.957  -1.512  0.00  0.00    +0.034 A 
ATOM     16  C   UNL     1      -6.709  -9.942  -2.491  0.00  0.00    +0.142 A 
ATOM     17  N   UNL     1      -7.894  -9.943  -3.031  0.00  0.00    -0.181 NA
ATOM     18  N   UNL     1      -8.416  -8.646  -3.048  0.00  0.00    -0.277 N 
ATOM     19  H   UNL     1      -9.284  -8.392  -3.400  0.00  0.00    +0.189 HD
ENDBRANCH   8  10
ENDBRANCH   5   8
BRANCH   1  20
ATOM     20  C   UNL     1      -1.416  -2.058  -0.121  0.00  0.00    -0.078 C 
BRANCH  20  21
ATOM     21  C   UNL     1      -1.433  -0.534   0.013  0.00  0.00    -0.016 C 
BRANCH  21  23
ATOM     22  C   UNL     1      -0.019   1.526   0.010  0.00  0.00    +0.007 C 
ATOM     23  C   UNL     1       0.002  -0.004   0.002  0.00  0.00    -0.019 C 
ATOM     24  C   UNL     1       0.742  -0.511   1.242  0.00  0.00    +0.007 C 
ENDBRANCH  21  23
ENDBRANCH  20  21
ENDBRANCH   1  20
TORSDOF 5
