REMARK  Name = CHEMBL485592
REMARK  5 active torsions:
REMARK  status: ('A' for Active; 'I' for Inactive)
REMARK    1  A    between atoms: C_1  and  C_2
REMARK    2  A    between atoms: C_3  and  C_21
REMARK    3  A    between atoms: C_4  and  C_14
REMARK    4  A    between atoms: C_6  and  C_8
REMARK    5  A    between atoms: N_23  and  C_24
REMARK                            x       y       z     vdW  Elec       q    Type
REMARK                         _______ _______ _______ _____ _____    ______ ____
ROOT
ATOM      1  C   UNL     1      -0.018   1.502   0.019  0.00  0.00    +0.061 C 
ATOM      2  C   UNL     1       0.002  -0.004  -0.008  0.00  0.00    +0.017 C 
ATOM      3  C   UNL     1      -1.152  -0.697  -0.009  0.00  0.00    +0.058 C 
ATOM      4  C   UNL     1      -1.153  -2.198  -0.048  0.00  0.00    +0.148 C 
ATOM      5  N   UNL     1       0.156  -2.737   0.299  0.00  0.00    -0.360 N 
ATOM      6  C   UNL     1       1.231  -2.017   0.297  0.00  0.00    +0.123 C 
ATOM      7  N   UNL     1       1.197  -0.678  -0.038  0.00  0.00    -0.303 N 
ATOM      8  H   UNL     1       2.011  -0.215  -0.289  0.00  0.00    +0.153 HD
ATOM      9  H   UNL     1       0.224  -3.673   0.542  0.00  0.00    +0.162 HD
ENDROOT
BRANCH   4  10
ATOM     10  C   UNL     1      -1.523  -2.656  -1.435  0.00  0.00    -0.020 A 
ATOM     11  C   UNL     1      -0.570  -2.666  -2.436  0.00  0.00    +0.009 A 
ATOM     12  C   UNL     1      -0.908  -3.086  -3.709  0.00  0.00    +0.039 A 
ATOM     13  C   UNL     1      -2.202  -3.497  -3.981  0.00  0.00    +0.123 A 
ATOM     14  C   UNL     1      -3.156  -3.486  -2.977  0.00  0.00    +0.039 A 
ATOM     15  C   UNL     1      -2.814  -3.071  -1.704  0.00  0.00    +0.009 A 
ATOM     16  F   UNL     1      -2.534  -3.907  -5.224  0.00  0.00    -0.205 F 
ENDBRANCH   4  10
BRANCH   6  17
ATOM     17  C   UNL     1       2.525  -2.644   0.656  0.00  0.00    +0.102 A 
ATOM     18  C   UNL     1       3.687  -1.876   0.662  0.00  0.00    +0.031 A 
ATOM     19  C   UNL     1       4.889  -2.475   0.999  0.00  0.00    +0.004 A 
ATOM     20  C   UNL     1       4.888  -3.825   1.319  0.00  0.00    +0.020 A 
ATOM     21  C   UNL     1       3.696  -4.528   1.293  0.00  0.00    +0.111 A 
ATOM     22  N   UNL     1       2.567  -3.932   0.974  0.00  0.00    -0.252 NA
ENDBRANCH   6  17
BRANCH   3  23
ATOM     23  C   UNL     1      -2.384   0.001   0.028  0.00  0.00    +0.248 C 
ATOM     24  O   UNL     1      -2.393   1.218   0.060  0.00  0.00    -0.270 OA
ATOM     25  N   UNL     1      -3.546  -0.682   0.027  0.00  0.00    -0.282 N 
ATOM     26  H   UNL     1      -3.540  -1.648  -0.061  0.00  0.00    +0.155 HD
BRANCH  25  27
ATOM     27  C   UNL     1      -4.761   0.003   0.154  0.00  0.00    +0.034 A 
ATOM     28  C   UNL     1      -4.912   1.262  -0.428  0.00  0.00    +0.025 A 
ATOM     29  C   UNL     1      -6.088   1.946  -0.316  0.00  0.00    +0.029 A 
ATOM     30  C   UNL     1      -7.155   1.389   0.385  0.00  0.00    +0.066 A 
ATOM     31  C   UNL     1      -7.014   0.119   0.976  0.00  0.00    +0.021 A 
ATOM     32  C   UNL     1      -5.804  -0.574   0.850  0.00  0.00    +0.035 A 
ATOM     33  C   UNL     1      -8.287  -0.176   1.625  0.00  0.00    +0.142 A 
ATOM     34  N   UNL     1      -9.082   0.835   1.421  0.00  0.00    -0.181 NA
ATOM     35  N   UNL     1      -8.429   1.815   0.666  0.00  0.00    -0.277 N 
ATOM     36  H   UNL     1      -8.815   2.660   0.387  0.00  0.00    +0.189 HD
ENDBRANCH  25  27
ENDBRANCH   3  23
TORSDOF 4
