REMARK  Name = CHEMBL599162
REMARK  4 active torsions:
REMARK  status: ('A' for Active; 'I' for Inactive)
REMARK    1  A    between atoms: C_7  and  C_11
REMARK    2  A    between atoms: C_14  and  N_24
REMARK    3  A    between atoms: C_15  and  N_17
REMARK    4  A    between atoms: C_20  and  N_23
REMARK                            x       y       z     vdW  Elec       q    Type
REMARK                         _______ _______ _______ _____ _____    ______ ____
ROOT
ATOM      1  C   UNL     1      -2.423  -0.620   0.119  0.00  0.00    +0.092 A 
ATOM      2  C   UNL     1      -2.848   0.704   0.170  0.00  0.00    +0.141 A 
ATOM      3  N   UNL     1      -4.136   0.992   0.084  0.00  0.00    -0.235 NA
ATOM      4  C   UNL     1      -5.026   0.021  -0.050  0.00  0.00    +0.162 A 
ATOM      5  C   UNL     1      -4.603  -1.316  -0.101  0.00  0.00    +0.162 A 
ATOM      6  N   UNL     1      -3.314  -1.602  -0.021  0.00  0.00    -0.227 NA
ENDROOT
BRANCH   1  13
ATOM      7  C   UNL     1      -1.195  -3.573   0.253  0.00  0.00    +0.029 A 
ATOM      8  C   UNL     1      -0.229  -4.504   0.331  0.00  0.00    +0.085 A 
ATOM      9  N   UNL     1       0.997  -3.897   0.394  0.00  0.00    -0.346 N 
ATOM     10  H   UNL     1       1.846  -4.363   0.456  0.00  0.00    +0.167 HD
ATOM     11  C   UNL     1       0.848  -2.531   0.358  0.00  0.00    +0.139 A 
ATOM     12  C   UNL     1      -0.532  -2.271   0.268  0.00  0.00    +0.028 A 
ATOM     13  C   UNL     1      -0.980  -0.938   0.215  0.00  0.00    +0.014 A 
ATOM     14  C   UNL     1      -0.020   0.073   0.255  0.00  0.00    +0.030 A 
ATOM     15  C   UNL     1       1.317  -0.268   0.344  0.00  0.00    +0.114 A 
ATOM     16  N   UNL     1       1.710  -1.524   0.392  0.00  0.00    -0.237 NA
ENDBRANCH   1  13
BRANCH   5  17
ATOM     17  N   UNL     1      -5.536  -2.338  -0.242  0.00  0.00    -0.313 N 
ATOM     18  C   UNL     1      -5.911  -2.832  -1.574  0.00  0.00    +0.105 C 
ATOM     19  C   UNL     1      -5.720  -4.352  -1.609  0.00  0.00    +0.003 C 
ATOM     20  C   UNL     1      -6.506  -4.987  -0.459  0.00  0.00    -0.072 C 
ATOM     21  C   UNL     1      -5.972  -4.463   0.876  0.00  0.00    +0.003 C 
ATOM     22  C   UNL     1      -6.162  -2.949   0.939  0.00  0.00    +0.105 C 
BRANCH  20  23
ATOM     23  N   UNL     1      -6.352  -6.447  -0.509  0.00  0.00    +0.380 N 
ATOM     24  H   UNL     1      -5.375  -6.685  -0.421  0.00  0.00    -0.090 HD
ATOM     25  H   UNL     1      -6.870  -6.866   0.249  0.00  0.00    -0.090 HD
ATOM     26  H   UNL     1      -6.704  -6.793  -1.389  0.00  0.00    -0.090 HD
ENDBRANCH  20  23
ENDBRANCH   5  17
BRANCH   4  27
ATOM     27  N   UNL     1      -6.380   0.325  -0.139  0.00  0.00    -0.312 N 
ATOM     28  C   UNL     1      -7.480  -0.650  -0.140  0.00  0.00    +0.106 C 
ATOM     29  C   UNL     1      -8.796   0.143  -0.282  0.00  0.00    +0.020 C 
ATOM     30  C   UNL     1      -8.330   1.478  -0.921  0.00  0.00    +0.020 C 
ATOM     31  C   UNL     1      -6.951   1.681  -0.241  0.00  0.00    +0.106 C 
ENDBRANCH   4  27
TORSDOF 4
