REMARK  Name = CHEMBL485592
REMARK  5 active torsions:
REMARK  status: ('A' for Active; 'I' for Inactive)
REMARK    1  A    between atoms: C_1  and  C_2
REMARK    2  A    between atoms: C_4  and  C_14
REMARK    3  A    between atoms: C_6  and  C_8
REMARK    4  A    between atoms: C_21  and  N_23
REMARK    5  A    between atoms: N_23  and  C_24
REMARK                            x       y       z     vdW  Elec       q    Type
REMARK                         _______ _______ _______ _____ _____    ______ ____
ROOT
ATOM      1  C   UNL     1      -0.012   1.491   0.070  0.00  0.00    +0.066 C 
ATOM      2  C   UNL     1      -0.001  -0.015   0.024  0.00  0.00    +0.051 C 
ATOM      3  C   UNL     1      -1.206  -0.721   0.102  0.00  0.00    +0.064 C 
ATOM      4  C   UNL     1      -1.115  -2.236   0.049  0.00  0.00    +0.174 C 
ATOM      5  N   UNL     1       0.238  -2.804  -0.081  0.00  0.00    -0.251 NA
ATOM      6  C   UNL     1       1.259  -1.988  -0.141  0.00  0.00    +0.175 C 
ATOM      7  N   UNL     1       1.139  -0.657  -0.096  0.00  0.00    -0.231 NA
ATOM      8  C   UNL     1      -2.418  -0.073   0.223  0.00  0.00    +0.248 C 
ATOM      9  O   UNL     1      -3.546  -0.785   0.428  0.00  0.00    -0.270 OA
ENDROOT
BRANCH   4  10
ATOM     10  C   UNL     1      -1.938  -2.714  -1.120  0.00  0.00    -0.018 A 
ATOM     11  C   UNL     1      -1.417  -2.660  -2.399  0.00  0.00    +0.009 A 
ATOM     12  C   UNL     1      -2.170  -3.099  -3.472  0.00  0.00    +0.039 A 
ATOM     13  C   UNL     1      -3.447  -3.592  -3.264  0.00  0.00    +0.123 A 
ATOM     14  C   UNL     1      -3.968  -3.645  -1.982  0.00  0.00    +0.039 A 
ATOM     15  C   UNL     1      -3.210  -3.211  -0.911  0.00  0.00    +0.009 A 
ATOM     16  F   UNL     1      -4.184  -4.021  -4.312  0.00  0.00    -0.205 F 
ENDBRANCH   4  10
BRANCH   6  17
ATOM     17  C   UNL     1       2.619  -2.568  -0.271  0.00  0.00    +0.107 A 
ATOM     18  C   UNL     1       2.776  -3.951  -0.331  0.00  0.00    +0.031 A 
ATOM     19  C   UNL     1       4.051  -4.478  -0.452  0.00  0.00    +0.004 A 
ATOM     20  C   UNL     1       5.126  -3.604  -0.509  0.00  0.00    +0.020 A 
ATOM     21  C   UNL     1       4.896  -2.241  -0.443  0.00  0.00    +0.111 A 
ATOM     22  N   UNL     1       3.673  -1.766  -0.334  0.00  0.00    -0.252 NA
ENDBRANCH   6  17
BRANCH   8  23
ATOM     23  N   UNL     1      -2.476   1.290   0.134  0.00  0.00    -0.282 N 
ATOM     24  H   UNL     1      -2.175   1.737  -0.673  0.00  0.00    +0.155 HD
BRANCH  23  25
ATOM     25  C   UNL     1      -2.970   2.041   1.207  0.00  0.00    +0.034 A 
ATOM     26  C   UNL     1      -3.488   1.392   2.328  0.00  0.00    +0.025 A 
ATOM     27  C   UNL     1      -3.974   2.106   3.385  0.00  0.00    +0.029 A 
ATOM     28  C   UNL     1      -3.958   3.499   3.354  0.00  0.00    +0.066 A 
ATOM     29  C   UNL     1      -3.438   4.164   2.227  0.00  0.00    +0.021 A 
ATOM     30  C   UNL     1      -2.937   3.421   1.152  0.00  0.00    +0.035 A 
ATOM     31  C   UNL     1      -3.562   5.592   2.500  0.00  0.00    +0.142 A 
ATOM     32  N   UNL     1      -4.105   5.727   3.676  0.00  0.00    -0.181 NA
ATOM     33  N   UNL     1      -4.363   4.471   4.233  0.00  0.00    -0.277 N 
ATOM     34  H   UNL     1      -4.764   4.312   5.102  0.00  0.00    +0.189 HD
ENDBRANCH  23  25
ENDBRANCH   8  23
TORSDOF 4
