REMARK  Name = CHEMBL483574
REMARK  7 active torsions:
REMARK  status: ('A' for Active; 'I' for Inactive)
REMARK    1  A    between atoms: C_1  and  C_2
REMARK    2  A    between atoms: C_4  and  C_16
REMARK    3  A    between atoms: C_6  and  C_8
REMARK    4  A    between atoms: C_11  and  O_14
REMARK    5  A    between atoms: O_14  and  C_15
REMARK    6  A    between atoms: C_24  and  N_26
REMARK    7  A    between atoms: N_26  and  C_27
REMARK                            x       y       z     vdW  Elec       q    Type
REMARK                         _______ _______ _______ _____ _____    ______ ____
ROOT
ATOM      1  C   UNL     1      -0.361   1.642   0.856  0.00  0.00    +0.066 C 
ATOM      2  C   UNL     1      -0.266   0.148   0.683  0.00  0.00    +0.051 C 
ATOM      3  C   UNL     1      -1.417  -0.593   0.396  0.00  0.00    +0.064 C 
ATOM      4  C   UNL     1      -1.242  -2.092   0.236  0.00  0.00    +0.177 C 
ATOM      5  N   UNL     1       0.127  -2.611   0.401  0.00  0.00    -0.252 NA
ATOM      6  C   UNL     1       1.091  -1.766   0.670  0.00  0.00    +0.158 C 
ATOM      7  N   UNL     1       0.899  -0.449   0.798  0.00  0.00    -0.232 NA
ATOM      8  C   UNL     1      -2.650   0.009   0.265  0.00  0.00    +0.248 C 
ATOM      9  O   UNL     1      -3.757  -0.747   0.110  0.00  0.00    -0.270 OA
ENDROOT
BRANCH   4  10
ATOM     10  C   UNL     1      -2.127  -2.777   1.245  0.00  0.00    +0.017 A 
ATOM     11  C   UNL     1      -3.286  -3.408   0.832  0.00  0.00    +0.010 A 
ATOM     12  C   UNL     1      -4.098  -4.037   1.756  0.00  0.00    +0.020 A 
ATOM     13  C   UNL     1      -3.753  -4.036   3.096  0.00  0.00    +0.044 A 
ATOM     14  C   UNL     1      -2.594  -3.405   3.511  0.00  0.00    +0.058 A 
ATOM     15  C   UNL     1      -1.778  -2.780   2.584  0.00  0.00    +0.130 A 
ATOM     16  F   UNL     1      -0.643  -2.167   2.988  0.00  0.00    -0.205 F 
ATOM     17 CL   UNL     1      -4.775  -4.825   4.256  0.00  0.00    -0.083 Cl
ENDBRANCH   4  10
BRANCH   6  18
ATOM     18  C   UNL     1       2.465  -2.296   0.835  0.00  0.00    +0.037 A 
ATOM     19  C   UNL     1       3.528  -1.434   1.129  0.00  0.00    +0.018 A 
ATOM     20  C   UNL     1       4.791  -1.974   1.274  0.00  0.00    +0.068 A 
ATOM     21  C   UNL     1       4.964  -3.346   1.124  0.00  0.00    +0.214 A 
ATOM     22  N   UNL     1       3.938  -4.134   0.846  0.00  0.00    -0.221 NA
ATOM     23  C   UNL     1       2.717  -3.660   0.706  0.00  0.00    +0.126 A 
BRANCH  21  24
ATOM     24  O   UNL     1       6.201  -3.883   1.265  0.00  0.00    -0.480 OA
ATOM     25  C   UNL     1       6.316  -5.297   1.099  0.00  0.00    +0.279 C 
ENDBRANCH  21  24
ENDBRANCH   6  18
BRANCH   8  26
ATOM     26  N   UNL     1      -2.752   1.373   0.291  0.00  0.00    -0.282 N 
ATOM     27  H   UNL     1      -2.263   1.909  -0.353  0.00  0.00    +0.155 HD
BRANCH  26  28
ATOM     28  C   UNL     1      -3.562   1.996   1.248  0.00  0.00    +0.034 A 
ATOM     29  C   UNL     1      -4.159   1.235   2.254  0.00  0.00    +0.025 A 
ATOM     30  C   UNL     1      -4.952   1.823   3.196  0.00  0.00    +0.029 A 
ATOM     31  C   UNL     1      -5.175   3.198   3.162  0.00  0.00    +0.066 A 
ATOM     32  C   UNL     1      -4.577   3.975   2.152  0.00  0.00    +0.021 A 
ATOM     33  C   UNL     1      -3.761   3.361   1.195  0.00  0.00    +0.035 A 
ATOM     34  C   UNL     1      -4.999   5.352   2.389  0.00  0.00    +0.142 A 
ATOM     35  N   UNL     1      -5.768   5.358   3.441  0.00  0.00    -0.181 NA
ATOM     36  N   UNL     1      -5.902   4.060   3.945  0.00  0.00    -0.277 N 
ATOM     37  H   UNL     1      -6.424   3.809   4.722  0.00  0.00    +0.189 HD
ENDBRANCH  26  28
ENDBRANCH   8  26
TORSDOF 5
