REMARK  Name = CHEMBL218257
REMARK  5 active torsions:
REMARK  status: ('A' for Active; 'I' for Inactive)
REMARK    1  A    between atoms: C_1  and  C_2
REMARK    2  A    between atoms: C_2  and  N_3
REMARK    3  A    between atoms: C_6  and  O_18
REMARK    4  A    between atoms: C_11  and  C_12
REMARK    5  A    between atoms: O_18  and  C_19
REMARK                            x       y       z     vdW  Elec       q    Type
REMARK                         _______ _______ _______ _____ _____    ______ ____
ROOT
ATOM      1  N   UNL     1      -1.372  -0.511   0.012  0.00  0.00    -0.322 N 
ATOM      2  C   UNL     1      -2.129  -0.794   1.125  0.00  0.00    +0.076 A 
ATOM      3  C   UNL     1      -1.924  -0.724   2.496  0.00  0.00    +0.095 A 
ATOM      4  C   UNL     1      -2.950  -1.106   3.344  0.00  0.00    +0.217 A 
ATOM      5  N   UNL     1      -4.111  -1.533   2.867  0.00  0.00    -0.219 NA
ATOM      6  C   UNL     1      -4.354  -1.617   1.576  0.00  0.00    +0.144 A 
ATOM      7  C   UNL     1      -3.376  -1.253   0.649  0.00  0.00    +0.108 A 
ATOM      8  N   UNL     1      -3.319  -1.227  -0.703  0.00  0.00    -0.224 NA
ATOM      9  C   UNL     1      -2.146  -0.786  -1.086  0.00  0.00    +0.167 A 
ENDROOT
BRANCH   9  10
ATOM     10  C   UNL     1      -1.720  -0.615  -2.492  0.00  0.00    +0.190 A 
ATOM     11  C   UNL     1      -2.535  -0.899  -3.679  0.00  0.00    +0.191 A 
ATOM     12  N   UNL     1      -1.824  -0.628  -4.739  0.00  0.00    -0.033 NA
ATOM     13  O   UNL     1      -0.554  -0.171  -4.308  0.00  0.00    -0.240 OA
ATOM     14  N   UNL     1      -0.552  -0.180  -2.891  0.00  0.00    -0.044 NA
ATOM     15  N   UNL     1      -3.840  -1.374  -3.675  0.00  0.00    -0.339 N 
ATOM     16  H   UNL     1      -4.290  -1.548  -2.834  0.00  0.00    +0.144 HD
ATOM     17  H   UNL     1      -4.301  -1.532  -4.514  0.00  0.00    +0.144 HD
ENDBRANCH   9  10
BRANCH   1  19
ATOM     18  C   UNL     1      -0.019   1.526   0.010  0.00  0.00    +0.027 C 
ATOM     19  C   UNL     1       0.002  -0.004   0.002  0.00  0.00    +0.120 C 
ENDBRANCH   1  19
BRANCH   4  20
ATOM     20  O   UNL     1      -2.763  -1.043   4.688  0.00  0.00    -0.480 OA
ATOM     21  C   UNL     1      -3.856  -1.449   5.514  0.00  0.00    +0.279 C 
ENDBRANCH   4  20
TORSDOF 3
