REMARK  Name = CHEMBL224166
REMARK  4 active torsions:
REMARK  status: ('A' for Active; 'I' for Inactive)
REMARK    1  A    between atoms: C_3  and  C_7
REMARK    2  A    between atoms: C_7  and  N_8
REMARK    3  A    between atoms: C_12  and  N_14
REMARK    4  A    between atoms: N_14  and  C_15
REMARK                            x       y       z     vdW  Elec       q    Type
REMARK                         _______ _______ _______ _____ _____    ______ ____
ROOT
ATOM      1  N   UNL     1       4.117   0.551   1.345  0.00  0.00    +0.385 N 
ATOM      2  C   UNL     1       3.734   1.737   2.119  0.00  0.00    -0.078 C 
ATOM      3  C   UNL     1       4.184   1.571   3.572  0.00  0.00    -0.017 C 
ATOM      4  C   UNL     1       5.706   1.402   3.612  0.00  0.00    +0.018 C 
ATOM      5  C   UNL     1       6.101   0.206   2.742  0.00  0.00    +0.054 C 
ATOM      6  C   UNL     1       5.579   0.423   1.320  0.00  0.00    -0.056 C 
ATOM      7  H   UNL     1       3.716  -0.271   1.772  0.00  0.00    -0.081 HD
ENDROOT
BRANCH   5   8
ATOM      8  N   UNL     1       7.560   0.082   2.714  0.00  0.00    -0.343 N 
ATOM      9  H   UNL     1       8.067   0.481   1.989  0.00  0.00    +0.146 HD
BRANCH   8  10
ATOM     10  C   UNL     1       8.223  -0.612   3.732  0.00  0.00    +0.028 A 
ATOM     11  C   UNL     1       7.490  -1.190   4.770  0.00  0.00    +0.025 A 
ATOM     12  C   UNL     1       8.117  -1.871   5.772  0.00  0.00    +0.029 A 
ATOM     13  C   UNL     1       9.504  -1.996   5.770  0.00  0.00    +0.066 A 
ATOM     14  C   UNL     1      10.254  -1.418   4.728  0.00  0.00    +0.021 A 
ATOM     15  C   UNL     1       9.598  -0.727   3.702  0.00  0.00    +0.034 A 
ATOM     16  C   UNL     1      11.653  -1.722   5.011  0.00  0.00    +0.142 A 
ATOM     17  N   UNL     1      11.695  -2.412   6.115  0.00  0.00    -0.181 NA
ATOM     18  N   UNL     1      10.402  -2.602   6.613  0.00  0.00    -0.277 N 
ATOM     19  H   UNL     1      10.177  -3.084   7.424  0.00  0.00    +0.189 HD
ENDBRANCH   8  10
ENDBRANCH   5   8
BRANCH   1  20
ATOM     20  C   UNL     1       3.614   0.681  -0.029  0.00  0.00    -0.025 C 
BRANCH  20  23
ATOM     21  C   UNL     1      -0.016   1.344   0.009  0.00  0.00    +0.019 A 
ATOM     22  C   UNL     1       1.322   1.784  -0.001  0.00  0.00    +0.020 A 
ATOM     23  C   UNL     1       2.107   0.688  -0.014  0.00  0.00    -0.001 A 
ATOM     24  N   UNL     1       1.303  -0.413  -0.013  0.00  0.00    -0.366 N 
ATOM     25  H   UNL     1       1.606  -1.334  -0.021  0.00  0.00    +0.165 HD
ATOM     26  C   UNL     1       0.002  -0.004   0.002  0.00  0.00    +0.082 A 
ENDBRANCH  20  23
ENDBRANCH   1  20
TORSDOF 4
