REMARK  Name = CHEMBL483396
REMARK  5 active torsions:
REMARK  status: ('A' for Active; 'I' for Inactive)
REMARK    1  A    between atoms: C_1  and  C_2
REMARK    2  A    between atoms: C_4  and  C_14
REMARK    3  A    between atoms: C_6  and  C_8
REMARK    4  A    between atoms: C_21  and  N_23
REMARK    5  A    between atoms: N_23  and  C_24
REMARK                            x       y       z     vdW  Elec       q    Type
REMARK                         _______ _______ _______ _____ _____    ______ ____
ROOT
ATOM      1  C   UNL     1      -0.015   1.491   0.040  0.00  0.00    +0.066 C 
ATOM      2  C   UNL     1      -0.003  -0.016   0.011  0.00  0.00    +0.051 C 
ATOM      3  C   UNL     1      -1.206  -0.722   0.104  0.00  0.00    +0.064 C 
ATOM      4  C   UNL     1      -1.114  -2.236   0.068  0.00  0.00    +0.174 C 
ATOM      5  N   UNL     1       0.239  -2.805  -0.061  0.00  0.00    -0.251 NA
ATOM      6  C   UNL     1       1.258  -1.988  -0.136  0.00  0.00    +0.177 C 
ATOM      7  N   UNL     1       1.138  -0.658  -0.106  0.00  0.00    -0.231 NA
ATOM      8  C   UNL     1      -2.418  -0.073   0.223  0.00  0.00    +0.248 C 
ATOM      9  O   UNL     1      -3.547  -0.784   0.426  0.00  0.00    -0.270 OA
ENDROOT
BRANCH   4  10
ATOM     10  C   UNL     1      -1.729  -2.774   1.334  0.00  0.00    -0.018 A 
ATOM     11  C   UNL     1      -1.003  -2.769   2.511  0.00  0.00    +0.009 A 
ATOM     12  C   UNL     1      -1.566  -3.261   3.673  0.00  0.00    +0.039 A 
ATOM     13  C   UNL     1      -2.858  -3.758   3.659  0.00  0.00    +0.123 A 
ATOM     14  C   UNL     1      -3.585  -3.763   2.480  0.00  0.00    +0.039 A 
ATOM     15  C   UNL     1      -3.021  -3.265   1.320  0.00  0.00    +0.009 A 
ATOM     16  F   UNL     1      -3.409  -4.240   4.794  0.00  0.00    -0.205 F 
ENDBRANCH   4  10
BRANCH   6  17
ATOM     17  C   UNL     1       2.618  -2.570  -0.265  0.00  0.00    +0.125 A 
ATOM     18  C   UNL     1       2.786  -3.953  -0.311  0.00  0.00    +0.142 A 
ATOM     19  N   UNL     1       3.997  -4.465  -0.426  0.00  0.00    -0.260 NA
ATOM     20  C   UNL     1       5.049  -3.668  -0.498  0.00  0.00    +0.130 A 
ATOM     21  C   UNL     1       4.886  -2.293  -0.453  0.00  0.00    +0.131 A 
ATOM     22  N   UNL     1       3.679  -1.773  -0.344  0.00  0.00    -0.249 NA
ENDBRANCH   6  17
BRANCH   8  23
ATOM     23  N   UNL     1      -2.476   1.290   0.134  0.00  0.00    -0.282 N 
ATOM     24  H   UNL     1      -2.174   1.737  -0.673  0.00  0.00    +0.155 HD
BRANCH  23  25
ATOM     25  C   UNL     1      -2.970   2.041   1.206  0.00  0.00    +0.034 A 
ATOM     26  C   UNL     1      -3.487   1.375   2.327  0.00  0.00    +0.025 A 
ATOM     27  C   UNL     1      -3.979   2.051   3.394  0.00  0.00    +0.032 A 
ATOM     28  C   UNL     1      -3.975   3.463   3.390  0.00  0.00    +0.093 A 
ATOM     29  C   UNL     1      -3.433   4.164   2.216  0.00  0.00    +0.021 A 
ATOM     30  C   UNL     1      -2.931   3.401   1.139  0.00  0.00    +0.035 A 
ATOM     31  C   UNL     1      -3.552   5.516   2.478  0.00  0.00    +0.113 A 
ATOM     32  N   UNL     1      -4.111   5.654   3.689  0.00  0.00    -0.284 N 
ATOM     33  N   UNL     1      -4.367   4.394   4.242  0.00  0.00    -0.174 NA
ATOM     34  H   UNL     1      -4.308   6.501   4.119  0.00  0.00    +0.188 HD
ENDBRANCH  23  25
ENDBRANCH   8  23
TORSDOF 4
