REMARK  Name = CHEMBL1215526
REMARK  11 active torsions:
REMARK  status: ('A' for Active; 'I' for Inactive)
REMARK    1  A    between atoms: C_1  and  C_2
REMARK    2  A    between atoms: C_2  and  N_3
REMARK    3  A    between atoms: C_12  and  C_14
REMARK    4  A    between atoms: N_16  and  C_17
REMARK    5  A    between atoms: C_20  and  C_29
REMARK    6  A    between atoms: C_22  and  O_23
REMARK    7  A    between atoms: O_23  and  C_24
REMARK    8  A    between atoms: C_24  and  C_25
REMARK    9  A    between atoms: C_25  and  N_26
REMARK   10  A    between atoms: N_26  and  C_27
REMARK   11  A    between atoms: N_26  and  C_28
REMARK                            x       y       z     vdW  Elec       q    Type
REMARK                         _______ _______ _______ _____ _____    ______ ____
ROOT
ATOM      1  C   UNL     1      -1.856  -4.780  -1.744  0.00  0.00    +0.078 A 
ATOM      2  C   UNL     1      -3.035  -4.109  -2.040  0.00  0.00    +0.066 A 
ATOM      3  C   UNL     1      -4.193  -4.821  -2.290  0.00  0.00    +0.133 A 
ATOM      4  C   UNL     1      -4.178  -6.215  -2.246  0.00  0.00    +0.024 A 
ATOM      5  C   UNL     1      -2.995  -6.888  -1.949  0.00  0.00    +0.059 A 
ATOM      6  C   UNL     1      -1.837  -6.173  -1.704  0.00  0.00    +0.142 A 
ATOM      7  F   UNL     1      -5.339  -4.166  -2.578  0.00  0.00    -0.205 F 
ENDROOT
BRANCH   4   8
ATOM      8  C   UNL     1      -5.422  -6.980  -2.514  0.00  0.00    +0.022 A 
ATOM      9  C   UNL     1      -6.641  -6.762  -1.943  0.00  0.00    +0.113 A 
ATOM     10  N   UNL     1      -7.500  -7.669  -2.454  0.00  0.00    -0.284 N 
ATOM     11  H   UNL     1      -8.440  -7.751  -2.231  0.00  0.00    +0.188 HD
ATOM     12  N   UNL     1      -6.799  -8.469  -3.365  0.00  0.00    -0.182 NA
ATOM     13  C   UNL     1      -5.559  -8.059  -3.409  0.00  0.00    +0.142 A 
ENDBRANCH   4   8
BRANCH   1  16
ATOM     14  C   UNL     1      -0.752  -2.854  -0.886  0.00  0.00    +0.235 C 
ATOM     15  O   UNL     1      -1.818  -2.435  -0.486  0.00  0.00    -0.274 OA
ATOM     16  N   UNL     1      -0.684  -4.057  -1.490  0.00  0.00    -0.281 N 
ATOM     17  H   UNL     1       0.177  -4.421  -1.750  0.00  0.00    +0.155 HD
BRANCH  14  27
ATOM     18  N   UNL     1       0.648  -1.664   0.712  0.00  0.00    -0.287 NA
ATOM     19  C   UNL     1      -0.613  -1.128   1.235  0.00  0.00    +0.120 C 
ATOM     20  C   UNL     1      -1.117  -0.014   0.356  0.00  0.00    -0.030 A 
ATOM     21  C   UNL     1      -2.071   0.852   0.870  0.00  0.00    +0.005 A 
ATOM     22  C   UNL     1      -2.564   1.885   0.098  0.00  0.00    +0.000 A 
ATOM     23  C   UNL     1      -2.106   2.058  -1.195  0.00  0.00    +0.000 A 
ATOM     24  C   UNL     1      -1.155   1.198  -1.707  0.00  0.00    +0.004 A 
ATOM     25  C   UNL     1      -0.657   0.161  -0.931  0.00  0.00    -0.041 A 
ATOM     26  C   UNL     1       0.388  -0.746  -1.529  0.00  0.00    +0.063 C 
ATOM     27  C   UNL     1       0.497  -2.030  -0.706  0.00  0.00    +0.148 C 
BRANCH  18  29
ATOM     28  C   UNL     1       1.485  -2.344   2.911  0.00  0.00    +0.020 C 
ATOM     29  C   UNL     1       1.101  -2.814   1.506  0.00  0.00    +0.082 C 
ENDBRANCH  18  29
ENDBRANCH  14  27
ENDBRANCH   1  16
BRANCH   6  30
ATOM     30  O   UNL     1      -0.680  -6.829  -1.419  0.00  0.00    -0.492 OA
BRANCH  30  31
ATOM     31  C   UNL     1      -0.733  -8.257  -1.395  0.00  0.00    +0.210 C 
BRANCH  31  32
ATOM     32  C   UNL     1       0.653  -8.813  -1.060  0.00  0.00    -0.038 C 
BRANCH  32  33
ATOM     33  N   UNL     1       1.047  -8.367   0.283  0.00  0.00    +0.378 N 
ATOM     34  C   UNL     1       0.147  -8.962   1.280  0.00  0.00    -0.096 C 
ATOM     35  C   UNL     1       2.427  -8.792   0.554  0.00  0.00    -0.096 C 
ATOM     36  H   UNL     1       0.989  -7.361   0.334  0.00  0.00    -0.082 HD
ENDBRANCH  32  33
ENDBRANCH  31  32
ENDBRANCH  30  31
ENDBRANCH   6  30
TORSDOF 8
