REMARK  Name = CHEMBL484967
REMARK  5 active torsions:
REMARK  status: ('A' for Active; 'I' for Inactive)
REMARK    1  A    between atoms: C_3  and  C_9
REMARK    2  A    between atoms: C_6  and  C_7
REMARK    3  A    between atoms: C_7  and  N_8
REMARK    4  A    between atoms: C_18  and  O_19
REMARK    5  A    between atoms: O_19  and  C_20
REMARK                            x       y       z     vdW  Elec       q    Type
REMARK                         _______ _______ _______ _____ _____    ______ ____
ROOT
ATOM      1  C   UNL     1       3.595   2.308   0.126  0.00  0.00    +0.024 A 
ATOM      2  C   UNL     1       3.782   3.328  -0.789  0.00  0.00    +0.020 A 
ATOM      3  C   UNL     1       5.058   3.885  -0.946  0.00  0.00    -0.014 A 
ATOM      4  C   UNL     1       5.311   4.925  -1.860  0.00  0.00    +0.028 A 
ATOM      5  C   UNL     1       6.577   5.416  -1.957  0.00  0.00    +0.111 A 
ATOM      6  N   UNL     1       7.570   4.942  -1.217  0.00  0.00    -0.263 NA
ATOM      7  C   UNL     1       7.408   3.974  -0.345  0.00  0.00    +0.119 A 
ATOM      8  C   UNL     1       6.140   3.397  -0.167  0.00  0.00    +0.004 A 
ATOM      9  C   UNL     1       5.922   2.361   0.754  0.00  0.00    +0.056 A 
ATOM     10  C   UNL     1       4.672   1.834   0.899  0.00  0.00    +0.129 A 
ENDROOT
BRANCH   1  13
ATOM     11  C   UNL     1      -0.113   1.978   0.651  0.00  0.00    +0.002 A 
ATOM     12  C   UNL     1       1.139   2.537   0.491  0.00  0.00    +0.009 A 
ATOM     13  C   UNL     1       2.248   1.714   0.299  0.00  0.00    -0.014 A 
ATOM     14  C   UNL     1       2.085   0.330   0.269  0.00  0.00    +0.009 A 
ATOM     15  C   UNL     1       0.828  -0.218   0.430  0.00  0.00    +0.002 A 
ATOM     16  C   UNL     1      -0.268   0.604   0.621  0.00  0.00    -0.065 A 
BRANCH  16  17
ATOM     17  C   UNL     1      -1.638  -0.000   0.796  0.00  0.00    -0.051 C 
BRANCH  17  18
ATOM     18  N   UNL     1      -2.281  -0.144  -0.516  0.00  0.00    +0.381 N 
ATOM     19  H   UNL     1      -2.367   0.763  -0.950  0.00  0.00    -0.090 HD
ATOM     20  H   UNL     1      -1.721  -0.745  -1.102  0.00  0.00    -0.090 HD
ATOM     21  H   UNL     1      -3.198  -0.549  -0.399  0.00  0.00    -0.090 HD
ENDBRANCH  17  18
ENDBRANCH  16  17
ENDBRANCH   1  13
BRANCH  10  22
ATOM     22  O   UNL     1       4.465   0.834   1.795  0.00  0.00    -0.488 OA
BRANCH  22  23
ATOM     23  C   UNL     1       5.567   0.474   2.631  0.00  0.00    +0.170 C 
ATOM     24  C   UNL     1       6.458  -0.534   1.898  0.00  0.00    +0.025 C 
ATOM     25  C   UNL     1       7.591  -0.975   2.826  0.00  0.00    -0.079 C 
ATOM     26  N   UNL     1       7.027  -1.602   4.028  0.00  0.00    +0.379 N 
ATOM     27  C   UNL     1       6.230  -0.621   4.774  0.00  0.00    -0.079 C 
ATOM     28  C   UNL     1       5.045  -0.166   3.920  0.00  0.00    +0.025 C 
ATOM     29  H   UNL     1       6.439  -2.376   3.758  0.00  0.00    -0.086 HD
ATOM     30  H   UNL     1       7.776  -1.940   4.613  0.00  0.00    -0.086 HD
ENDBRANCH  22  23
ENDBRANCH  10  22
TORSDOF 5
