REMARK  Name = CHEMBL574508
REMARK  5 active torsions:
REMARK  status: ('A' for Active; 'I' for Inactive)
REMARK    1  A    between atoms: C_1  and  C_2
REMARK    2  A    between atoms: C_8  and  S_12
REMARK    3  A    between atoms: S_12  and  C_15
REMARK    4  A    between atoms: C_15  and  N_16
REMARK    5  A    between atoms: C_22  and  C_24
REMARK                            x       y       z     vdW  Elec       q    Type
REMARK                         _______ _______ _______ _____ _____    ______ ____
ROOT
ATOM      1  S   UNL     1      -0.130   1.546   2.695  0.00  0.00    +0.011 S 
ATOM      2  O   UNL     1      -1.043   0.856   1.853  0.00  0.00    -0.168 OA
ATOM      3  O   UNL     1      -0.564   2.640   3.491  0.00  0.00    -0.168 OA
ENDROOT
BRANCH   1  11
ATOM      4  C   UNL     1       1.219   3.129   4.190  0.00  0.00    +0.046 C 
ATOM      5  C   UNL     1       1.645   2.037   5.137  0.00  0.00    -0.023 A 
ATOM      6  C   UNL     1       2.432   2.318   6.212  0.00  0.00    +0.114 A 
ATOM      7  N   UNL     1       2.822   1.376   7.060  0.00  0.00    -0.262 NA
ATOM      8  C   UNL     1       2.480   0.115   6.928  0.00  0.00    +0.119 A 
ATOM      9  C   UNL     1       1.669  -0.280   5.852  0.00  0.00    +0.002 A 
ATOM     10  C   UNL     1       1.233   0.708   4.931  0.00  0.00    +0.013 A 
ATOM     11  C   UNL     1       0.417   0.336   3.853  0.00  0.00    +0.098 A 
ATOM     12  C   UNL     1       0.051  -0.968   3.707  0.00  0.00    +0.027 A 
ATOM     13  C   UNL     1       0.475  -1.938   4.614  0.00  0.00    +0.003 A 
ATOM     14  C   UNL     1       1.276  -1.615   5.666  0.00  0.00    +0.010 A 
ENDBRANCH   1  11
BRANCH   1  15
ATOM     15  C   UNL     1       1.357   2.005   1.762  0.00  0.00    +0.258 C 
BRANCH  15  16
ATOM     16  N   UNL     1       1.150   1.713   0.337  0.00  0.00    -0.283 NA
ATOM     17  C   UNL     1       1.274   0.262   0.069  0.00  0.00    +0.084 C 
ATOM     18  C   UNL     1       1.375  -0.047  -1.435  0.00  0.00    -0.004 C 
ATOM     19  C   UNL     1       0.426   0.796  -2.249  0.00  0.00    -0.081 C 
ATOM     20  N   UNL     1       1.140   2.006  -2.711  0.00  0.00    +0.380 N 
ATOM     21  C   UNL     1       1.217   2.995  -1.726  0.00  0.00    -0.064 C 
ATOM     22  C   UNL     1       2.010   2.530  -0.489  0.00  0.00    +0.038 C 
ATOM     23  C   UNL     1       2.479   3.749   0.308  0.00  0.00    +0.022 C 
ATOM     24  H   UNL     1       2.076   1.747  -2.986  0.00  0.00    -0.086 HD
ATOM     25  H   UNL     1       0.659   2.382  -3.514  0.00  0.00    -0.086 HD
ENDBRANCH  15  16
ENDBRANCH   1  15
TORSDOF 3
