REMARK  Name = CHEMBL493067
REMARK  5 active torsions:
REMARK  status: ('A' for Active; 'I' for Inactive)
REMARK    1  A    between atoms: C_1  and  C_2
REMARK    2  A    between atoms: C_2  and  N_3
REMARK    3  A    between atoms: C_5  and  C_18
REMARK    4  A    between atoms: C_11  and  C_12
REMARK    5  A    between atoms: N_20  and  C_21
REMARK                            x       y       z     vdW  Elec       q    Type
REMARK                         _______ _______ _______ _____ _____    ______ ____
ROOT
ATOM      1  N   UNL     1      -1.243  -0.899   0.006  0.00  0.00    -0.322 N 
ATOM      2  C   UNL     1      -2.030  -1.067   1.113  0.00  0.00    +0.084 A 
ATOM      3  C   UNL     1      -1.843  -0.925   2.498  0.00  0.00    +0.080 A 
ATOM      4  C   UNL     1      -2.916  -1.196   3.345  0.00  0.00    +0.126 A 
ATOM      5  N   UNL     1      -4.084  -1.579   2.864  0.00  0.00    -0.260 NA
ATOM      6  C   UNL     1      -4.307  -1.726   1.574  0.00  0.00    +0.140 A 
ATOM      7  C   UNL     1      -3.294  -1.478   0.644  0.00  0.00    +0.108 A 
ATOM      8  N   UNL     1      -3.217  -1.538  -0.706  0.00  0.00    -0.224 NA
ATOM      9  C   UNL     1      -2.012  -1.193  -1.090  0.00  0.00    +0.167 A 
ENDROOT
BRANCH   9  10
ATOM     10  C   UNL     1      -1.551  -1.133  -2.495  0.00  0.00    +0.190 A 
ATOM     11  C   UNL     1      -2.362  -1.439  -3.680  0.00  0.00    +0.191 A 
ATOM     12  N   UNL     1      -1.617  -1.276  -4.739  0.00  0.00    -0.033 NA
ATOM     13  O   UNL     1      -0.330  -0.871  -4.309  0.00  0.00    -0.240 OA
ATOM     14  N   UNL     1      -0.353  -0.794  -2.895  0.00  0.00    -0.044 NA
ATOM     15  N   UNL     1      -3.693  -1.833  -3.675  0.00  0.00    -0.339 N 
ATOM     16  H   UNL     1      -4.168  -1.928  -2.835  0.00  0.00    +0.144 HD
ATOM     17  H   UNL     1      -4.149  -2.014  -4.512  0.00  0.00    +0.144 HD
ENDBRANCH   9  10
BRANCH   3  18
ATOM     18  C   UNL     1      -0.540  -0.499   3.043  0.00  0.00    +0.248 C 
ATOM     19  O   UNL     1       0.065   0.419   2.525  0.00  0.00    -0.270 OA
ATOM     20  N   UNL     1      -0.020  -1.129   4.115  0.00  0.00    -0.310 N 
ATOM     21  H   UNL     1      -0.502  -1.862   4.528  0.00  0.00    +0.149 HD
BRANCH  20  22
ATOM     22  C   UNL     1       1.274  -0.706   4.656  0.00  0.00    +0.056 C 
ATOM     23  C   UNL     1       1.065   0.457   5.631  0.00  0.00    +0.018 C 
ATOM     24  C   UNL     1       2.413   0.840   6.250  0.00  0.00    -0.017 C 
ATOM     25  C   UNL     1       3.021  -0.387   6.933  0.00  0.00    -0.082 C 
ATOM     26  N   UNL     1       3.220  -1.454   5.944  0.00  0.00    +0.380 N 
ATOM     27  C   UNL     1       1.924  -1.875   5.399  0.00  0.00    -0.060 C 
ATOM     28  H   UNL     1       3.804  -1.112   5.196  0.00  0.00    -0.086 HD
ATOM     29  H   UNL     1       3.670  -2.241   6.386  0.00  0.00    -0.086 HD
ENDBRANCH  20  22
ENDBRANCH   3  18
BRANCH   1  31
ATOM     30  C   UNL     1       0.235   1.038  -0.213  0.00  0.00    +0.027 C 
ATOM     31  C   UNL     1       0.160  -0.476  -0.006  0.00  0.00    +0.120 C 
ENDBRANCH   1  31
TORSDOF 4
