REMARK  Name = CHEMBL466496
REMARK  5 active torsions:
REMARK  status: ('A' for Active; 'I' for Inactive)
REMARK    1  A    between atoms: C_1  and  C_2
REMARK    2  A    between atoms: C_2  and  C_4
REMARK    3  A    between atoms: C_2  and  N_10
REMARK    4  A    between atoms: C_12  and  N_17
REMARK    5  A    between atoms: N_17  and  C_18
REMARK                            x       y       z     vdW  Elec       q    Type
REMARK                         _______ _______ _______ _____ _____    ______ ____
ROOT
ATOM      1  N   UNL     1      -1.372  -0.511   0.012  0.00  0.00    -0.274 NA
ATOM      2  C   UNL     1      -1.775  -1.264   0.980  0.00  0.00    +0.114 C 
ATOM      3  C   UNL     1      -3.059  -1.973   1.352  0.00  0.00    +0.198 C 
ATOM      4  C   UNL     1      -2.177  -2.933   2.120  0.00  0.00    +0.230 C 
ATOM      5  O   UNL     1      -2.245  -4.083   2.484  0.00  0.00    -0.286 OA
ATOM      6  C   UNL     1      -1.182  -1.826   2.222  0.00  0.00    +0.246 C 
ATOM      7  O   UNL     1      -0.286  -1.522   2.981  0.00  0.00    -0.282 OA
ENDROOT
BRANCH   1   9
ATOM      8  C   UNL     1      -0.019   1.526   0.010  0.00  0.00    +0.038 C 
ATOM      9  C   UNL     1       0.002  -0.004   0.002  0.00  0.00    +0.133 C 
BRANCH   9  10
ATOM     10  C   UNL     1       0.707  -0.490  -1.238  0.00  0.00    -0.023 A 
ATOM     11  C   UNL     1       0.038  -0.522  -2.447  0.00  0.00    +0.006 A 
ATOM     12  C   UNL     1       0.685  -0.967  -3.584  0.00  0.00    +0.000 A 
ATOM     13  C   UNL     1       2.002  -1.381  -3.513  0.00  0.00    +0.000 A 
ATOM     14  C   UNL     1       2.672  -1.349  -2.304  0.00  0.00    +0.000 A 
ATOM     15  C   UNL     1       2.026  -0.899  -1.167  0.00  0.00    +0.006 A 
ENDBRANCH   9  10
ENDBRANCH   1   9
BRANCH   3  16
ATOM     16  N   UNL     1      -3.949  -1.178   2.203  0.00  0.00    -0.329 N 
ATOM     17  H   UNL     1      -3.584  -0.476   2.764  0.00  0.00    +0.147 HD
BRANCH  16  18
ATOM     18  C   UNL     1      -5.317  -1.431   2.206  0.00  0.00    +0.031 A 
ATOM     19  C   UNL     1      -5.861  -2.439   1.410  0.00  0.00    +0.042 A 
ATOM     20  C   UNL     1      -7.222  -2.658   1.442  0.00  0.00    +0.112 A 
ATOM     21  N   UNL     1      -8.007  -1.927   2.212  0.00  0.00    -0.263 NA
ATOM     22  C   UNL     1      -7.531  -0.964   2.978  0.00  0.00    +0.112 A 
ATOM     23  C   UNL     1      -6.181  -0.685   3.008  0.00  0.00    +0.042 A 
ENDBRANCH  16  18
ENDBRANCH   3  16
TORSDOF 4
