REMARK  Name = CHEMBL1083967
REMARK  7 active torsions:
REMARK  status: ('A' for Active; 'I' for Inactive)
REMARK    1  A    between atoms: C_1  and  C_2
REMARK    2  A    between atoms: C_2  and  C_3
REMARK    3  A    between atoms: C_3  and  C_4
REMARK    4  A    between atoms: C_4  and  C_5
REMARK    5  A    between atoms: C_4  and  N_22
REMARK    6  A    between atoms: C_11  and  C_21
REMARK    7  A    between atoms: C_12  and  C_14
REMARK                            x       y       z     vdW  Elec       q    Type
REMARK                         _______ _______ _______ _____ _____    ______ ____
ROOT
ATOM      1  C   UNL     1       1.596  -2.538   2.386  0.00  0.00    -0.061 A 
ATOM      2  C   UNL     1       1.035  -2.586   3.657  0.00  0.00    +0.003 A 
ATOM      3  C   UNL     1       1.792  -3.041   4.718  0.00  0.00    +0.016 A 
ATOM      4  C   UNL     1       3.094  -3.442   4.502  0.00  0.00    +0.020 A 
ATOM      5  C   UNL     1       3.688  -3.404   3.220  0.00  0.00    -0.007 A 
ATOM      6  C   UNL     1       2.875  -2.935   2.159  0.00  0.00    +0.011 A 
ATOM      7  C   UNL     1       5.065  -3.861   3.174  0.00  0.00    -0.026 A 
ATOM      8  C   UNL     1       5.659  -4.276   4.319  0.00  0.00    +0.042 A 
ATOM      9  S   UNL     1       4.382  -4.073   5.546  0.00  0.00    -0.086 S 
ATOM     10  C   UNL     1       5.822  -3.875   1.871  0.00  0.00    +0.045 C 
ENDROOT
BRANCH   8  11
ATOM     11  C   UNL     1       7.036  -4.778   4.506  0.00  0.00    +0.083 A 
ATOM     12  C   UNL     1       7.484  -5.172   5.772  0.00  0.00    +0.049 A 
ATOM     13  C   UNL     1       8.780  -5.635   5.897  0.00  0.00    +0.116 A 
ATOM     14  N   UNL     1       9.555  -5.691   4.825  0.00  0.00    -0.223 NA
ATOM     15  C   UNL     1       9.106  -5.312   3.637  0.00  0.00    +0.213 A 
ATOM     16  N   UNL     1       7.870  -4.867   3.470  0.00  0.00    -0.214 NA
ATOM     17  N   UNL     1       9.949  -5.387   2.542  0.00  0.00    -0.327 N 
ATOM     18  H   UNL     1      10.855  -5.714   2.650  0.00  0.00    +0.145 HD
ATOM     19  H   UNL     1       9.633  -5.112   1.667  0.00  0.00    +0.145 HD
ENDBRANCH   8  11
BRANCH   1  20
ATOM     20  C   UNL     1       0.763  -2.041   1.233  0.00  0.00    -0.044 C 
BRANCH  20  21
ATOM     21  N   UNL     1      -0.609  -2.550   1.364  0.00  0.00    +0.383 N 
ATOM     22  H   UNL     1      -0.595  -3.559   1.359  0.00  0.00    -0.089 HD
ATOM     23  H   UNL     1      -1.007  -2.224   2.232  0.00  0.00    -0.089 HD
ATOM     24  H   UNL     1      -1.167  -2.217   0.592  0.00  0.00    -0.089 HD
ENDBRANCH  20  21
BRANCH  20  25
ATOM     25  C   UNL     1       0.742  -0.511   1.242  0.00  0.00    -0.012 C 
BRANCH  25  27
ATOM     26  C   UNL     1      -0.019   1.526   0.010  0.00  0.00    +0.004 C 
ATOM     27  C   UNL     1       0.002  -0.004   0.002  0.00  0.00    -0.005 C 
ENDBRANCH  25  27
ENDBRANCH  20  25
ENDBRANCH   1  20
TORSDOF 5
