REMARK  Name = CHEMBL483396
REMARK  5 active torsions:
REMARK  status: ('A' for Active; 'I' for Inactive)
REMARK    1  A    between atoms: C_1  and  C_2
REMARK    2  A    between atoms: C_3  and  C_21
REMARK    3  A    between atoms: C_4  and  C_14
REMARK    4  A    between atoms: C_6  and  C_8
REMARK    5  A    between atoms: N_23  and  C_24
REMARK                            x       y       z     vdW  Elec       q    Type
REMARK                         _______ _______ _______ _____ _____    ______ ____
ROOT
ATOM      1  C   UNL     1      -0.018   1.502   0.021  0.00  0.00    +0.061 C 
ATOM      2  C   UNL     1       0.002  -0.005   0.005  0.00  0.00    +0.017 C 
ATOM      3  C   UNL     1      -1.152  -0.697   0.003  0.00  0.00    +0.058 C 
ATOM      4  C   UNL     1      -1.153  -2.199  -0.001  0.00  0.00    +0.148 C 
ATOM      5  N   UNL     1       0.151  -2.727  -0.383  0.00  0.00    -0.360 N 
ATOM      6  C   UNL     1       1.226  -2.008  -0.377  0.00  0.00    +0.124 C 
ATOM      7  N   UNL     1       1.197  -0.678  -0.014  0.00  0.00    -0.303 N 
ATOM      8  H   UNL     1       2.018  -0.223   0.230  0.00  0.00    +0.153 HD
ATOM      9  H   UNL     1       0.215  -3.657  -0.653  0.00  0.00    +0.162 HD
ENDROOT
BRANCH   4  10
ATOM     10  C   UNL     1      -1.502  -2.696   1.378  0.00  0.00    -0.020 A 
ATOM     11  C   UNL     1      -0.536  -2.724   2.367  0.00  0.00    +0.009 A 
ATOM     12  C   UNL     1      -0.855  -3.179   3.632  0.00  0.00    +0.039 A 
ATOM     13  C   UNL     1      -2.142  -3.608   3.909  0.00  0.00    +0.123 A 
ATOM     14  C   UNL     1      -3.109  -3.580   2.918  0.00  0.00    +0.039 A 
ATOM     15  C   UNL     1      -2.789  -3.119   1.655  0.00  0.00    +0.009 A 
ATOM     16  F   UNL     1      -2.455  -4.053   5.146  0.00  0.00    -0.205 F 
ENDBRANCH   4  10
BRANCH   6  17
ATOM     17  C   UNL     1       2.514  -2.625  -0.772  0.00  0.00    +0.120 A 
ATOM     18  C   UNL     1       3.684  -1.865  -0.765  0.00  0.00    +0.141 A 
ATOM     19  N   UNL     1       4.829  -2.419  -1.118  0.00  0.00    -0.260 NA
ATOM     20  C   UNL     1       4.868  -3.691  -1.477  0.00  0.00    +0.130 A 
ATOM     21  C   UNL     1       3.707  -4.448  -1.485  0.00  0.00    +0.131 A 
ATOM     22  N   UNL     1       2.559  -3.905  -1.129  0.00  0.00    -0.249 NA
ENDBRANCH   6  17
BRANCH   3  23
ATOM     23  C   UNL     1      -2.384   0.001   0.006  0.00  0.00    +0.248 C 
ATOM     24  O   UNL     1      -2.393   1.219   0.009  0.00  0.00    -0.270 OA
ATOM     25  N   UNL     1      -3.546  -0.682   0.004  0.00  0.00    -0.282 N 
ATOM     26  H   UNL     1      -3.539  -1.649  -0.070  0.00  0.00    +0.155 HD
BRANCH  25  27
ATOM     27  C   UNL     1      -4.762   0.005   0.108  0.00  0.00    +0.034 A 
ATOM     28  C   UNL     1      -4.908   1.254  -0.496  0.00  0.00    +0.025 A 
ATOM     29  C   UNL     1      -6.084   1.940  -0.406  0.00  0.00    +0.029 A 
ATOM     30  C   UNL     1      -7.159   1.395   0.293  0.00  0.00    +0.066 A 
ATOM     31  C   UNL     1      -7.023   0.135   0.906  0.00  0.00    +0.021 A 
ATOM     32  C   UNL     1      -5.812  -0.560   0.803  0.00  0.00    +0.035 A 
ATOM     33  C   UNL     1      -8.302  -0.150   1.548  0.00  0.00    +0.142 A 
ATOM     34  N   UNL     1      -9.095   0.858   1.320  0.00  0.00    -0.181 NA
ATOM     35  N   UNL     1      -8.435   1.825   0.556  0.00  0.00    -0.277 N 
ATOM     36  H   UNL     1      -8.817   2.666   0.259  0.00  0.00    +0.189 HD
ENDBRANCH  25  27
ENDBRANCH   3  23
TORSDOF 4
