REMARK  Name = CHEMBL224360
REMARK  6 active torsions:
REMARK  status: ('A' for Active; 'I' for Inactive)
REMARK    1  A    between atoms: C_1  and  C_2
REMARK    2  A    between atoms: C_2  and  C_3
REMARK    3  A    between atoms: C_3  and  N_4
REMARK    4  A    between atoms: N_4  and  C_5
REMARK    5  A    between atoms: C_8  and  N_11
REMARK    6  A    between atoms: N_11  and  C_12
REMARK                            x       y       z     vdW  Elec       q    Type
REMARK                         _______ _______ _______ _____ _____    ______ ____
ROOT
ATOM      1  C   UNL     1       1.426  -2.440  -2.474  0.00  0.00    -0.072 C 
ATOM      2  C   UNL     1       0.618  -2.039  -3.710  0.00  0.00    -0.014 C 
ATOM      3  C   UNL     1       1.334  -2.533  -4.969  0.00  0.00    +0.020 C 
ATOM      4  C   UNL     1       1.465  -4.056  -4.917  0.00  0.00    +0.070 C 
ATOM      5  C   UNL     1       2.273  -4.457  -3.680  0.00  0.00    +0.020 C 
ATOM      6  C   UNL     1       1.557  -3.964  -2.422  0.00  0.00    -0.014 C 
ENDROOT
BRANCH   1   7
ATOM      7  N   UNL     1       0.738  -1.966  -1.265  0.00  0.00    +0.381 N 
ATOM      8  H   UNL     1       1.226  -2.301  -0.447  0.00  0.00    -0.086 HD
ATOM      9  H   UNL     1      -0.208  -2.316  -1.258  0.00  0.00    -0.086 HD
BRANCH   7  10
ATOM     10  C   UNL     1       0.718  -0.497  -1.257  0.00  0.00    -0.082 C 
BRANCH  10  12
ATOM     11  C   UNL     1      -0.019   1.526   0.010  0.00  0.00    +0.002 C 
ATOM     12  C   UNL     1       0.002  -0.004   0.002  0.00  0.00    -0.022 C 
ENDBRANCH  10  12
ENDBRANCH   7  10
ENDBRANCH   1   7
BRANCH   4  13
ATOM     13  N   UNL     1       2.151  -4.529  -6.122  0.00  0.00    -0.341 N 
ATOM     14  H   UNL     1       2.748  -3.935  -6.605  0.00  0.00    +0.146 HD
BRANCH  13  15
ATOM     15  C   UNL     1       1.947  -5.831  -6.575  0.00  0.00    +0.035 A 
ATOM     16  C   UNL     1       1.095  -6.680  -5.898  0.00  0.00    +0.023 A 
ATOM     17  C   UNL     1       0.885  -7.981  -6.343  0.00  0.00    +0.002 A 
ATOM     18  C   UNL     1       1.510  -8.455  -7.457  0.00  0.00    +0.010 A 
ATOM     19  C   UNL     1       2.384  -7.624  -8.174  0.00  0.00    +0.002 A 
ATOM     20  C   UNL     1       2.602  -6.293  -7.733  0.00  0.00    +0.006 A 
ATOM     21  C   UNL     1       3.477  -5.481  -8.473  0.00  0.00    +0.030 A 
ATOM     22  C   UNL     1       4.072  -6.002  -9.582  0.00  0.00    +0.111 A 
ATOM     23  N   UNL     1       3.847  -7.248  -9.977  0.00  0.00    -0.263 NA
ATOM     24  C   UNL     1       3.052  -8.066  -9.328  0.00  0.00    +0.119 A 
ENDBRANCH  13  15
ENDBRANCH   4  13
TORSDOF 5
