REMARK  Name = CHEMBL1078426
REMARK  2 active torsions:
REMARK  status: ('A' for Active; 'I' for Inactive)
REMARK    1  A    between atoms: C_4  and  N_7
REMARK    2  A    between atoms: C_15  and  C_16
REMARK                            x       y       z     vdW  Elec       q    Type
REMARK                         _______ _______ _______ _____ _____    ______ ____
ROOT
ATOM      1  N   UNL     1       3.623  -0.651  -0.037  0.00  0.00    -0.291 N 
ATOM      2  C   UNL     1       4.102  -1.451  -1.057  0.00  0.00    +0.074 A 
ATOM      3  C   UNL     1       3.608  -1.832  -2.297  0.00  0.00    +0.028 A 
ATOM      4  C   UNL     1       4.354  -2.666  -3.103  0.00  0.00    +0.002 A 
ATOM      5  C   UNL     1       5.593  -3.128  -2.682  0.00  0.00    +0.002 A 
ATOM      6  C   UNL     1       6.096  -2.765  -1.466  0.00  0.00    +0.030 A 
ATOM      7  C   UNL     1       5.359  -1.919  -0.630  0.00  0.00    +0.090 A 
ATOM      8  N   UNL     1       5.584  -1.397   0.599  0.00  0.00    -0.225 NA
ATOM      9  C   UNL     1       4.571  -0.646   0.952  0.00  0.00    +0.172 A 
ENDROOT
BRANCH   9  10
ATOM     10  C   UNL     1       4.465   0.095   2.228  0.00  0.00    +0.191 A 
ATOM     11  C   UNL     1       5.472   0.117   3.297  0.00  0.00    +0.191 A 
ATOM     12  N   UNL     1       5.029   0.875   4.262  0.00  0.00    -0.033 NA
ATOM     13  O   UNL     1       3.755   1.365   3.882  0.00  0.00    -0.240 OA
ATOM     14  N   UNL     1       3.460   0.847   2.598  0.00  0.00    -0.044 NA
ATOM     15  N   UNL     1       6.688  -0.553   3.283  0.00  0.00    -0.339 N 
ATOM     16  H   UNL     1       6.933  -1.097   2.517  0.00  0.00    +0.144 HD
ATOM     17  H   UNL     1       7.292  -0.479   4.038  0.00  0.00    +0.144 HD
ENDBRANCH   9  10
BRANCH   1  21
ATOM     18  C   UNL     1      -0.017   1.379   0.010  0.00  0.00    +0.000 A 
ATOM     19  C   UNL     1       1.170   2.089   0.002  0.00  0.00    +0.002 A 
ATOM     20  C   UNL     1       2.377   1.419  -0.013  0.00  0.00    +0.026 A 
ATOM     21  C   UNL     1       2.400   0.031  -0.021  0.00  0.00    +0.049 A 
ATOM     22  C   UNL     1       1.206  -0.680  -0.013  0.00  0.00    +0.026 A 
ATOM     23  C   UNL     1       0.002  -0.004   0.002  0.00  0.00    +0.002 A 
ENDBRANCH   1  21
TORSDOF 2
