REMARK  Name = CHEMBL1084106
REMARK  5 active torsions:
REMARK  status: ('A' for Active; 'I' for Inactive)
REMARK    1  A    between atoms: C_4  and  C_7
REMARK    2  A    between atoms: C_7  and  C_8
REMARK    3  A    between atoms: C_7  and  N_24
REMARK    4  A    between atoms: N_10  and  C_11
REMARK    5  A    between atoms: N_24  and  C_25
REMARK                            x       y       z     vdW  Elec       q    Type
REMARK                         _______ _______ _______ _____ _____    ______ ____
ROOT
ATOM      1  C   UNL     1       4.112  -0.970   1.208  0.00  0.00    +0.239 C 
ATOM      2  O   UNL     1       3.928  -2.087   1.645  0.00  0.00    -0.273 OA
ATOM      3  N   UNL     1       4.666  -0.023   1.991  0.00  0.00    -0.283 N 
ATOM      4  H   UNL     1       4.739   0.889   1.670  0.00  0.00    +0.155 HD
ENDROOT
BRANCH   3   5
ATOM      5  C   UNL     1       5.135  -0.355   3.263  0.00  0.00    +0.053 A 
ATOM      6  C   UNL     1       5.515  -1.659   3.536  0.00  0.00    +0.033 A 
ATOM      7  C   UNL     1       5.982  -1.982   4.808  0.00  0.00    -0.010 A 
ATOM      8  C   UNL     1       6.399  -3.341   5.158  0.00  0.00    +0.026 A 
ATOM      9  C   UNL     1       6.842  -3.596   6.399  0.00  0.00    +0.086 A 
ATOM     10  N   UNL     1       6.921  -2.629   7.361  0.00  0.00    -0.329 N 
ATOM     11  H   UNL     1       7.249  -2.870   8.241  0.00  0.00    +0.168 HD
ATOM     12  C   UNL     1       6.559  -1.352   7.129  0.00  0.00    +0.257 A 
ATOM     13  O   UNL     1       6.644  -0.517   8.013  0.00  0.00    -0.267 OA
ATOM     14  C   UNL     1       6.063  -0.977   5.802  0.00  0.00    +0.048 A 
ATOM     15  C   UNL     1       5.674   0.329   5.502  0.00  0.00    +0.035 A 
ATOM     16  C   UNL     1       5.223   0.631   4.248  0.00  0.00    +0.063 A 
ATOM     17 CL   UNL     1       4.747   2.259   3.876  0.00  0.00    -0.082 Cl
ENDBRANCH   3   5
BRANCH   1  18
ATOM     18  C   UNL     1       3.721  -0.642  -0.210  0.00  0.00    +0.172 C 
BRANCH  18  22
ATOM     19  C   UNL     1      -0.028   1.406  -0.217  0.00  0.00    +0.000 A 
ATOM     20  C   UNL     1       0.734   1.363   0.936  0.00  0.00    +0.000 A 
ATOM     21  C   UNL     1       1.947   0.700   0.938  0.00  0.00    +0.005 A 
ATOM     22  C   UNL     1       2.398   0.080  -0.212  0.00  0.00    -0.022 A 
ATOM     23  C   UNL     1       1.636   0.122  -1.364  0.00  0.00    +0.005 A 
ATOM     24  C   UNL     1       0.424   0.786  -1.367  0.00  0.00    +0.000 A 
ENDBRANCH  18  22
BRANCH  18  25
ATOM     25  N   UNL     1       3.602  -1.885  -0.985  0.00  0.00    -0.299 NA
ATOM     26  H   UNL     1       3.489  -1.688  -1.968  0.00  0.00    +0.123 HD
BRANCH  25  27
ATOM     27  C   UNL     1       2.498  -2.714  -0.484  0.00  0.00    +0.055 C 
ATOM     28  C   UNL     1       1.647  -3.457  -1.516  0.00  0.00    +0.020 C 
ATOM     29  C   UNL     1       2.629  -4.231  -0.634  0.00  0.00    +0.020 C 
ENDBRANCH  25  27
ENDBRANCH  18  25
ENDBRANCH   1  18
TORSDOF 5
