REMARK  Name = CHEMBL224500
REMARK  4 active torsions:
REMARK  status: ('A' for Active; 'I' for Inactive)
REMARK    1  A    between atoms: C_4  and  C_7
REMARK    2  A    between atoms: C_7  and  N_8
REMARK    3  A    between atoms: C_11  and  N_14
REMARK    4  A    between atoms: N_14  and  C_15
REMARK                            x       y       z     vdW  Elec       q    Type
REMARK                         _______ _______ _______ _____ _____    ______ ____
ROOT
ATOM      1  N   UNL     1       4.153  -0.953   1.342  0.00  0.00    +0.382 N 
ATOM      2  C   UNL     1       4.424   0.329   2.003  0.00  0.00    -0.077 C 
ATOM      3  C   UNL     1       4.807   0.083   3.464  0.00  0.00    +0.003 C 
ATOM      4  C   UNL     1       6.060  -0.796   3.517  0.00  0.00    +0.067 C 
ATOM      5  C   UNL     1       5.790  -2.099   2.760  0.00  0.00    +0.003 C 
ATOM      6  C   UNL     1       5.371  -1.772   1.325  0.00  0.00    -0.077 C 
ATOM      7  H   UNL     1       3.427  -1.441   1.844  0.00  0.00    -0.081 HD
ENDROOT
BRANCH   4   8
ATOM      8  N   UNL     1       6.388  -1.099   4.912  0.00  0.00    -0.341 N 
ATOM      9  H   UNL     1       5.692  -1.082   5.588  0.00  0.00    +0.146 HD
BRANCH   8  10
ATOM     10  C   UNL     1       7.704  -1.412   5.269  0.00  0.00    +0.028 A 
ATOM     11  C   UNL     1       8.697  -1.426   4.280  0.00  0.00    +0.025 A 
ATOM     12  C   UNL     1       9.988  -1.722   4.569  0.00  0.00    +0.032 A 
ATOM     13  C   UNL     1      10.355  -2.026   5.897  0.00  0.00    +0.093 A 
ATOM     14  C   UNL     1       9.316  -2.012   6.938  0.00  0.00    +0.021 A 
ATOM     15  C   UNL     1       7.991  -1.690   6.572  0.00  0.00    +0.034 A 
ATOM     16  C   UNL     1       9.945  -2.340   8.124  0.00  0.00    +0.113 A 
ATOM     17  N   UNL     1      11.245  -2.541   7.859  0.00  0.00    -0.284 N 
ATOM     18  N   UNL     1      11.489  -2.346   6.495  0.00  0.00    -0.174 NA
ATOM     19  H   UNL     1      11.916  -2.783   8.516  0.00  0.00    +0.188 HD
ENDBRANCH   8  10
ENDBRANCH   4   8
BRANCH   1  20
ATOM     20  C   UNL     1       3.711  -0.707  -0.038  0.00  0.00    -0.043 C 
BRANCH  20  24
ATOM     21  C   UNL     1      -0.017   1.378   0.010  0.00  0.00    +0.000 A 
ATOM     22  C   UNL     1       1.171   2.086   0.002  0.00  0.00    +0.000 A 
ATOM     23  C   UNL     1       2.377   1.411  -0.013  0.00  0.00    +0.002 A 
ATOM     24  C   UNL     1       2.396   0.029  -0.020  0.00  0.00    -0.064 A 
ATOM     25  C   UNL     1       1.208  -0.679  -0.012  0.00  0.00    +0.002 A 
ATOM     26  C   UNL     1       0.002  -0.004   0.002  0.00  0.00    +0.000 A 
ENDBRANCH  20  24
ENDBRANCH   1  20
TORSDOF 4
