REMARK  Name = CHEMBL574507
REMARK  3 active torsions:
REMARK  status: ('A' for Active; 'I' for Inactive)
REMARK    1  A    between atoms: C_11  and  S_13
REMARK    2  A    between atoms: S_13  and  C_16
REMARK    3  A    between atoms: C_16  and  N_17
REMARK                            x       y       z     vdW  Elec       q    Type
REMARK                         _______ _______ _______ _____ _____    ______ ____
ROOT
ATOM      1  S   UNL     1       1.228  -2.600   0.022  0.00  0.00    +0.011 S 
ATOM      2  O   UNL     1      -0.109  -3.079  -0.019  0.00  0.00    -0.168 OA
ATOM      3  O   UNL     1       1.522  -1.317   0.559  0.00  0.00    -0.168 OA
ENDROOT
BRANCH   1  14
ATOM      4  C   UNL     1       3.526  -4.146   2.938  0.00  0.00    +0.003 A 
ATOM      5  C   UNL     1       3.438  -5.508   2.748  0.00  0.00    +0.014 A 
ATOM      6  C   UNL     1       2.658  -6.005   1.704  0.00  0.00    +0.048 A 
ATOM      7  C   UNL     1       1.970  -5.106   0.855  0.00  0.00    +0.014 A 
ATOM      8  C   UNL     1       1.161  -5.658  -0.232  0.00  0.00    +0.028 A 
ATOM      9  C   UNL     1       1.093  -6.989  -0.394  0.00  0.00    +0.086 A 
ATOM     10  N   UNL     1       1.756  -7.861   0.423  0.00  0.00    -0.329 N 
ATOM     11  H   UNL     1       1.671  -8.813   0.259  0.00  0.00    +0.168 HD
ATOM     12  C   UNL     1       2.524  -7.443   1.449  0.00  0.00    +0.257 A 
ATOM     13  O   UNL     1       3.099  -8.250   2.156  0.00  0.00    -0.267 OA
ATOM     14  C   UNL     1       2.079  -3.732   1.072  0.00  0.00    +0.097 A 
ATOM     15  C   UNL     1       2.849  -3.268   2.102  0.00  0.00    +0.027 A 
ENDBRANCH   1  14
BRANCH   1  16
ATOM     16  C   UNL     1       2.011  -2.792  -1.603  0.00  0.00    +0.258 C 
BRANCH  16  17
ATOM     17  N   UNL     1       3.417  -2.377  -1.521  0.00  0.00    -0.286 NA
ATOM     18  C   UNL     1       3.537  -0.899  -1.538  0.00  0.00    +0.084 C 
ATOM     19  C   UNL     1       4.836  -0.517  -0.875  0.00  0.00    -0.004 C 
ATOM     20  C   UNL     1       5.992  -0.376  -1.878  0.00  0.00    -0.081 C 
ATOM     21  N   UNL     1       5.993  -1.445  -2.902  0.00  0.00    +0.380 N 
ATOM     22  C   UNL     1       5.692  -2.742  -2.339  0.00  0.00    -0.067 C 
ATOM     23  C   UNL     1       4.185  -3.009  -2.504  0.00  0.00    +0.067 C 
ATOM     24  H   UNL     1       5.304  -1.226  -3.605  0.00  0.00    -0.086 HD
ATOM     25  H   UNL     1       6.903  -1.481  -3.337  0.00  0.00    -0.086 HD
ENDBRANCH  16  17
ENDBRANCH   1  16
TORSDOF 3
