REMARK  Name = CHEMBL415061
REMARK  4 active torsions:
REMARK  status: ('A' for Active; 'I' for Inactive)
REMARK    1  A    between atoms: C_4  and  C_7
REMARK    2  A    between atoms: C_7  and  N_8
REMARK    3  A    between atoms: C_12  and  C_14
REMARK    4  A    between atoms: N_16  and  C_17
REMARK                            x       y       z     vdW  Elec       q    Type
REMARK                         _______ _______ _______ _____ _____    ______ ____
ROOT
ATOM      1  N   UNL     1       4.159  -0.944   1.342  0.00  0.00    +0.383 N 
ATOM      2  C   UNL     1       4.440   0.340   1.997  0.00  0.00    -0.078 C 
ATOM      3  C   UNL     1       4.826   0.097   3.458  0.00  0.00    -0.018 C 
ATOM      4  C   UNL     1       6.074  -0.788   3.510  0.00  0.00    +0.009 C 
ATOM      5  C   UNL     1       5.793  -2.094   2.760  0.00  0.00    +0.059 C 
ATOM      6  C   UNL     1       5.372  -1.770   1.325  0.00  0.00    -0.066 C 
ATOM      7  H   UNL     1       3.432  -1.425   1.849  0.00  0.00    -0.081 HD
ENDROOT
BRANCH   5   8
ATOM      8  C   UNL     1       7.040  -2.940   2.740  0.00  0.00    +0.219 C 
ATOM      9  O   UNL     1       7.540  -3.258   1.682  0.00  0.00    -0.275 OA
ATOM     10  N   UNL     1       7.599  -3.345   3.898  0.00  0.00    -0.285 N 
ATOM     11  H   UNL     1       7.239  -3.036   4.744  0.00  0.00    +0.155 HD
BRANCH  10  12
ATOM     12  C   UNL     1       8.701  -4.210   3.879  0.00  0.00    +0.034 A 
ATOM     13  C   UNL     1       9.654  -4.099   2.867  0.00  0.00    +0.025 A 
ATOM     14  C   UNL     1      10.735  -4.932   2.830  0.00  0.00    +0.029 A 
ATOM     15  C   UNL     1      10.897  -5.908   3.811  0.00  0.00    +0.066 A 
ATOM     16  C   UNL     1       9.940  -6.030   4.837  0.00  0.00    +0.021 A 
ATOM     17  C   UNL     1       8.840  -5.166   4.865  0.00  0.00    +0.035 A 
ATOM     18  C   UNL     1      10.389  -7.126   5.689  0.00  0.00    +0.142 A 
ATOM     19  N   UNL     1      11.502  -7.587   5.192  0.00  0.00    -0.181 NA
ATOM     20  N   UNL     1      11.848  -6.870   4.042  0.00  0.00    -0.277 N 
ATOM     21  H   UNL     1      12.634  -7.027   3.496  0.00  0.00    +0.189 HD
ENDBRANCH  10  12
ENDBRANCH   5   8
BRANCH   1  22
ATOM     22  C   UNL     1       3.714  -0.701  -0.036  0.00  0.00    -0.043 C 
BRANCH  22  26
ATOM     23  C   UNL     1      -0.001   1.407   0.014  0.00  0.00    +0.000 A 
ATOM     24  C   UNL     1       1.191   2.107  -0.001  0.00  0.00    +0.000 A 
ATOM     25  C   UNL     1       2.393   1.425  -0.017  0.00  0.00    +0.002 A 
ATOM     26  C   UNL     1       2.404   0.043  -0.018  0.00  0.00    -0.064 A 
ATOM     27  C   UNL     1       1.212  -0.658  -0.003  0.00  0.00    +0.002 A 
ATOM     28  C   UNL     1       0.009   0.024   0.012  0.00  0.00    +0.000 A 
ENDBRANCH  22  26
ENDBRANCH   1  22
TORSDOF 4
