REMARK  Name = CHEMBL1084900
REMARK  5 active torsions:
REMARK  status: ('A' for Active; 'I' for Inactive)
REMARK    1  A    between atoms: C_4  and  C_7
REMARK    2  A    between atoms: C_7  and  N_8
REMARK    3  A    between atoms: N_8  and  C_9
REMARK    4  A    between atoms: C_9  and  C_10
REMARK    5  A    between atoms: N_12  and  C_13
REMARK                            x       y       z     vdW  Elec       q    Type
REMARK                         _______ _______ _______ _____ _____    ______ ____
ROOT
ATOM      1  C   UNL     1       5.887  -1.925   2.740  0.00  0.00    +0.200 C 
ATOM      2  O   UNL     1       5.211  -1.541   3.671  0.00  0.00    -0.278 OA
ATOM      3  N   UNL     1       7.047  -2.571   2.970  0.00  0.00    -0.286 N 
ATOM      4  H   UNL     1       7.554  -2.936   2.229  0.00  0.00    +0.155 HD
ENDROOT
BRANCH   3   5
ATOM      5  C   UNL     1       7.519  -2.713   4.277  0.00  0.00    +0.052 A 
ATOM      6  C   UNL     1       6.621  -2.888   5.316  0.00  0.00    +0.033 A 
ATOM      7  C   UNL     1       7.100  -3.030   6.616  0.00  0.00    -0.010 A 
ATOM      8  C   UNL     1       6.201  -3.219   7.757  0.00  0.00    +0.026 A 
ATOM      9  C   UNL     1       6.718  -3.350   8.989  0.00  0.00    +0.086 A 
ATOM     10  N   UNL     1       8.063  -3.315   9.226  0.00  0.00    -0.329 N 
ATOM     11  H   UNL     1       8.381  -3.415  10.137  0.00  0.00    +0.168 HD
ATOM     12  C   UNL     1       8.964  -3.145   8.238  0.00  0.00    +0.257 A 
ATOM     13  O   UNL     1      10.156  -3.119   8.489  0.00  0.00    -0.267 OA
ATOM     14  C   UNL     1       8.495  -2.993   6.858  0.00  0.00    +0.048 A 
ATOM     15  C   UNL     1       9.379  -2.814   5.793  0.00  0.00    +0.035 A 
ATOM     16  C   UNL     1       8.894  -2.683   4.523  0.00  0.00    +0.063 A 
ATOM     17 CL   UNL     1       9.998  -2.468   3.201  0.00  0.00    -0.082 Cl
ENDBRANCH   3   5
BRANCH   1  18
ATOM     18  C   UNL     1       5.428  -1.682   1.325  0.00  0.00    +0.016 C 
BRANCH  18  19
ATOM     19  N   UNL     1       4.145  -0.966   1.342  0.00  0.00    +0.387 N 
ATOM     20  H   UNL     1       4.259  -0.083   1.816  0.00  0.00    -0.085 HD
ATOM     21  H   UNL     1       3.457  -1.522   1.828  0.00  0.00    -0.085 HD
BRANCH  19  22
ATOM     22  C   UNL     1       3.698  -0.729  -0.037  0.00  0.00    -0.046 C 
BRANCH  22  26
ATOM     23  C   UNL     1      -0.032   1.352   0.011  0.00  0.00    +0.000 A 
ATOM     24  C   UNL     1       1.155   2.061  -0.004  0.00  0.00    +0.000 A 
ATOM     25  C   UNL     1       2.362   1.387  -0.020  0.00  0.00    +0.002 A 
ATOM     26  C   UNL     1       2.382   0.005  -0.019  0.00  0.00    -0.064 A 
ATOM     27  C   UNL     1       1.196  -0.704  -0.002  0.00  0.00    +0.002 A 
ATOM     28  C   UNL     1      -0.012  -0.030   0.012  0.00  0.00    +0.000 A 
ENDBRANCH  22  26
ENDBRANCH  19  22
ENDBRANCH  18  19
ENDBRANCH   1  18
TORSDOF 5
