REMARK  Name = CHEMBL1084900
REMARK  5 active torsions:
REMARK  status: ('A' for Active; 'I' for Inactive)
REMARK    1  A    between atoms: C_4  and  C_7
REMARK    2  A    between atoms: C_7  and  N_8
REMARK    3  A    between atoms: N_8  and  C_9
REMARK    4  A    between atoms: C_9  and  C_10
REMARK    5  A    between atoms: N_12  and  C_13
REMARK                            x       y       z     vdW  Elec       q    Type
REMARK                         _______ _______ _______ _____ _____    ______ ____
ROOT
ATOM      1  C   UNL     1       5.854  -1.907   2.792  0.00  0.00    +0.231 C 
ATOM      2  O   UNL     1       5.157  -1.510   3.702  0.00  0.00    -0.274 OA
ATOM      3  N   UNL     1       7.008  -2.549   3.058  0.00  0.00    -0.283 N 
ATOM      4  H   UNL     1       7.533  -2.924   2.334  0.00  0.00    +0.155 HD
ENDROOT
BRANCH   3   5
ATOM      5  C   UNL     1       7.450  -2.674   4.377  0.00  0.00    +0.053 A 
ATOM      6  C   UNL     1       6.528  -2.836   5.397  0.00  0.00    +0.033 A 
ATOM      7  C   UNL     1       6.976  -2.960   6.710  0.00  0.00    -0.010 A 
ATOM      8  C   UNL     1       6.051  -3.135   7.832  0.00  0.00    +0.026 A 
ATOM      9  C   UNL     1       6.539  -3.250   9.077  0.00  0.00    +0.086 A 
ATOM     10  N   UNL     1       7.878  -3.211   9.345  0.00  0.00    -0.329 N 
ATOM     11  H   UNL     1       8.175  -3.300  10.264  0.00  0.00    +0.168 HD
ATOM     12  C   UNL     1       8.802  -3.054   8.376  0.00  0.00    +0.257 A 
ATOM     13  O   UNL     1       9.987  -3.024   8.655  0.00  0.00    -0.267 OA
ATOM     14  C   UNL     1       8.365  -2.920   6.984  0.00  0.00    +0.048 A 
ATOM     15  C   UNL     1       9.274  -2.755   5.938  0.00  0.00    +0.035 A 
ATOM     16  C   UNL     1       8.818  -2.640   4.655  0.00  0.00    +0.063 A 
ATOM     17 CL   UNL     1       9.953  -2.443   3.356  0.00  0.00    -0.082 Cl
ENDBRANCH   3   5
BRANCH   1  18
ATOM     18  C   UNL     1       5.428  -1.682   1.364  0.00  0.00    +0.178 C 
BRANCH  18  19
ATOM     19  N   UNL     1       4.145  -0.966   1.342  0.00  0.00    -0.304 NA
ATOM     20  H   UNL     1       4.205  -0.101   1.857  0.00  0.00    +0.123 HD
BRANCH  19  21
ATOM     21  C   UNL     1       3.698  -0.729  -0.037  0.00  0.00    +0.116 C 
BRANCH  21  25
ATOM     22  C   UNL     1      -0.032   1.352   0.011  0.00  0.00    +0.000 A 
ATOM     23  C   UNL     1       1.155   2.061  -0.004  0.00  0.00    +0.000 A 
ATOM     24  C   UNL     1       2.362   1.387  -0.020  0.00  0.00    +0.005 A 
ATOM     25  C   UNL     1       2.382   0.005  -0.019  0.00  0.00    -0.034 A 
ATOM     26  C   UNL     1       1.196  -0.703  -0.002  0.00  0.00    +0.005 A 
ATOM     27  C   UNL     1      -0.011  -0.030   0.012  0.00  0.00    +0.000 A 
ENDBRANCH  21  25
ENDBRANCH  19  21
ENDBRANCH  18  19
ENDBRANCH   1  18
TORSDOF 5
