REMARK  Name = CHEMBL1078929
REMARK  2 active torsions:
REMARK  status: ('A' for Active; 'I' for Inactive)
REMARK    1  A    between atoms: C_8  and  C_16
REMARK    2  A    between atoms: N_9  and  C_10
REMARK                            x       y       z     vdW  Elec       q    Type
REMARK                         _______ _______ _______ _____ _____    ______ ____
ROOT
ATOM      1  C   UNL     1       0.276   1.583   0.314  0.00  0.00    +0.002 A 
ATOM      2  C   UNL     1       1.533   2.170   0.351  0.00  0.00    +0.002 A 
ATOM      3  C   UNL     1       2.669   1.396   0.242  0.00  0.00    +0.028 A 
ATOM      4  C   UNL     1       2.554   0.021   0.093  0.00  0.00    +0.069 A 
ATOM      5  C   UNL     1       1.279  -0.574   0.055  0.00  0.00    +0.090 A 
ATOM      6  C   UNL     1       0.141   0.232   0.169  0.00  0.00    +0.030 A 
ATOM      7  N   UNL     1       1.464  -1.907  -0.096  0.00  0.00    -0.226 NA
ATOM      8  C   UNL     1       2.747  -2.170  -0.153  0.00  0.00    +0.167 A 
ATOM      9  N   UNL     1       3.463  -1.008  -0.041  0.00  0.00    -0.319 N 
ENDROOT
BRANCH   8  10
ATOM     10  C   UNL     1       3.332  -3.519  -0.314  0.00  0.00    +0.190 A 
ATOM     11  C   UNL     1       2.588  -4.784  -0.324  0.00  0.00    +0.191 A 
ATOM     12  N   UNL     1       3.440  -5.759  -0.487  0.00  0.00    -0.033 NA
ATOM     13  O   UNL     1       4.735  -5.195  -0.588  0.00  0.00    -0.240 OA
ATOM     14  N   UNL     1       4.602  -3.789  -0.478  0.00  0.00    -0.044 NA
ATOM     15  N   UNL     1       1.214  -4.921  -0.183  0.00  0.00    -0.339 N 
ATOM     16  H   UNL     1       0.658  -4.134  -0.066  0.00  0.00    +0.144 HD
ATOM     17  H   UNL     1       0.809  -5.802  -0.203  0.00  0.00    +0.144 HD
ENDBRANCH   8  10
BRANCH   9  18
ATOM     18  C   UNL     1       4.922  -0.882  -0.059  0.00  0.00    +0.089 C 
ATOM     19  C   UNL     1       5.397  -0.260   1.255  0.00  0.00    +0.025 C 
ATOM     20  C   UNL     1       6.921  -0.128   1.236  0.00  0.00    +0.002 C 
ATOM     21  C   UNL     1       7.341   0.766   0.068  0.00  0.00    +0.000 C 
ATOM     22  C   UNL     1       6.866   0.144  -1.247  0.00  0.00    +0.002 C 
ATOM     23  C   UNL     1       5.342   0.012  -1.228  0.00  0.00    +0.025 C 
ENDBRANCH   9  18
TORSDOF 2
