REMARK  Name = CHEMBL493911
REMARK  5 active torsions:
REMARK  status: ('A' for Active; 'I' for Inactive)
REMARK    1  A    between atoms: C_1  and  C_2
REMARK    2  A    between atoms: C_2  and  N_3
REMARK    3  A    between atoms: C_9  and  O_10
REMARK    4  A    between atoms: O_10  and  C_11
REMARK    5  A    between atoms: C_18  and  C_19
REMARK                            x       y       z     vdW  Elec       q    Type
REMARK                         _______ _______ _______ _____ _____    ______ ____
ROOT
ATOM      1  N   UNL     1       0.689  -0.541  -1.224  0.00  0.00    -0.320 N 
ATOM      2  C   UNL     1       0.059  -0.959  -2.373  0.00  0.00    +0.114 A 
ATOM      3  C   UNL     1       1.043  -1.595  -3.155  0.00  0.00    +0.111 A 
ATOM      4  C   UNL     1       0.674  -2.124  -4.395  0.00  0.00    +0.140 A 
ATOM      5  N   UNL     1      -0.568  -2.027  -4.817  0.00  0.00    -0.257 NA
ATOM      6  C   UNL     1      -1.515  -1.437  -4.107  0.00  0.00    +0.158 A 
ATOM      7  C   UNL     1      -1.242  -0.885  -2.868  0.00  0.00    +0.164 A 
ATOM      8  N   UNL     1       2.202  -1.535  -2.461  0.00  0.00    -0.224 NA
ATOM      9  C   UNL     1       2.004  -0.911  -1.325  0.00  0.00    +0.167 A 
ENDROOT
BRANCH   9  10
ATOM     10  C   UNL     1       3.043  -0.650  -0.305  0.00  0.00    +0.190 A 
ATOM     11  C   UNL     1       4.457  -1.033  -0.399  0.00  0.00    +0.191 A 
ATOM     12  N   UNL     1       5.063  -0.635   0.686  0.00  0.00    -0.033 NA
ATOM     13  O   UNL     1       4.105   0.005   1.510  0.00  0.00    -0.240 OA
ATOM     14  N   UNL     1       2.861  -0.032   0.833  0.00  0.00    -0.044 NA
ATOM     15  N   UNL     1       5.049  -1.705  -1.461  0.00  0.00    -0.339 N 
ATOM     16  H   UNL     1       4.516  -1.962  -2.230  0.00  0.00    +0.144 HD
ATOM     17  H   UNL     1       5.995  -1.917  -1.434  0.00  0.00    +0.144 HD
ENDBRANCH   9  10
BRANCH   1  19
ATOM     18  C   UNL     1       0.162   1.680  -0.346  0.00  0.00    +0.027 C 
ATOM     19  C   UNL     1       0.071   0.172  -0.103  0.00  0.00    +0.120 C 
ENDBRANCH   1  19
BRANCH   7  20
ATOM     20  O   UNL     1      -2.224  -0.280  -2.148  0.00  0.00    -0.485 OA
BRANCH  20  21
ATOM     21  C   UNL     1      -3.500  -0.142  -2.778  0.00  0.00    +0.170 C 
ATOM     22  C   UNL     1      -4.312  -1.424  -2.576  0.00  0.00    +0.025 C 
ATOM     23  C   UNL     1      -5.704  -1.240  -3.184  0.00  0.00    -0.079 C 
ATOM     24  N   UNL     1      -6.385  -0.119  -2.525  0.00  0.00    +0.379 N 
ATOM     25  C   UNL     1      -5.650   1.126  -2.775  0.00  0.00    -0.079 C 
ATOM     26  C   UNL     1      -4.256   1.033  -2.151  0.00  0.00    +0.025 C 
ATOM     27  H   UNL     1      -7.322  -0.035  -2.891  0.00  0.00    -0.086 HD
ATOM     28  H   UNL     1      -6.428  -0.290  -1.532  0.00  0.00    -0.086 HD
ENDBRANCH  20  21
ENDBRANCH   7  20
TORSDOF 4
