REMARK  Name = CHEMBL375882
REMARK  6 active torsions:
REMARK  status: ('A' for Active; 'I' for Inactive)
REMARK    1  A    between atoms: C_1  and  C_2
REMARK    2  A    between atoms: C_2  and  C_3
REMARK    3  A    between atoms: C_2  and  C_4
REMARK    4  A    between atoms: C_4  and  N_5
REMARK    5  A    between atoms: C_8  and  N_11
REMARK    6  A    between atoms: N_11  and  C_12
REMARK                            x       y       z     vdW  Elec       q    Type
REMARK                         _______ _______ _______ _____ _____    ______ ____
ROOT
ATOM      1  N   UNL     1      -2.076  -5.956  -1.402  0.00  0.00    -0.341 N 
ATOM      2  H   UNL     1      -1.248  -6.394  -1.146  0.00  0.00    +0.146 HD
ENDROOT
BRANCH   1   3
ATOM      3  C   UNL     1      -3.175  -6.718  -1.794  0.00  0.00    +0.035 A 
ATOM      4  C   UNL     1      -4.353  -6.104  -2.164  0.00  0.00    +0.023 A 
ATOM      5  C   UNL     1      -5.456  -6.857  -2.557  0.00  0.00    +0.002 A 
ATOM      6  C   UNL     1      -5.405  -8.218  -2.588  0.00  0.00    +0.010 A 
ATOM      7  C   UNL     1      -4.225  -8.882  -2.219  0.00  0.00    -0.000 A 
ATOM      8  C   UNL     1      -3.093  -8.124  -1.822  0.00  0.00    +0.006 A 
ATOM      9  C   UNL     1      -1.923  -8.814  -1.462  0.00  0.00    +0.028 A 
ATOM     10  C   UNL     1      -1.924 -10.175  -1.516  0.00  0.00    +0.083 A 
ATOM     11  N   UNL     1      -2.994 -10.860  -1.896  0.00  0.00    -0.366 N 
ATOM     12  C   UNL     1      -4.123 -10.283  -2.233  0.00  0.00    +0.091 A 
ATOM     13  H   UNL     1      -2.942 -11.828  -1.918  0.00  0.00    +0.165 HD
ENDBRANCH   1   3
BRANCH   1  17
ATOM     14  N   UNL     1      -1.416  -1.997  -0.116  0.00  0.00    +0.380 N 
ATOM     15  C   UNL     1      -0.868  -2.365  -1.427  0.00  0.00    -0.077 C 
ATOM     16  C   UNL     1      -0.772  -3.888  -1.534  0.00  0.00    +0.003 C 
ATOM     17  C   UNL     1      -2.170  -4.494  -1.376  0.00  0.00    +0.067 C 
ATOM     18  C   UNL     1      -2.762  -4.043  -0.038  0.00  0.00    +0.003 C 
ATOM     19  C   UNL     1      -2.784  -2.514   0.015  0.00  0.00    -0.077 C 
ATOM     20  H   UNL     1      -0.838  -2.391   0.611  0.00  0.00    -0.082 HD
BRANCH  14  21
ATOM     21  C   UNL     1      -1.433  -0.534   0.013  0.00  0.00    -0.076 C 
BRANCH  21  23
ATOM     22  C   UNL     1      -0.019   1.526   0.010  0.00  0.00    +0.005 C 
ATOM     23  C   UNL     1       0.002  -0.004   0.002  0.00  0.00    -0.034 C 
ATOM     24  C   UNL     1       0.742  -0.511   1.242  0.00  0.00    +0.005 C 
ENDBRANCH  21  23
ENDBRANCH  14  21
ENDBRANCH   1  17
TORSDOF 4
