REMARK  Name = CHEMBL427083
REMARK  4 active torsions:
REMARK  status: ('A' for Active; 'I' for Inactive)
REMARK    1  A    between atoms: C_4  and  C_7
REMARK    2  A    between atoms: C_7  and  N_8
REMARK    3  A    between atoms: C_11  and  C_14
REMARK    4  A    between atoms: N_16  and  C_17
REMARK                            x       y       z     vdW  Elec       q    Type
REMARK                         _______ _______ _______ _____ _____    ______ ____
ROOT
ATOM      1  N   UNL     1       4.139  -0.966   1.350  0.00  0.00    +0.382 N 
ATOM      2  C   UNL     1       4.418   0.319   2.002  0.00  0.00    -0.078 C 
ATOM      3  C   UNL     1       4.806   0.081   3.463  0.00  0.00    -0.006 C 
ATOM      4  C   UNL     1       6.056  -0.802   3.516  0.00  0.00    +0.072 C 
ATOM      5  C   UNL     1       5.778  -2.109   2.768  0.00  0.00    -0.006 C 
ATOM      6  C   UNL     1       5.354  -1.789   1.333  0.00  0.00    -0.078 C 
ATOM      7  H   UNL     1       3.414  -1.449   1.859  0.00  0.00    -0.081 HD
ENDROOT
BRANCH   4   8
ATOM      8  C   UNL     1       6.399  -1.105   4.952  0.00  0.00    +0.220 C 
ATOM      9  O   UNL     1       5.711  -0.660   5.847  0.00  0.00    -0.275 OA
ATOM     10  N   UNL     1       7.469  -1.871   5.242  0.00  0.00    -0.285 N 
ATOM     11  H   UNL     1       7.979  -2.282   4.527  0.00  0.00    +0.155 HD
BRANCH  10  12
ATOM     12  C   UNL     1       7.844  -2.075   6.577  0.00  0.00    +0.034 A 
ATOM     13  C   UNL     1       6.864  -2.176   7.566  0.00  0.00    +0.025 A 
ATOM     14  C   UNL     1       7.208  -2.374   8.871  0.00  0.00    +0.029 A 
ATOM     15  C   UNL     1       8.550  -2.478   9.232  0.00  0.00    +0.066 A 
ATOM     16  C   UNL     1       9.546  -2.377   8.243  0.00  0.00    +0.021 A 
ATOM     17  C   UNL     1       9.180  -2.179   6.907  0.00  0.00    +0.035 A 
ATOM     18  C   UNL     1      10.825  -2.525   8.931  0.00  0.00    +0.142 A 
ATOM     19  N   UNL     1      10.577  -2.694  10.198  0.00  0.00    -0.181 NA
ATOM     20  N   UNL     1       9.197  -2.672  10.426  0.00  0.00    -0.277 N 
ATOM     21  H   UNL     1       8.767  -2.777  11.289  0.00  0.00    +0.189 HD
ENDBRANCH  10  12
ENDBRANCH   4   8
BRANCH   1  22
ATOM     22  C   UNL     1       3.693  -0.727  -0.029  0.00  0.00    -0.043 C 
BRANCH  22  26
ATOM     23  C   UNL     1      -0.028   1.371   0.022  0.00  0.00    +0.000 A 
ATOM     24  C   UNL     1       1.162   2.075   0.005  0.00  0.00    +0.000 A 
ATOM     25  C   UNL     1       2.366   1.396  -0.011  0.00  0.00    +0.002 A 
ATOM     26  C   UNL     1       2.380   0.013  -0.010  0.00  0.00    -0.064 A 
ATOM     27  C   UNL     1       1.190  -0.690   0.008  0.00  0.00    +0.002 A 
ATOM     28  C   UNL     1      -0.014  -0.011   0.022  0.00  0.00    +0.000 A 
ENDBRANCH  22  26
ENDBRANCH   1  22
TORSDOF 4
