REMARK  Name = CHEMBL450487
REMARK  9 active torsions:
REMARK  status: ('A' for Active; 'I' for Inactive)
REMARK    1  A    between atoms: C_1  and  C_2
REMARK    2  A    between atoms: C_2  and  N_3
REMARK    3  A    between atoms: C_5  and  O_24
REMARK    4  A    between atoms: C_8  and  C_18
REMARK    5  A    between atoms: C_11  and  C_12
REMARK    6  A    between atoms: O_24  and  C_25
REMARK    7  A    between atoms: C_25  and  C_26
REMARK    8  A    between atoms: C_26  and  C_27
REMARK    9  A    between atoms: C_27  and  N_28
REMARK                            x       y       z     vdW  Elec       q    Type
REMARK                         _______ _______ _______ _____ _____    ______ ____
ROOT
ATOM      1  N   UNL     1      -1.372  -0.511   0.012  0.00  0.00    -0.320 N 
ATOM      2  C   UNL     1      -2.131  -0.795   1.124  0.00  0.00    +0.115 A 
ATOM      3  C   UNL     1      -1.927  -0.724   2.503  0.00  0.00    +0.164 A 
ATOM      4  C   UNL     1      -2.950  -1.104   3.352  0.00  0.00    +0.159 A 
ATOM      5  N   UNL     1      -4.110  -1.531   2.882  0.00  0.00    -0.249 NA
ATOM      6  C   UNL     1      -4.360  -1.619   1.585  0.00  0.00    +0.102 A 
ATOM      7  C   UNL     1      -3.374  -1.252   0.648  0.00  0.00    +0.119 A 
ATOM      8  N   UNL     1      -3.320  -1.227  -0.695  0.00  0.00    -0.223 NA
ATOM      9  C   UNL     1      -2.147  -0.787  -1.083  0.00  0.00    +0.167 A 
ENDROOT
BRANCH   9  10
ATOM     10  C   UNL     1      -1.724  -0.617  -2.491  0.00  0.00    +0.190 A 
ATOM     11  C   UNL     1      -2.542  -0.902  -3.676  0.00  0.00    +0.191 A 
ATOM     12  N   UNL     1      -1.834  -0.631  -4.738  0.00  0.00    -0.033 NA
ATOM     13  O   UNL     1      -0.564  -0.173  -4.310  0.00  0.00    -0.240 OA
ATOM     14  N   UNL     1      -0.558  -0.182  -2.894  0.00  0.00    -0.044 NA
ATOM     15  N   UNL     1      -3.847  -1.377  -3.668  0.00  0.00    -0.339 N 
ATOM     16  H   UNL     1      -4.295  -1.551  -2.826  0.00  0.00    +0.144 HD
ATOM     17  H   UNL     1      -4.310  -1.536  -4.505  0.00  0.00    +0.144 HD
ENDBRANCH   9  10
BRANCH   6  18
ATOM     18  C   UNL     1      -5.679  -2.105   1.117  0.00  0.00    +0.040 A 
ATOM     19  C   UNL     1      -6.448  -3.060   1.720  0.00  0.00    +0.115 A 
ATOM     20  N   UNL     1      -7.565  -3.209   0.981  0.00  0.00    -0.284 N 
ATOM     21  H   UNL     1      -8.294  -3.821   1.169  0.00  0.00    +0.188 HD
ATOM     22  N   UNL     1      -7.493  -2.329  -0.105  0.00  0.00    -0.182 NA
ATOM     23  C   UNL     1      -6.373  -1.662  -0.027  0.00  0.00    +0.144 A 
ENDBRANCH   6  18
BRANCH   1  25
ATOM     24  C   UNL     1      -0.019   1.526   0.010  0.00  0.00    +0.027 C 
ATOM     25  C   UNL     1       0.002  -0.004   0.002  0.00  0.00    +0.120 C 
ENDBRANCH   1  25
BRANCH   3  26
ATOM     26  O   UNL     1      -0.740  -0.289   3.004  0.00  0.00    -0.488 OA
BRANCH  26  27
ATOM     27  C   UNL     1      -0.613  -0.246   4.427  0.00  0.00    +0.227 C 
BRANCH  27  28
ATOM     28  C   UNL     1       0.780   0.266   4.800  0.00  0.00    +0.021 C 
BRANCH  28  29
ATOM     29  C   UNL     1       0.916   0.311   6.323  0.00  0.00    -0.083 C 
BRANCH  29  30
ATOM     30  N   UNL     1       2.253   0.802   6.681  0.00  0.00    +0.378 N 
ATOM     31  H   UNL     1       2.383   1.729   6.304  0.00  0.00    -0.090 HD
ATOM     32  H   UNL     1       2.343   0.832   7.685  0.00  0.00    -0.090 HD
ATOM     33  H   UNL     1       2.952   0.183   6.299  0.00  0.00    -0.090 HD
ENDBRANCH  29  30
ENDBRANCH  28  29
ENDBRANCH  27  28
ENDBRANCH  26  27
ENDBRANCH   3  26
TORSDOF 8
