REMARK  Name = CHEMBL575340
REMARK  3 active torsions:
REMARK  status: ('A' for Active; 'I' for Inactive)
REMARK    1  A    between atoms: C_8  and  N_10
REMARK    2  A    between atoms: C_13  and  N_23
REMARK    3  A    between atoms: N_23  and  C_24
REMARK                            x       y       z     vdW  Elec       q    Type
REMARK                         _______ _______ _______ _____ _____    ______ ____
ROOT
ATOM      1  N   UNL     1       3.473  -3.620   0.080  0.00  0.00    -0.325 N 
ATOM      2  C   UNL     1       4.561  -4.234  -0.520  0.00  0.00    +0.126 A 
ATOM      3  C   UNL     1       5.126  -3.698  -1.674  0.00  0.00    +0.087 A 
ATOM      4  C   UNL     1       6.216  -4.348  -2.242  0.00  0.00    +0.130 A 
ATOM      5  N   UNL     1       6.681  -5.455  -1.667  0.00  0.00    -0.199 NA
ATOM      6  C   UNL     1       6.119  -5.937  -0.569  0.00  0.00    +0.221 A 
ATOM      7  N   UNL     1       5.083  -5.341   0.002  0.00  0.00    -0.199 NA
ATOM      8  N   UNL     1       6.630  -7.090   0.000  0.00  0.00    -0.303 N 
ATOM      9  C   UNL     1       6.032  -7.664   1.216  0.00  0.00    +0.089 C 
ATOM     10  C   UNL     1       5.768  -9.153   0.972  0.00  0.00    -0.063 C 
ATOM     11  N   UNL     1       7.012  -9.805   0.542  0.00  0.00    +0.381 N 
ATOM     12  C   UNL     1       7.440  -9.262  -0.753  0.00  0.00    -0.063 C 
ATOM     13  C   UNL     1       7.783  -7.782  -0.597  0.00  0.00    +0.089 C 
ATOM     14  H   UNL     1       3.086  -3.997   0.886  0.00  0.00    +0.148 HD
ATOM     15  H   UNL     1       7.732  -9.640   1.230  0.00  0.00    -0.086 HD
ATOM     16  H   UNL     1       6.856 -10.799   0.455  0.00  0.00    -0.086 HD
ENDROOT
BRANCH   1  24
ATOM     17  C   UNL     1       0.103   1.364   0.259  0.00  0.00    +0.000 A 
ATOM     18  C   UNL     1       1.327   1.995   0.388  0.00  0.00    +0.000 A 
ATOM     19  C   UNL     1       2.492   1.253   0.352  0.00  0.00    +0.004 A 
ATOM     20  C   UNL     1       2.438  -0.121   0.188  0.00  0.00    -0.042 A 
ATOM     21  C   UNL     1       1.215  -0.751   0.059  0.00  0.00    -0.042 A 
ATOM     22  C   UNL     1       0.048  -0.006   0.096  0.00  0.00    +0.004 A 
ATOM     23  C   UNL     1       1.423  -2.242  -0.107  0.00  0.00    +0.058 C 
ATOM     24  C   UNL     1       2.906  -2.401  -0.504  0.00  0.00    +0.080 C 
ATOM     25  C   UNL     1       3.551  -1.144   0.117  0.00  0.00    +0.058 C 
ENDBRANCH   1  24
BRANCH   4  26
ATOM     26  N   UNL     1       6.812  -3.851  -3.392  0.00  0.00    -0.299 N 
ATOM     27  H   UNL     1       6.418  -3.093  -3.853  0.00  0.00    +0.154 HD
BRANCH  26  28
ATOM     28  C   UNL     1       7.975  -4.439  -3.885  0.00  0.00    +0.035 A 
ATOM     29  C   UNL     1       8.236  -4.470  -5.255  0.00  0.00    +0.043 A 
ATOM     30  C   UNL     1       9.399  -5.061  -5.702  0.00  0.00    +0.112 A 
ATOM     31  N   UNL     1      10.258  -5.592  -4.852  0.00  0.00    -0.263 NA
ATOM     32  C   UNL     1      10.047  -5.582  -3.550  0.00  0.00    +0.112 A 
ATOM     33  C   UNL     1       8.911  -5.006  -3.021  0.00  0.00    +0.043 A 
ENDBRANCH  26  28
ENDBRANCH   4  26
TORSDOF 3
