REMARK  Name = CHEMBL188434
REMARK  6 active torsions:
REMARK  status: ('A' for Active; 'I' for Inactive)
REMARK    1  A    between atoms: C_1  and  C_2
REMARK    2  A    between atoms: C_2  and  N_3
REMARK    3  A    between atoms: C_5  and  C_18
REMARK    4  A    between atoms: C_11  and  C_12
REMARK    5  A    between atoms: C_18  and  N_19
REMARK    6  A    between atoms: N_19  and  C_20
REMARK                            x       y       z     vdW  Elec       q    Type
REMARK                         _______ _______ _______ _____ _____    ______ ____
ROOT
ATOM      1  N   UNL     1       0.308  -0.314   0.839  0.00  0.00    -0.322 N 
ATOM      2  C   UNL     1       1.576  -0.623   1.270  0.00  0.00    +0.076 A 
ATOM      3  C   UNL     1       2.847  -0.574   0.708  0.00  0.00    +0.010 A 
ATOM      4  C   UNL     1       3.924  -0.980   1.465  0.00  0.00    +0.117 A 
ATOM      5  N   UNL     1       3.769  -1.411   2.706  0.00  0.00    -0.261 NA
ATOM      6  C   UNL     1       2.590  -1.478   3.287  0.00  0.00    +0.140 A 
ATOM      7  C   UNL     1       1.441  -1.087   2.595  0.00  0.00    +0.108 A 
ATOM      8  N   UNL     1       0.124  -1.039   2.901  0.00  0.00    -0.224 NA
ATOM      9  C   UNL     1      -0.549  -0.579   1.874  0.00  0.00    +0.167 A 
ENDROOT
BRANCH   9  10
ATOM     10  C   UNL     1      -2.015  -0.380   1.838  0.00  0.00    +0.190 A 
ATOM     11  C   UNL     1      -2.948  -0.652   2.939  0.00  0.00    +0.191 A 
ATOM     12  N   UNL     1      -4.153  -0.356   2.537  0.00  0.00    -0.033 NA
ATOM     13  O   UNL     1      -4.066   0.109   1.202  0.00  0.00    -0.240 OA
ATOM     14  N   UNL     1      -2.702   0.075   0.822  0.00  0.00    -0.044 NA
ATOM     15  N   UNL     1      -2.606  -1.143   4.192  0.00  0.00    -0.339 N 
ATOM     16  H   UNL     1      -1.678  -1.336   4.401  0.00  0.00    +0.144 HD
ATOM     17  H   UNL     1      -3.294  -1.292   4.859  0.00  0.00    +0.144 HD
ENDBRANCH   9  10
BRANCH   1  19
ATOM     18  C   UNL     1      -0.443  -0.952  -1.400  0.00  0.00    +0.027 C 
ATOM     19  C   UNL     1      -0.058   0.209  -0.480  0.00  0.00    +0.120 C 
ENDBRANCH   1  19
BRANCH   3  20
ATOM     20  C   UNL     1       3.042  -0.086  -0.705  0.00  0.00    +0.120 C 
BRANCH  20  21
ATOM     21  N   UNL     1       3.039   1.383  -0.720  0.00  0.00    -0.309 NA
ATOM     22  H   UNL     1       2.235   1.748  -0.233  0.00  0.00    +0.123 HD
BRANCH  21  23
ATOM     23  C   UNL     1       3.099   1.895  -2.096  0.00  0.00    +0.050 C 
ATOM     24  C   UNL     1       4.559   1.968  -2.551  0.00  0.00    -0.001 C 
ATOM     25  C   UNL     1       4.620   2.576  -3.954  0.00  0.00    -0.081 C 
ATOM     26  N   UNL     1       4.045   3.926  -3.932  0.00  0.00    +0.379 N 
ATOM     27  C   UNL     1       2.625   3.857  -3.565  0.00  0.00    -0.081 C 
ATOM     28  C   UNL     1       2.488   3.298  -2.147  0.00  0.00    -0.001 C 
ATOM     29  H   UNL     1       4.538   4.490  -3.256  0.00  0.00    -0.086 HD
ATOM     30  H   UNL     1       4.135   4.345  -4.845  0.00  0.00    -0.086 HD
ENDBRANCH  21  23
ENDBRANCH  20  21
ENDBRANCH   3  20
TORSDOF 5
