REMARK  Name = CHEMBL570126
REMARK  5 active torsions:
REMARK  status: ('A' for Active; 'I' for Inactive)
REMARK    1  A    between atoms: C_1  and  C_2
REMARK    2  A    between atoms: C_8  and  N_12
REMARK    3  A    between atoms: C_16  and  C_19
REMARK    4  A    between atoms: N_21  and  C_22
REMARK    5  A    between atoms: N_24  and  C_25
REMARK                            x       y       z     vdW  Elec       q    Type
REMARK                         _______ _______ _______ _____ _____    ______ ____
ROOT
ATOM      1  N   UNL     1      -0.254   1.427   2.842  0.00  0.00    -0.311 N 
ATOM      2  C   UNL     1      -0.750   2.798   2.662  0.00  0.00    +0.125 C 
ATOM      3  C   UNL     1       0.451   3.750   2.602  0.00  0.00    +0.127 C 
ATOM      4  N   UNL     1       1.336   3.460   3.739  0.00  0.00    -0.297 N 
ATOM      5  C   UNL     1       1.833   2.089   3.920  0.00  0.00    +0.090 C 
ATOM      6  C   UNL     1       0.627   1.136   3.982  0.00  0.00    +0.128 C 
ATOM      7  C   UNL     1       2.629   1.998   5.223  0.00  0.00    +0.029 C 
ATOM      8  C   UNL     1       1.694   4.453   4.617  0.00  0.00    +0.196 C 
ATOM      9  N   UNL     1       1.935   5.727   4.154  0.00  0.00    -0.224 N 
ATOM     10  N   UNL     1       1.804   4.188   5.897  0.00  0.00    -0.218 NA
ATOM     11  H   UNL     1       2.101   6.448   4.782  0.00  0.00    +0.167 HD
ENDROOT
BRANCH   1  19
ATOM     12  C   UNL     1      -3.043   0.678   4.267  0.00  0.00    +0.046 C 
ATOM     13  C   UNL     1      -2.918  -0.240   3.078  0.00  0.00    -0.021 A 
ATOM     14  C   UNL     1      -3.802  -1.175   2.692  0.00  0.00    +0.088 A 
ATOM     15  N   UNL     1      -3.344  -1.810   1.567  0.00  0.00    -0.345 N 
ATOM     16  H   UNL     1      -3.810  -2.524   1.103  0.00  0.00    +0.167 HD
ATOM     17  C   UNL     1      -2.135  -1.290   1.194  0.00  0.00    +0.143 A 
ATOM     18  C   UNL     1      -1.816  -0.279   2.119  0.00  0.00    +0.061 A 
ATOM     19  C   UNL     1      -0.614   0.426   1.957  0.00  0.00    +0.134 A 
ATOM     20  N   UNL     1       0.171   0.108   0.932  0.00  0.00    -0.220 NA
ATOM     21  C   UNL     1      -0.169  -0.847   0.084  0.00  0.00    +0.225 A 
ATOM     22  N   UNL     1      -1.282  -1.539   0.202  0.00  0.00    -0.218 NA
ENDBRANCH   1  19
BRANCH  10  23
ATOM     23  C   UNL     1       2.285   5.142   6.755  0.00  0.00    +0.068 A 
ATOM     24  C   UNL     1       3.524   5.741   6.515  0.00  0.00    +0.028 A 
ATOM     25  C   UNL     1       4.002   6.701   7.383  0.00  0.00    +0.003 A 
ATOM     26  C   UNL     1       3.257   7.072   8.488  0.00  0.00    +0.015 A 
ATOM     27  C   UNL     1       2.029   6.483   8.732  0.00  0.00    +0.020 A 
ATOM     28  C   UNL     1       1.536   5.525   7.869  0.00  0.00    +0.043 A 
ATOM     29 BR   UNL     1       1.020   6.997  10.247  0.00  0.00    -0.050 Br
ENDBRANCH  10  23
BRANCH   9  30
ATOM     30  C   UNL     1       1.942   5.974   2.822  0.00  0.00    +0.173 C 
ATOM     31  N   UNL     1       1.948   6.181   1.705  0.00  0.00    -0.174 NA
ENDBRANCH   9  30
TORSDOF 3
