REMARK  Name = CHEMBL570820
REMARK  4 active torsions:
REMARK  status: ('A' for Active; 'I' for Inactive)
REMARK    1  A    between atoms: C_1  and  C_2
REMARK    2  A    between atoms: C_8  and  N_12
REMARK    3  A    between atoms: C_16  and  C_19
REMARK    4  A    between atoms: N_22  and  C_23
REMARK                            x       y       z     vdW  Elec       q    Type
REMARK                         _______ _______ _______ _____ _____    ______ ____
ROOT
ATOM      1  N   UNL     1      -0.386   0.850   2.447  0.00  0.00    -0.311 N 
ATOM      2  C   UNL     1      -0.017   1.962   1.560  0.00  0.00    +0.125 C 
ATOM      3  C   UNL     1       1.061   2.804   2.254  0.00  0.00    +0.128 C 
ATOM      4  N   UNL     1       0.614   3.107   3.620  0.00  0.00    -0.280 N 
ATOM      5  C   UNL     1       0.244   1.995   4.507  0.00  0.00    +0.092 C 
ATOM      6  C   UNL     1      -0.839   1.153   3.812  0.00  0.00    +0.128 C 
ATOM      7  C   UNL     1      -0.301   2.549   5.825  0.00  0.00    +0.030 C 
ATOM      8  C   UNL     1       0.544   4.382   4.053  0.00  0.00    +0.307 C 
ATOM      9  O   UNL     1       0.283   4.615   5.217  0.00  0.00    -0.252 OA
ATOM     10  N   UNL     1       0.762   5.398   3.194  0.00  0.00    -0.269 N 
ATOM     11  H   UNL     1       0.868   5.218   2.247  0.00  0.00    +0.156 HD
ENDROOT
BRANCH   1  19
ATOM     12  C   UNL     1      -3.288   0.788   1.050  0.00  0.00    +0.046 C 
ATOM     13  C   UNL     1      -2.688  -0.578   0.835  0.00  0.00    -0.021 A 
ATOM     14  C   UNL     1      -3.254  -1.607   0.184  0.00  0.00    +0.088 A 
ATOM     15  N   UNL     1      -2.407  -2.685   0.194  0.00  0.00    -0.345 N 
ATOM     16  H   UNL     1      -2.596  -3.544  -0.214  0.00  0.00    +0.167 HD
ATOM     17  C   UNL     1      -1.256  -2.370   0.862  0.00  0.00    +0.143 A 
ATOM     18  C   UNL     1      -1.376  -1.034   1.289  0.00  0.00    +0.061 A 
ATOM     19  C   UNL     1      -0.315  -0.458   2.003  0.00  0.00    +0.134 A 
ATOM     20  N   UNL     1       0.762  -1.201   2.242  0.00  0.00    -0.220 NA
ATOM     21  C   UNL     1       0.835  -2.450   1.820  0.00  0.00    +0.225 A 
ATOM     22  N   UNL     1      -0.139  -3.034   1.155  0.00  0.00    -0.218 NA
ENDBRANCH   1  19
BRANCH  10  23
ATOM     23  C   UNL     1       0.838   6.713   3.670  0.00  0.00    +0.036 A 
ATOM     24  C   UNL     1       1.371   6.968   4.927  0.00  0.00    +0.026 A 
ATOM     25  C   UNL     1       1.445   8.265   5.395  0.00  0.00    +0.041 A 
ATOM     26  C   UNL     1       0.988   9.312   4.612  0.00  0.00    +0.137 A 
ATOM     27  C   UNL     1       0.456   9.060   3.358  0.00  0.00    +0.055 A 
ATOM     28  C   UNL     1       0.386   7.763   2.884  0.00  0.00    +0.041 A 
ATOM     29 BR   UNL     1      -0.168  10.491   2.291  0.00  0.00    -0.047 Br
ATOM     30  F   UNL     1       1.060  10.580   5.072  0.00  0.00    -0.204 F 
ENDBRANCH  10  23
TORSDOF 2
