REMARK  Name = CHEMBL591986
REMARK  3 active torsions:
REMARK  status: ('A' for Active; 'I' for Inactive)
REMARK    1  A    between atoms: C_6  and  C_7
REMARK    2  A    between atoms: C_10  and  N_20
REMARK    3  A    between atoms: C_11  and  N_13
REMARK                            x       y       z     vdW  Elec       q    Type
REMARK                         _______ _______ _______ _____ _____    ______ ____
ROOT
ATOM      1  C   UNL     1      -1.214  -0.874  -0.006  0.00  0.00    +0.091 A 
ATOM      2  C   UNL     1      -2.381  -0.123  -0.090  0.00  0.00    +0.141 A 
ATOM      3  N   UNL     1      -3.560  -0.723  -0.066  0.00  0.00    -0.235 NA
ATOM      4  C   UNL     1      -3.632  -2.042   0.038  0.00  0.00    +0.162 A 
ATOM      5  C   UNL     1      -2.456  -2.803   0.123  0.00  0.00    +0.162 A 
ATOM      6  N   UNL     1      -1.279  -2.201   0.093  0.00  0.00    -0.227 NA
ENDROOT
BRANCH   5   7
ATOM      7  N   UNL     1      -2.529  -4.188   0.233  0.00  0.00    -0.314 N 
ATOM      8  C   UNL     1      -2.395  -5.007  -0.989  0.00  0.00    +0.104 C 
ATOM      9  C   UNL     1      -1.521  -6.248  -0.731  0.00  0.00    -0.000 C 
ATOM     10  C   UNL     1      -0.358  -5.868   0.158  0.00  0.00    -0.081 C 
ATOM     11  N   UNL     1      -0.712  -6.125   1.552  0.00  0.00    +0.380 N 
ATOM     12  C   UNL     1      -1.364  -5.057   2.208  0.00  0.00    -0.063 C 
ATOM     13  C   UNL     1      -2.726  -4.776   1.542  0.00  0.00    +0.087 C 
ATOM     14  H   UNL     1      -1.315  -6.934   1.583  0.00  0.00    -0.086 HD
ATOM     15  H   UNL     1       0.132  -6.343   2.060  0.00  0.00    -0.086 HD
ENDBRANCH   5   7
BRANCH   1  21
ATOM     16  C   UNL     1       0.197   1.198  -0.034  0.00  0.00    +0.030 A 
ATOM     17  C   UNL     1       1.444   1.787  -0.059  0.00  0.00    +0.111 A 
ATOM     18  N   UNL     1       2.539   1.052  -0.084  0.00  0.00    -0.263 NA
ATOM     19  C   UNL     1       2.497  -0.267  -0.086  0.00  0.00    +0.111 A 
ATOM     20  C   UNL     1       1.291  -0.936  -0.061  0.00  0.00    +0.030 A 
ATOM     21  C   UNL     1       0.105  -0.197  -0.034  0.00  0.00    +0.005 A 
ENDBRANCH   1  21
BRANCH   4  22
ATOM     22  N   UNL     1      -4.872  -2.671   0.064  0.00  0.00    -0.312 N 
ATOM     23  C   UNL     1      -5.095  -4.124   0.066  0.00  0.00    +0.106 C 
ATOM     24  C   UNL     1      -6.621  -4.353   0.073  0.00  0.00    +0.020 C 
ATOM     25  C   UNL     1      -7.175  -3.021  -0.498  0.00  0.00    +0.020 C 
ATOM     26  C   UNL     1      -6.179  -1.992   0.100  0.00  0.00    +0.106 C 
ENDBRANCH   4  22
TORSDOF 3
