REMARK  Name = CHEMBL466496
REMARK  5 active torsions:
REMARK  status: ('A' for Active; 'I' for Inactive)
REMARK    1  A    between atoms: C_1  and  C_2
REMARK    2  A    between atoms: C_2  and  C_4
REMARK    3  A    between atoms: C_2  and  N_10
REMARK    4  A    between atoms: C_12  and  N_17
REMARK    5  A    between atoms: N_17  and  C_18
REMARK                            x       y       z     vdW  Elec       q    Type
REMARK                         _______ _______ _______ _____ _____    ______ ____
ROOT
ATOM      1  N   UNL     1      -1.372  -0.511   0.012  0.00  0.00    -0.274 NA
ATOM      2  C   UNL     1      -1.775  -1.264   0.980  0.00  0.00    +0.114 C 
ATOM      3  C   UNL     1      -1.173  -1.831   2.248  0.00  0.00    +0.198 C 
ATOM      4  C   UNL     1      -2.593  -1.874   2.771  0.00  0.00    +0.230 C 
ATOM      5  O   UNL     1      -3.127  -1.850   3.854  0.00  0.00    -0.286 OA
ATOM      6  C   UNL     1      -3.038  -1.955   1.349  0.00  0.00    +0.246 C 
ATOM      7  O   UNL     1      -4.004  -2.390   0.758  0.00  0.00    -0.282 OA
ENDROOT
BRANCH   1   9
ATOM      8  C   UNL     1      -0.019   1.526   0.010  0.00  0.00    +0.038 C 
ATOM      9  C   UNL     1       0.002  -0.004   0.002  0.00  0.00    +0.133 C 
BRANCH   9  10
ATOM     10  C   UNL     1       0.707  -0.490  -1.238  0.00  0.00    -0.023 A 
ATOM     11  C   UNL     1       0.038  -0.522  -2.447  0.00  0.00    +0.006 A 
ATOM     12  C   UNL     1       0.685  -0.967  -3.584  0.00  0.00    +0.000 A 
ATOM     13  C   UNL     1       2.002  -1.381  -3.513  0.00  0.00    +0.000 A 
ATOM     14  C   UNL     1       2.672  -1.349  -2.304  0.00  0.00    +0.000 A 
ATOM     15  C   UNL     1       2.026  -0.899  -1.167  0.00  0.00    +0.006 A 
ENDBRANCH   9  10
ENDBRANCH   1   9
BRANCH   3  16
ATOM     16  N   UNL     1      -0.566  -3.152   2.075  0.00  0.00    -0.329 N 
ATOM     17  H   UNL     1      -0.866  -3.735   1.360  0.00  0.00    +0.147 HD
BRANCH  16  18
ATOM     18  C   UNL     1       0.443  -3.572   2.937  0.00  0.00    +0.031 A 
ATOM     19  C   UNL     1       0.886  -2.752   3.975  0.00  0.00    +0.042 A 
ATOM     20  C   UNL     1       1.887  -3.206   4.807  0.00  0.00    +0.112 A 
ATOM     21  N   UNL     1       2.425  -4.399   4.630  0.00  0.00    -0.263 NA
ATOM     22  C   UNL     1       2.034  -5.204   3.660  0.00  0.00    +0.112 A 
ATOM     23  C   UNL     1       1.034  -4.827   2.789  0.00  0.00    +0.042 A 
ENDBRANCH  16  18
ENDBRANCH   3  16
TORSDOF 4
