REMARK  Name = CHEMBL220241
REMARK  11 active torsions:
REMARK  status: ('A' for Active; 'I' for Inactive)
REMARK    1  A    between atoms: C_1  and  C_2
REMARK    2  A    between atoms: C_2  and  N_3
REMARK    3  A    between atoms: C_6  and  O_18
REMARK    4  A    between atoms: C_11  and  C_12
REMARK    5  A    between atoms: O_18  and  C_19
REMARK    6  A    between atoms: C_23  and  N_25
REMARK    7  A    between atoms: C_26  and  C_28
REMARK    8  A    between atoms: C_31  and  O_34
REMARK    9  A    between atoms: O_34  and  C_35
REMARK   10  A    between atoms: C_35  and  C_36
REMARK   11  A    between atoms: C_36  and  N_37
REMARK                            x       y       z     vdW  Elec       q    Type
REMARK                         _______ _______ _______ _____ _____    ______ ____
ROOT
ATOM      1  C   UNL     1      -3.256  -1.022  -5.176  0.00  0.00    +0.132 A 
ATOM      2  C   UNL     1      -2.214  -1.592  -5.896  0.00  0.00    +0.046 A 
ATOM      3  C   UNL     1      -2.428  -2.041  -7.185  0.00  0.00    +0.005 A 
ATOM      4  C   UNL     1      -3.678  -1.926  -7.762  0.00  0.00    +0.023 A 
ATOM      5  C   UNL     1      -4.724  -1.357  -7.046  0.00  0.00    +0.037 A 
ATOM      6  C   UNL     1      -4.513  -0.910  -5.749  0.00  0.00    +0.069 A 
ENDROOT
BRANCH   5   7
ATOM      7  N   UNL     1      -5.989  -1.240  -7.630  0.00  0.00    -0.281 N 
ATOM      8  C   UNL     1      -6.763  -0.172  -7.353  0.00  0.00    +0.248 C 
ATOM      9  O   UNL     1      -6.400   0.644  -6.527  0.00  0.00    -0.270 OA
ATOM     10  H   UNL     1      -6.310  -1.927  -8.234  0.00  0.00    +0.155 HD
BRANCH   8  11
ATOM     11  C   UNL     1      -8.051   0.008  -8.051  0.00  0.00    +0.037 A 
ATOM     12  C   UNL     1      -8.472  -0.932  -8.996  0.00  0.00    +0.016 A 
ATOM     13  C   UNL     1      -9.674  -0.761  -9.645  0.00  0.00    +0.046 A 
ATOM     14  C   UNL     1     -10.468   0.344  -9.362  0.00  0.00    +0.120 A 
ATOM     15  C   UNL     1     -10.052   1.282  -8.423  0.00  0.00    +0.046 A 
ATOM     16  C   UNL     1      -8.854   1.115  -7.765  0.00  0.00    +0.016 A 
BRANCH  14  17
ATOM     17  O   UNL     1     -11.652   0.509 -10.004  0.00  0.00    -0.494 OA
BRANCH  17  18
ATOM     18  C   UNL     1     -12.418   1.667  -9.665  0.00  0.00    +0.210 C 
BRANCH  18  19
ATOM     19  C   UNL     1     -13.710   1.682 -10.485  0.00  0.00    -0.037 C 
BRANCH  19  20
ATOM     20  N   UNL     1     -14.547   0.538 -10.099  0.00  0.00    +0.385 N 
ATOM     21  C   UNL     1     -15.720   0.469 -10.983  0.00  0.00    -0.050 C 
ATOM     22  C   UNL     1     -16.590  -0.724 -10.579  0.00  0.00    +0.141 C 
ATOM     23  O   UNL     1     -16.973  -0.586  -9.208  0.00  0.00    -0.383 OA
ATOM     24  C   UNL     1     -15.864  -0.491  -8.310  0.00  0.00    +0.141 C 
ATOM     25  C   UNL     1     -14.992   0.703  -8.709  0.00  0.00    -0.050 C 
ATOM     26  H   UNL     1     -14.012  -0.314 -10.183  0.00  0.00    -0.081 HD
ENDBRANCH  19  20
ENDBRANCH  18  19
ENDBRANCH  17  18
ENDBRANCH  14  17
ENDBRANCH   8  11
ENDBRANCH   5   7
BRANCH   1  27
ATOM     27  O   UNL     1      -3.044  -0.581  -3.908  0.00  0.00    -0.438 OA
BRANCH  27  31
ATOM     28  N   UNL     1      -1.216   3.117  -1.252  0.00  0.00    -0.322 N 
ATOM     29  C   UNL     1      -1.546   2.314  -2.319  0.00  0.00    +0.076 A 
ATOM     30  C   UNL     1      -2.233   1.118  -2.472  0.00  0.00    +0.095 A 
ATOM     31  C   UNL     1      -2.375   0.588  -3.744  0.00  0.00    +0.223 A 
ATOM     32  N   UNL     1      -1.867   1.203  -4.804  0.00  0.00    -0.219 NA
ATOM     33  C   UNL     1      -1.208   2.339  -4.710  0.00  0.00    +0.144 A 
ATOM     34  C   UNL     1      -1.019   2.944  -3.466  0.00  0.00    +0.108 A 
ATOM     35  N   UNL     1      -0.405   4.077  -3.051  0.00  0.00    -0.224 NA
ATOM     36  C   UNL     1      -0.521   4.189  -1.751  0.00  0.00    +0.167 A 
BRANCH  36  37
ATOM     37  C   UNL     1       0.021   5.302  -0.942  0.00  0.00    +0.190 A 
ATOM     38  C   UNL     1       0.761   6.460  -1.458  0.00  0.00    +0.191 A 
ATOM     39  N   UNL     1       1.075   7.228  -0.451  0.00  0.00    -0.033 NA
ATOM     40  O   UNL     1       0.572   6.628   0.730  0.00  0.00    -0.240 OA
ATOM     41  N   UNL     1      -0.083   5.428   0.356  0.00  0.00    -0.044 NA
ATOM     42  N   UNL     1       1.074   6.698  -2.790  0.00  0.00    -0.339 N 
ATOM     43  H   UNL     1       0.798   6.067  -3.473  0.00  0.00    +0.144 HD
ATOM     44  H   UNL     1       1.570   7.495  -3.037  0.00  0.00    +0.144 HD
ENDBRANCH  36  37
BRANCH  28  46
ATOM     45  C   UNL     1      -2.901   3.514   0.474  0.00  0.00    +0.027 C 
ATOM     46  C   UNL     1      -1.549   2.875   0.153  0.00  0.00    +0.120 C 
ENDBRANCH  28  46
ENDBRANCH  27  31
ENDBRANCH   1  27
TORSDOF 10
