REMARK  Name = CHEMBL1078820
REMARK  3 active torsions:
REMARK  status: ('A' for Active; 'I' for Inactive)
REMARK    1  A    between atoms: C_8  and  C_15
REMARK    2  A    between atoms: N_9  and  C_10
REMARK    3  A    between atoms: C_10  and  C_11
REMARK                            x       y       z     vdW  Elec       q    Type
REMARK                         _______ _______ _______ _____ _____    ______ ____
ROOT
ATOM      1  C   UNL     1      -0.016   1.361   0.009  0.00  0.00    +0.002 A 
ATOM      2  C   UNL     1       1.167   2.086   0.002  0.00  0.00    +0.002 A 
ATOM      3  C   UNL     1       2.384   1.438  -0.013  0.00  0.00    +0.028 A 
ATOM      4  C   UNL     1       2.424   0.050  -0.021  0.00  0.00    +0.069 A 
ATOM      5  C   UNL     1       1.225  -0.685  -0.013  0.00  0.00    +0.090 A 
ATOM      6  C   UNL     1       0.002  -0.004   0.002  0.00  0.00    +0.030 A 
ATOM      7  N   UNL     1       1.559  -1.997  -0.024  0.00  0.00    -0.226 NA
ATOM      8  C   UNL     1       2.863  -2.119  -0.037  0.00  0.00    +0.167 A 
ATOM      9  N   UNL     1       3.445  -0.879  -0.036  0.00  0.00    -0.322 N 
ENDROOT
BRANCH   8  10
ATOM     10  C   UNL     1       3.598  -3.403  -0.051  0.00  0.00    +0.190 A 
ATOM     11  C   UNL     1       2.993  -4.741  -0.058  0.00  0.00    +0.191 A 
ATOM     12  N   UNL     1       3.952  -5.625  -0.070  0.00  0.00    -0.033 NA
ATOM     13  O   UNL     1       5.186  -4.929  -0.071  0.00  0.00    -0.240 OA
ATOM     14  N   UNL     1       4.899  -3.542  -0.065  0.00  0.00    -0.044 NA
ATOM     15  N   UNL     1       1.632  -5.018  -0.053  0.00  0.00    -0.339 N 
ATOM     16  H   UNL     1       0.989  -4.291  -0.044  0.00  0.00    +0.144 HD
ATOM     17  H   UNL     1       1.324  -5.937  -0.059  0.00  0.00    +0.144 HD
ENDBRANCH   8  10
BRANCH   9  18
ATOM     18  C   UNL     1       4.881  -0.593  -0.049  0.00  0.00    +0.127 C 
BRANCH  18  19
ATOM     19  C   UNL     1       5.396  -0.501   1.389  0.00  0.00    +0.009 C 
ATOM     20  C   UNL     1       5.271   0.905   1.999  0.00  0.00    +0.005 C 
ATOM     21  C   UNL     1       6.651   0.666   2.634  0.00  0.00    +0.001 C 
ATOM     22  C   UNL     1       6.920  -0.323   1.488  0.00  0.00    +0.005 C 
ENDBRANCH  18  19
ENDBRANCH   9  18
TORSDOF 3
