REMARK  Name = CHEMBL493067
REMARK  5 active torsions:
REMARK  status: ('A' for Active; 'I' for Inactive)
REMARK    1  A    between atoms: C_1  and  C_2
REMARK    2  A    between atoms: C_2  and  N_3
REMARK    3  A    between atoms: C_5  and  C_18
REMARK    4  A    between atoms: C_11  and  C_12
REMARK    5  A    between atoms: N_20  and  C_21
REMARK                            x       y       z     vdW  Elec       q    Type
REMARK                         _______ _______ _______ _____ _____    ______ ____
ROOT
ATOM      1  N   UNL     1      -1.244  -0.897   0.006  0.00  0.00    -0.322 N 
ATOM      2  C   UNL     1      -2.030  -1.067   1.113  0.00  0.00    +0.084 A 
ATOM      3  C   UNL     1      -1.843  -0.925   2.498  0.00  0.00    +0.080 A 
ATOM      4  C   UNL     1      -2.916  -1.197   3.345  0.00  0.00    +0.126 A 
ATOM      5  N   UNL     1      -4.083  -1.579   2.864  0.00  0.00    -0.260 NA
ATOM      6  C   UNL     1      -4.307  -1.726   1.574  0.00  0.00    +0.140 A 
ATOM      7  C   UNL     1      -3.295  -1.477   0.644  0.00  0.00    +0.108 A 
ATOM      8  N   UNL     1      -3.217  -1.536  -0.706  0.00  0.00    -0.224 NA
ATOM      9  C   UNL     1      -2.013  -1.190  -1.090  0.00  0.00    +0.167 A 
ENDROOT
BRANCH   9  10
ATOM     10  C   UNL     1      -1.552  -1.130  -2.495  0.00  0.00    +0.190 A 
ATOM     11  C   UNL     1      -2.363  -1.435  -3.680  0.00  0.00    +0.191 A 
ATOM     12  N   UNL     1      -1.619  -1.271  -4.739  0.00  0.00    -0.033 NA
ATOM     13  O   UNL     1      -0.331  -0.866  -4.309  0.00  0.00    -0.240 OA
ATOM     14  N   UNL     1      -0.354  -0.790  -2.895  0.00  0.00    -0.044 NA
ATOM     15  N   UNL     1      -3.695  -1.830  -3.675  0.00  0.00    -0.339 N 
ATOM     16  H   UNL     1      -4.169  -1.925  -2.835  0.00  0.00    +0.144 HD
ATOM     17  H   UNL     1      -4.150  -2.010  -4.513  0.00  0.00    +0.144 HD
ENDBRANCH   9  10
BRANCH   3  18
ATOM     18  C   UNL     1      -0.540  -0.499   3.043  0.00  0.00    +0.248 C 
ATOM     19  O   UNL     1       0.065   0.419   2.525  0.00  0.00    -0.270 OA
ATOM     20  N   UNL     1      -0.020  -1.129   4.115  0.00  0.00    -0.310 N 
ATOM     21  H   UNL     1      -0.502  -1.862   4.528  0.00  0.00    +0.149 HD
BRANCH  20  22
ATOM     22  C   UNL     1       1.274  -0.706   4.656  0.00  0.00    +0.056 C 
ATOM     23  C   UNL     1       2.402  -1.404   3.890  0.00  0.00    +0.018 C 
ATOM     24  C   UNL     1       3.745  -1.016   4.514  0.00  0.00    -0.017 C 
ATOM     25  C   UNL     1       3.738  -1.385   5.999  0.00  0.00    -0.082 C 
ATOM     26  N   UNL     1       2.655  -0.666   6.680  0.00  0.00    +0.380 N 
ATOM     27  C   UNL     1       1.358  -1.087   6.136  0.00  0.00    -0.060 C 
ATOM     28  H   UNL     1       2.686  -0.871   7.668  0.00  0.00    -0.086 HD
ATOM     29  H   UNL     1       2.771   0.326   6.541  0.00  0.00    -0.086 HD
ENDBRANCH  20  22
ENDBRANCH   3  18
BRANCH   1  31
ATOM     30  C   UNL     1       0.234   1.040  -0.212  0.00  0.00    +0.027 C 
ATOM     31  C   UNL     1       0.159  -0.474  -0.006  0.00  0.00    +0.120 C 
ENDBRANCH   1  31
TORSDOF 4
