REMARK  Name = CHEMBL520640
REMARK  7 active torsions:
REMARK  status: ('A' for Active; 'I' for Inactive)
REMARK    1  A    between atoms: C_1  and  C_2
REMARK    2  A    between atoms: C_3  and  C_17
REMARK    3  A    between atoms: C_4  and  C_16
REMARK    4  A    between atoms: C_6  and  C_8
REMARK    5  A    between atoms: C_11  and  O_14
REMARK    6  A    between atoms: O_14  and  C_15
REMARK    7  A    between atoms: N_19  and  C_20
REMARK                            x       y       z     vdW  Elec       q    Type
REMARK                         _______ _______ _______ _____ _____    ______ ____
ROOT
ATOM      1  C   UNL     1      -0.179   2.316   0.505  0.00  0.00    +0.035 C 
ATOM      2  C   UNL     1       0.210   0.847   0.322  0.00  0.00    +0.114 C 
ATOM      3  C   UNL     1      -1.035   0.031   0.114  0.00  0.00    +0.053 C 
ATOM      4  C   UNL     1      -1.198  -1.153   0.732  0.00  0.00    +0.016 C 
ATOM      5  N   UNL     1      -0.221  -1.621   1.573  0.00  0.00    -0.304 N 
ATOM      6  C   UNL     1       0.736  -0.751   2.057  0.00  0.00    +0.104 C 
ATOM      7  N   UNL     1       0.946   0.398   1.496  0.00  0.00    -0.366 N 
ATOM      8  C   UNL     1      -2.450  -1.961   0.503  0.00  0.00    +0.061 C 
ATOM      9  H   UNL     1      -0.202  -2.557   1.827  0.00  0.00    +0.153 HD
ATOM     10  H   UNL     1       1.622   0.983   1.874  0.00  0.00    +0.161 HD
ENDROOT
BRANCH   6  11
ATOM     11  C   UNL     1       1.536  -1.138   3.239  0.00  0.00    +0.013 A 
ATOM     12  C   UNL     1       2.011  -0.159   4.113  0.00  0.00    +0.015 A 
ATOM     13  C   UNL     1       2.757  -0.523   5.213  0.00  0.00    +0.046 A 
ATOM     14  C   UNL     1       3.036  -1.863   5.452  0.00  0.00    +0.120 A 
ATOM     15  C   UNL     1       2.565  -2.840   4.584  0.00  0.00    +0.046 A 
ATOM     16  C   UNL     1       1.814  -2.483   3.485  0.00  0.00    +0.015 A 
BRANCH  14  17
ATOM     17  O   UNL     1       3.771  -2.219   6.537  0.00  0.00    -0.495 OA
ATOM     18  C   UNL     1       4.021  -3.613   6.723  0.00  0.00    +0.277 C 
ENDBRANCH  14  17
ENDBRANCH   6  11
BRANCH   3  19
ATOM     19  C   UNL     1      -2.051   0.515  -0.745  0.00  0.00    +0.248 C 
ATOM     20  O   UNL     1      -1.870   0.539  -1.949  0.00  0.00    -0.270 OA
ATOM     21  N   UNL     1      -3.218   0.950  -0.230  0.00  0.00    -0.282 N 
ATOM     22  H   UNL     1      -3.404   0.835   0.715  0.00  0.00    +0.155 HD
BRANCH  21  23
ATOM     23  C   UNL     1      -4.162   1.568  -1.059  0.00  0.00    +0.034 A 
ATOM     24  C   UNL     1      -4.363   1.093  -2.356  0.00  0.00    +0.025 A 
ATOM     25  C   UNL     1      -5.279   1.681  -3.180  0.00  0.00    +0.029 A 
ATOM     26  C   UNL     1      -6.026   2.767  -2.732  0.00  0.00    +0.066 A 
ATOM     27  C   UNL     1      -5.832   3.254  -1.425  0.00  0.00    +0.021 A 
ATOM     28  C   UNL     1      -4.894   2.639  -0.588  0.00  0.00    +0.035 A 
ATOM     29  C   UNL     1      -6.750   4.377  -1.264  0.00  0.00    +0.142 A 
ATOM     30  N   UNL     1      -7.407   4.517  -2.380  0.00  0.00    -0.181 NA
ATOM     31  N   UNL     1      -6.995   3.552  -3.305  0.00  0.00    -0.277 N 
ATOM     32  H   UNL     1      -7.339   3.453  -4.206  0.00  0.00    +0.189 HD
ENDBRANCH  21  23
ENDBRANCH   3  19
TORSDOF 4
