REMARK  Name = CHEMBL1084892
REMARK  5 active torsions:
REMARK  status: ('A' for Active; 'I' for Inactive)
REMARK    1  A    between atoms: C_1  and  N_2
REMARK    2  A    between atoms: N_2  and  C_3
REMARK    3  A    between atoms: C_3  and  C_4
REMARK    4  A    between atoms: C_3  and  C_10
REMARK    5  A    between atoms: N_12  and  C_13
REMARK                            x       y       z     vdW  Elec       q    Type
REMARK                         _______ _______ _______ _____ _____    ______ ____
ROOT
ATOM      1  C   UNL     1      -2.006  -0.008  -1.377  0.00  0.00    +0.239 C 
ATOM      2  O   UNL     1      -1.583   0.995  -1.911  0.00  0.00    -0.273 OA
ATOM      3  N   UNL     1      -3.040  -0.678  -1.923  0.00  0.00    -0.283 N 
ATOM      4  H   UNL     1      -3.431  -1.432  -1.455  0.00  0.00    +0.155 HD
ENDROOT
BRANCH   3   5
ATOM      5  C   UNL     1      -3.549  -0.286  -3.163  0.00  0.00    +0.053 A 
ATOM      6  C   UNL     1      -2.693   0.221  -4.127  0.00  0.00    +0.033 A 
ATOM      7  C   UNL     1      -3.209   0.610  -5.362  0.00  0.00    -0.010 A 
ATOM      8  C   UNL     1      -2.356   1.152  -6.421  0.00  0.00    +0.026 A 
ATOM      9  C   UNL     1      -2.906   1.510  -7.592  0.00  0.00    +0.086 A 
ATOM     10  N   UNL     1      -4.244   1.388  -7.839  0.00  0.00    -0.329 N 
ATOM     11  H   UNL     1      -4.587   1.662  -8.704  0.00  0.00    +0.168 HD
ATOM     12  C   UNL     1      -5.104   0.899  -6.924  0.00  0.00    +0.257 A 
ATOM     13  O   UNL     1      -6.290   0.805  -7.183  0.00  0.00    -0.267 OA
ATOM     14  C   UNL     1      -4.595   0.481  -5.615  0.00  0.00    +0.048 A 
ATOM     15  C   UNL     1      -5.437  -0.033  -4.627  0.00  0.00    +0.035 A 
ATOM     16  C   UNL     1      -4.915  -0.414  -3.423  0.00  0.00    +0.063 A 
ATOM     17 CL   UNL     1      -5.964  -1.060  -2.200  0.00  0.00    -0.082 Cl
ENDBRANCH   3   5
BRANCH   1  18
ATOM     18  C   UNL     1      -1.376  -0.506  -0.102  0.00  0.00    +0.171 C 
BRANCH  18  19
ATOM     19  C   UNL     1      -2.150   0.019   1.079  0.00  0.00    -0.022 A 
ATOM     20  C   UNL     1      -2.025   1.343   1.454  0.00  0.00    +0.005 A 
ATOM     21  C   UNL     1      -2.735   1.825   2.538  0.00  0.00    +0.000 A 
ATOM     22  C   UNL     1      -3.571   0.981   3.247  0.00  0.00    +0.000 A 
ATOM     23  C   UNL     1      -3.696  -0.343   2.871  0.00  0.00    +0.000 A 
ATOM     24  C   UNL     1      -2.989  -0.823   1.785  0.00  0.00    +0.005 A 
ENDBRANCH  18  19
BRANCH  18  26
ATOM     25  C   UNL     1       0.900  -0.873  -0.843  0.00  0.00    +0.102 C 
ATOM     26  N   UNL     1       0.013  -0.034  -0.026  0.00  0.00    -0.305 NA
ATOM     27  H   UNL     1       0.331   0.003   0.931  0.00  0.00    +0.123 HD
ENDBRANCH  18  26
ENDBRANCH   1  18
TORSDOF 4
