REMARK  Name = CHEMBL373512
REMARK  4 active torsions:
REMARK  status: ('A' for Active; 'I' for Inactive)
REMARK    1  A    between atoms: C_3  and  C_6
REMARK    2  A    between atoms: C_6  and  N_7
REMARK    3  A    between atoms: C_11  and  N_13
REMARK    4  A    between atoms: N_13  and  C_14
REMARK                            x       y       z     vdW  Elec       q    Type
REMARK                         _______ _______ _______ _____ _____    ______ ____
ROOT
ATOM      1  N   UNL     1       4.235   2.004   1.357  0.00  0.00    +0.384 N 
ATOM      2  C   UNL     1       3.445   3.044   2.027  0.00  0.00    -0.078 C 
ATOM      3  C   UNL     1       3.881   3.156   3.490  0.00  0.00    -0.017 C 
ATOM      4  C   UNL     1       5.366   3.525   3.548  0.00  0.00    +0.018 C 
ATOM      5  C   UNL     1       6.173   2.473   2.781  0.00  0.00    +0.054 C 
ATOM      6  C   UNL     1       5.652   2.385   1.345  0.00  0.00    -0.056 C 
ATOM      7  H   UNL     1       4.127   1.131   1.851  0.00  0.00    -0.081 HD
ENDROOT
BRANCH   5   8
ATOM      8  N   UNL     1       7.587   2.856   2.767  0.00  0.00    -0.343 N 
ATOM      9  H   UNL     1       7.949   3.346   2.013  0.00  0.00    +0.146 HD
BRANCH   8  10
ATOM     10  C   UNL     1       8.415   2.513   3.841  0.00  0.00    +0.028 A 
ATOM     11  C   UNL     1       7.876   1.799   4.921  0.00  0.00    +0.025 A 
ATOM     12  C   UNL     1       8.632   1.440   5.987  0.00  0.00    +0.032 A 
ATOM     13  C   UNL     1       9.999   1.790   6.025  0.00  0.00    +0.093 A 
ATOM     14  C   UNL     1      10.568   2.539   4.895  0.00  0.00    +0.021 A 
ATOM     15  C   UNL     1       9.728   2.877   3.811  0.00  0.00    +0.034 A 
ATOM     16  C   UNL     1      11.902   2.743   5.191  0.00  0.00    +0.113 A 
ATOM     17  N   UNL     1      12.149   2.181   6.384  0.00  0.00    -0.284 N 
ATOM     18  N   UNL     1      10.981   1.599   6.889  0.00  0.00    -0.174 NA
ATOM     19  H   UNL     1      13.011   2.178   6.830  0.00  0.00    +0.188 HD
ENDBRANCH   8  10
ENDBRANCH   5   8
BRANCH   1  20
ATOM     20  C   UNL     1       3.761   1.845  -0.024  0.00  0.00    -0.036 C 
BRANCH  20  23
ATOM     21  C   UNL     1      -0.016   1.351   0.009  0.00  0.00    +0.008 A 
ATOM     22  C   UNL     1       1.183   2.038   0.002  0.00  0.00    +0.009 A 
ATOM     23  C   UNL     1       2.343   1.336  -0.013  0.00  0.00    -0.027 A 
ATOM     24  S   UNL     1       1.754  -0.349  -0.017  0.00  0.00    -0.103 S 
ATOM     25  C   UNL     1       0.002  -0.004   0.002  0.00  0.00    +0.045 A 
ENDBRANCH  20  23
ENDBRANCH   1  20
TORSDOF 4
