REMARK  Name = CHEMBL494662
REMARK  5 active torsions:
REMARK  status: ('A' for Active; 'I' for Inactive)
REMARK    1  A    between atoms: C_1  and  C_2
REMARK    2  A    between atoms: C_2  and  N_3
REMARK    3  A    between atoms: C_5  and  C_18
REMARK    4  A    between atoms: C_11  and  C_12
REMARK    5  A    between atoms: N_20  and  C_21
REMARK                            x       y       z     vdW  Elec       q    Type
REMARK                         _______ _______ _______ _____ _____    ______ ____
ROOT
ATOM      1  N   UNL     1       0.635  -0.865  -1.096  0.00  0.00    -0.322 N 
ATOM      2  C   UNL     1       0.072  -1.019  -2.334  0.00  0.00    +0.084 A 
ATOM      3  C   UNL     1      -1.223  -0.887  -2.861  0.00  0.00    +0.080 A 
ATOM      4  C   UNL     1      -1.417  -1.135  -4.219  0.00  0.00    +0.126 A 
ATOM      5  N   UNL     1      -0.410  -1.486  -4.998  0.00  0.00    -0.260 NA
ATOM      6  C   UNL     1       0.821  -1.622  -4.549  0.00  0.00    +0.140 A 
ATOM      7  C   UNL     1       1.116  -1.396  -3.203  0.00  0.00    +0.108 A 
ATOM      8  N   UNL     1       2.248  -1.452  -2.462  0.00  0.00    -0.224 NA
ATOM      9  C   UNL     1       1.973  -1.135  -1.220  0.00  0.00    +0.167 A 
ENDROOT
BRANCH   9  10
ATOM     10  C   UNL     1       2.959  -1.082  -0.118  0.00  0.00    +0.190 A 
ATOM     11  C   UNL     1       4.396  -1.362  -0.234  0.00  0.00    +0.191 A 
ATOM     12  N   UNL     1       4.938  -1.214   0.944  0.00  0.00    -0.033 NA
ATOM     13  O   UNL     1       3.916  -0.842   1.851  0.00  0.00    -0.240 OA
ATOM     14  N   UNL     1       2.701  -0.771   1.126  0.00  0.00    -0.044 NA
ATOM     15  N   UNL     1       5.063  -1.724  -1.397  0.00  0.00    -0.339 N 
ATOM     16  H   UNL     1       4.573  -1.810  -2.229  0.00  0.00    +0.144 HD
ATOM     17  H   UNL     1       6.018  -1.890  -1.376  0.00  0.00    +0.144 HD
ENDBRANCH   9  10
BRANCH   3  18
ATOM     18  C   UNL     1      -2.353  -0.496  -1.997  0.00  0.00    +0.248 C 
ATOM     19  O   UNL     1      -2.221   0.409  -1.196  0.00  0.00    -0.270 OA
ATOM     20  N   UNL     1      -3.531  -1.142  -2.096  0.00  0.00    -0.309 N 
ATOM     21  H   UNL     1      -3.637  -1.865  -2.735  0.00  0.00    +0.149 HD
BRANCH  20  22
ATOM     22  C   UNL     1      -4.654  -0.754  -1.238  0.00  0.00    +0.070 C 
ATOM     23  C   UNL     1      -4.546  -1.480   0.106  0.00  0.00    +0.003 C 
ATOM     24  C   UNL     1      -5.762  -1.131   0.967  0.00  0.00    -0.081 C 
ATOM     25  N   UNL     1      -6.989  -1.551   0.280  0.00  0.00    +0.379 N 
ATOM     26  C   UNL     1      -7.136  -0.806  -0.977  0.00  0.00    -0.081 C 
ATOM     27  C   UNL     1      -5.972  -1.142  -1.912  0.00  0.00    +0.003 C 
ATOM     28  H   UNL     1      -6.940  -2.539   0.080  0.00  0.00    -0.086 HD
ATOM     29  H   UNL     1      -7.785  -1.369   0.872  0.00  0.00    -0.086 HD
ENDBRANCH  20  22
ENDBRANCH   3  18
BRANCH   1  31
ATOM     30  C   UNL     1       0.056   1.035   0.330  0.00  0.00    +0.027 C 
ATOM     31  C   UNL     1      -0.062  -0.478   0.133  0.00  0.00    +0.120 C 
ENDBRANCH   1  31
TORSDOF 4
