REMARK  Name = CHEMBL599163
REMARK  6 active torsions:
REMARK  status: ('A' for Active; 'I' for Inactive)
REMARK    1  A    between atoms: C_6  and  C_7
REMARK    2  A    between atoms: C_10  and  N_22
REMARK    3  A    between atoms: C_11  and  N_13
REMARK    4  A    between atoms: N_16  and  C_19
REMARK    5  A    between atoms: C_19  and  C_20
REMARK    6  A    between atoms: C_20  and  O_21
REMARK                            x       y       z     vdW  Elec       q    Type
REMARK                         _______ _______ _______ _____ _____    ______ ____
ROOT
ATOM      1  C   UNL     1      -1.279  -0.758   0.118  0.00  0.00    +0.091 A 
ATOM      2  C   UNL     1      -2.495  -0.133  -0.136  0.00  0.00    +0.141 A 
ATOM      3  N   UNL     1      -3.602  -0.849  -0.235  0.00  0.00    -0.235 NA
ATOM      4  C   UNL     1      -3.557  -2.165  -0.093  0.00  0.00    +0.162 A 
ATOM      5  C   UNL     1      -2.332  -2.800   0.164  0.00  0.00    +0.162 A 
ATOM      6  N   UNL     1      -1.226  -2.082   0.258  0.00  0.00    -0.227 NA
ENDROOT
BRANCH   1  12
ATOM      7  C   UNL     1      -0.087   1.446   0.190  0.00  0.00    +0.030 A 
ATOM      8  C   UNL     1       1.090   2.158   0.297  0.00  0.00    +0.111 A 
ATOM      9  N   UNL     1       2.247   1.538   0.433  0.00  0.00    -0.263 NA
ATOM     10  C   UNL     1       2.335   0.223   0.475  0.00  0.00    +0.111 A 
ATOM     11  C   UNL     1       1.207  -0.566   0.375  0.00  0.00    +0.030 A 
ATOM     12  C   UNL     1      -0.040   0.049   0.229  0.00  0.00    +0.005 A 
ENDBRANCH   1  12
BRANCH   5  13
ATOM     13  N   UNL     1      -2.281  -4.183   0.315  0.00  0.00    -0.310 N 
ATOM     14  C   UNL     1      -2.067  -5.061  -0.845  0.00  0.00    +0.122 C 
ATOM     15  C   UNL     1      -0.918  -6.022  -0.523  0.00  0.00    +0.103 C 
ATOM     16  N   UNL     1      -1.205  -6.718   0.739  0.00  0.00    -0.297 NA
ATOM     17  C   UNL     1      -1.277  -5.775   1.863  0.00  0.00    +0.103 C 
ATOM     18  C   UNL     1      -2.435  -4.804   1.639  0.00  0.00    +0.122 C 
BRANCH  16  19
ATOM     19  C   UNL     1      -0.214  -7.771   0.997  0.00  0.00    +0.112 C 
BRANCH  19  20
ATOM     20  C   UNL     1      -0.679  -8.631   2.173  0.00  0.00    +0.171 C 
BRANCH  20  21
ATOM     21  O   UNL     1      -1.878  -9.321   1.815  0.00  0.00    -0.394 OA
ATOM     22  H   UNL     1      -2.231  -9.887   2.515  0.00  0.00    +0.209 HD
ENDBRANCH  20  21
ENDBRANCH  19  20
ENDBRANCH  16  19
ENDBRANCH   5  13
BRANCH   4  23
ATOM     23  N   UNL     1      -4.722  -2.917  -0.197  0.00  0.00    -0.312 N 
ATOM     24  C   UNL     1      -4.797  -4.385  -0.199  0.00  0.00    +0.106 C 
ATOM     25  C   UNL     1      -6.283  -4.767  -0.360  0.00  0.00    +0.020 C 
ATOM     26  C   UNL     1      -6.900  -3.500  -1.008  0.00  0.00    +0.020 C 
ATOM     27  C   UNL     1      -6.087  -2.373  -0.318  0.00  0.00    +0.106 C 
ENDBRANCH   4  23
TORSDOF 6
