REMARK  Name = CHEMBL1078929
REMARK  2 active torsions:
REMARK  status: ('A' for Active; 'I' for Inactive)
REMARK    1  A    between atoms: C_8  and  C_16
REMARK    2  A    between atoms: N_9  and  C_10
REMARK                            x       y       z     vdW  Elec       q    Type
REMARK                         _______ _______ _______ _____ _____    ______ ____
ROOT
ATOM      1  C   UNL     1      -0.053   1.203   0.731  0.00  0.00    +0.002 A 
ATOM      2  C   UNL     1       1.096   1.980   0.668  0.00  0.00    +0.002 A 
ATOM      3  C   UNL     1       2.313   1.404   0.374  0.00  0.00    +0.028 A 
ATOM      4  C   UNL     1       2.390   0.037   0.141  0.00  0.00    +0.067 A 
ATOM      5  C   UNL     1       1.226  -0.750   0.205  0.00  0.00    +0.065 A 
ATOM      6  C   UNL     1       0.002  -0.143   0.505  0.00  0.00    +0.028 A 
ATOM      7  N   UNL     1       1.592  -2.026  -0.062  0.00  0.00    -0.338 N 
ATOM      8  C   UNL     1       2.882  -2.078  -0.282  0.00  0.00    +0.145 A 
ATOM      9  N   UNL     1       3.422  -0.825  -0.169  0.00  0.00    -0.321 N 
ATOM     10  H   UNL     1       0.990  -2.787  -0.085  0.00  0.00    +0.167 HD
ENDROOT
BRANCH   8  11
ATOM     11  C   UNL     1       3.642  -3.306  -0.606  0.00  0.00    +0.189 A 
ATOM     12  C   UNL     1       3.441  -4.156  -1.786  0.00  0.00    +0.191 A 
ATOM     13  N   UNL     1       4.292  -5.143  -1.728  0.00  0.00    -0.033 NA
ATOM     14  O   UNL     1       5.062  -4.989  -0.549  0.00  0.00    -0.240 OA
ATOM     15  N   UNL     1       4.611  -3.818   0.108  0.00  0.00    -0.044 NA
ATOM     16  N   UNL     1       2.506  -3.946  -2.790  0.00  0.00    -0.339 N 
ATOM     17  H   UNL     1       1.961  -3.143  -2.785  0.00  0.00    +0.144 HD
ATOM     18  H   UNL     1       2.396  -4.603  -3.496  0.00  0.00    +0.144 HD
ENDBRANCH   8  11
BRANCH   9  19
ATOM     19  C   UNL     1       4.832  -0.467  -0.343  0.00  0.00    +0.089 C 
ATOM     20  C   UNL     1       5.329  -0.993  -1.692  0.00  0.00    +0.025 C 
ATOM     21  C   UNL     1       6.801  -0.619  -1.874  0.00  0.00    +0.002 C 
ATOM     22  C   UNL     1       7.628  -1.242  -0.748  0.00  0.00    +0.000 C 
ATOM     23  C   UNL     1       7.132  -0.716   0.600  0.00  0.00    +0.002 C 
ATOM     24  C   UNL     1       5.660  -1.090   0.783  0.00  0.00    +0.025 C 
ENDBRANCH   9  19
TORSDOF 2
