REMARK  Name = CHEMBL1084106
REMARK  5 active torsions:
REMARK  status: ('A' for Active; 'I' for Inactive)
REMARK    1  A    between atoms: C_4  and  C_7
REMARK    2  A    between atoms: C_7  and  C_8
REMARK    3  A    between atoms: C_7  and  N_24
REMARK    4  A    between atoms: N_10  and  C_11
REMARK    5  A    between atoms: N_24  and  C_25
REMARK                            x       y       z     vdW  Elec       q    Type
REMARK                         _______ _______ _______ _____ _____    ______ ____
ROOT
ATOM      1  C   UNL     1       4.173  -1.316  -1.389  0.00  0.00    +0.239 C 
ATOM      2  O   UNL     1       4.028  -2.503  -1.592  0.00  0.00    -0.273 OA
ATOM      3  N   UNL     1       4.765  -0.540  -2.318  0.00  0.00    -0.283 N 
ATOM      4  H   UNL     1       4.947   0.393  -2.126  0.00  0.00    +0.155 HD
ENDROOT
BRANCH   3   5
ATOM      5  C   UNL     1       5.115  -1.079  -3.557  0.00  0.00    +0.053 A 
ATOM      6  C   UNL     1       4.495  -2.233  -4.004  0.00  0.00    +0.033 A 
ATOM      7  C   UNL     1       4.850  -2.764  -5.242  0.00  0.00    -0.010 A 
ATOM      8  C   UNL     1       4.229  -3.982  -5.770  0.00  0.00    +0.026 A 
ATOM      9  C   UNL     1       4.610  -4.449  -6.969  0.00  0.00    +0.086 A 
ATOM     10  N   UNL     1       5.563  -3.829  -7.727  0.00  0.00    -0.329 N 
ATOM     11  H   UNL     1       5.799  -4.211  -8.587  0.00  0.00    +0.168 HD
ATOM     12  C   UNL     1       6.187  -2.705  -7.322  0.00  0.00    +0.257 A 
ATOM     13  O   UNL     1       7.032  -2.182  -8.026  0.00  0.00    -0.267 OA
ATOM     14  C   UNL     1       5.838  -2.120  -6.024  0.00  0.00    +0.048 A 
ATOM     15  C   UNL     1       6.449  -0.957  -5.552  0.00  0.00    +0.035 A 
ATOM     16  C   UNL     1       6.085  -0.446  -4.338  0.00  0.00    +0.063 A 
ATOM     17 CL   UNL     1       6.843   1.004  -3.756  0.00  0.00    -0.082 Cl
ENDBRANCH   3   5
BRANCH   1  18
ATOM     18  C   UNL     1       3.690  -0.709  -0.096  0.00  0.00    +0.172 C 
BRANCH  18  22
ATOM     19  C   UNL     1      -0.073   1.208  -0.740  0.00  0.00    +0.000 A 
ATOM     20  C   UNL     1       0.308   0.844   0.538  0.00  0.00    +0.000 A 
ATOM     21  C   UNL     1       1.525   0.224   0.746  0.00  0.00    +0.005 A 
ATOM     22  C   UNL     1       2.362  -0.034  -0.324  0.00  0.00    -0.022 A 
ATOM     23  C   UNL     1       1.981   0.330  -1.602  0.00  0.00    +0.005 A 
ATOM     24  C   UNL     1       0.764   0.952  -1.810  0.00  0.00    +0.000 A 
ENDBRANCH  18  22
BRANCH  18  25
ATOM     25  N   UNL     1       3.536  -1.765   0.913  0.00  0.00    -0.299 NA
ATOM     26  H   UNL     1       4.412  -2.236   1.081  0.00  0.00    +0.123 HD
BRANCH  25  27
ATOM     27  C   UNL     1       2.492  -2.721   0.519  0.00  0.00    +0.055 C 
ATOM     28  C   UNL     1       1.503  -3.171   1.596  0.00  0.00    +0.020 C 
ATOM     29  C   UNL     1       2.578  -4.137   1.093  0.00  0.00    +0.020 C 
ENDBRANCH  25  27
ENDBRANCH  18  25
ENDBRANCH   1  18
TORSDOF 5
