REMARK  Name = CHEMBL1215304
REMARK  9 active torsions:
REMARK  status: ('A' for Active; 'I' for Inactive)
REMARK    1  A    between atoms: C_1  and  N_2
REMARK    2  A    between atoms: C_5  and  C_8
REMARK    3  A    between atoms: C_8  and  O_9
REMARK    4  A    between atoms: O_9  and  C_10
REMARK    5  A    between atoms: C_12  and  C_32
REMARK    6  A    between atoms: C_15  and  N_16
REMARK    7  A    between atoms: C_17  and  C_19
REMARK    8  A    between atoms: C_24  and  O_30
REMARK    9  A    between atoms: O_30  and  C_31
REMARK                            x       y       z     vdW  Elec       q    Type
REMARK                         _______ _______ _______ _____ _____    ______ ____
ROOT
ATOM      1  C   UNL     1       0.226  -6.030   2.227  0.00  0.00    +0.142 A 
ATOM      2  C   UNL     1      -0.198  -6.819   1.172  0.00  0.00    +0.056 A 
ATOM      3  C   UNL     1      -0.044  -8.203   1.234  0.00  0.00    -0.011 A 
ATOM      4  C   UNL     1       0.534  -8.788   2.358  0.00  0.00    +0.010 A 
ATOM      5  C   UNL     1       0.955  -7.999   3.409  0.00  0.00    +0.027 A 
ATOM      6  C   UNL     1       0.809  -6.620   3.347  0.00  0.00    +0.076 A 
ENDROOT
BRANCH   3   7
ATOM      7  C   UNL     1      -0.498  -9.052   0.104  0.00  0.00    +0.019 A 
ATOM      8  C   UNL     1      -0.415 -10.412   0.034  0.00  0.00    +0.113 A 
ATOM      9  N   UNL     1      -0.934 -10.792  -1.152  0.00  0.00    -0.284 N 
ATOM     10  H   UNL     1      -1.008 -11.703  -1.475  0.00  0.00    +0.188 HD
ATOM     11  N   UNL     1      -1.350  -9.643  -1.835  0.00  0.00    -0.182 NA
ATOM     12  C   UNL     1      -1.097  -8.601  -1.088  0.00  0.00    +0.142 A 
ENDBRANCH   3   7
BRANCH   6  13
ATOM     13  N   UNL     1       1.242  -5.821   4.413  0.00  0.00    -0.281 N 
ATOM     14  C   UNL     1       2.211  -6.266   5.238  0.00  0.00    +0.235 C 
ATOM     15  O   UNL     1       2.777  -7.312   5.000  0.00  0.00    -0.274 OA
ATOM     16  H   UNL     1       0.845  -4.948   4.558  0.00  0.00    +0.155 HD
BRANCH  14  17
ATOM     17  C   UNL     1       2.591  -5.464   6.455  0.00  0.00    +0.145 C 
ATOM     18  C   UNL     1       1.585  -5.724   7.577  0.00  0.00    +0.063 C 
ATOM     19  C   UNL     1       2.083  -5.123   8.866  0.00  0.00    -0.038 A 
ATOM     20  C   UNL     1       1.180  -4.935   9.899  0.00  0.00    +0.049 A 
ATOM     21  C   UNL     1       1.597  -4.390  11.102  0.00  0.00    +0.120 A 
ATOM     22  C   UNL     1       2.927  -4.031  11.270  0.00  0.00    +0.046 A 
ATOM     23  C   UNL     1       3.823  -4.218  10.239  0.00  0.00    +0.009 A 
ATOM     24  C   UNL     1       3.404  -4.763   9.033  0.00  0.00    -0.030 A 
ATOM     25  C   UNL     1       4.420  -4.936   7.934  0.00  0.00    +0.117 C 
ATOM     26  N   UNL     1       3.928  -5.870   6.918  0.00  0.00    -0.301 NA
ATOM     27  H   UNL     1       3.915  -6.814   7.275  0.00  0.00    +0.123 HD
BRANCH  21  28
ATOM     28  O   UNL     1       0.708  -4.206  12.113  0.00  0.00    -0.495 OA
ATOM     29  C   UNL     1       1.210  -3.638  13.325  0.00  0.00    +0.277 C 
ENDBRANCH  21  28
ENDBRANCH  14  17
ENDBRANCH   6  13
BRANCH   1  30
ATOM     30  O   UNL     1       0.077  -4.680   2.169  0.00  0.00    -0.490 OA
BRANCH  30  31
ATOM     31  C   UNL     1      -0.528  -4.144   0.991  0.00  0.00    +0.232 C 
BRANCH  31  36
ATOM     32  C   UNL     1      -0.013   1.444  -0.026  0.00  0.00    -0.096 C 
ATOM     33  N   UNL     1       0.002  -0.025  -0.026  0.00  0.00    +0.378 N 
ATOM     34  C   UNL     1      -1.378  -0.527  -0.015  0.00  0.00    -0.079 C 
ATOM     35  C   UNL     1      -1.369  -2.055  -0.096  0.00  0.00    -0.012 C 
ATOM     36  C   UNL     1      -0.609  -2.621   1.107  0.00  0.00    +0.023 C 
ATOM     37  C   UNL     1       0.805  -2.033   1.127  0.00  0.00    -0.012 C 
ATOM     38  C   UNL     1       0.716  -0.506   1.163  0.00  0.00    -0.079 C 
ATOM     39  H   UNL     1       0.471  -0.356  -0.855  0.00  0.00    -0.082 HD
ENDBRANCH  31  36
ENDBRANCH  30  31
ENDBRANCH   1  30
TORSDOF 7
