REMARK  Name = CHEMBL493066
REMARK  4 active torsions:
REMARK  status: ('A' for Active; 'I' for Inactive)
REMARK    1  A    between atoms: C_1  and  C_2
REMARK    2  A    between atoms: C_2  and  N_3
REMARK    3  A    between atoms: C_5  and  C_18
REMARK    4  A    between atoms: C_11  and  C_12
REMARK                            x       y       z     vdW  Elec       q    Type
REMARK                         _______ _______ _______ _____ _____    ______ ____
ROOT
ATOM      1  N   UNL     1       0.695   0.068  -1.476  0.00  0.00    -0.322 N 
ATOM      2  C   UNL     1       0.093  -0.572  -2.526  0.00  0.00    +0.084 A 
ATOM      3  C   UNL     1      -1.231  -0.884  -2.874  0.00  0.00    +0.080 A 
ATOM      4  C   UNL     1      -1.462  -1.569  -4.066  0.00  0.00    +0.126 A 
ATOM      5  N   UNL     1      -0.464  -1.920  -4.854  0.00  0.00    -0.260 NA
ATOM      6  C   UNL     1       0.794  -1.649  -4.570  0.00  0.00    +0.140 A 
ATOM      7  C   UNL     1       1.128  -0.966  -3.398  0.00  0.00    +0.108 A 
ATOM      8  N   UNL     1       2.292  -0.553  -2.845  0.00  0.00    -0.224 NA
ATOM      9  C   UNL     1       2.045   0.062  -1.714  0.00  0.00    +0.167 A 
ENDROOT
BRANCH   3  10
ATOM     10  C   UNL     1      -2.353  -0.496  -1.997  0.00  0.00    +0.250 C 
ATOM     11  O   UNL     1      -2.453   0.652  -1.610  0.00  0.00    -0.270 OA
ATOM     12  N   UNL     1      -3.267  -1.415  -1.626  0.00  0.00    -0.301 N 
ATOM     13  C   UNL     1      -3.097  -2.834  -1.973  0.00  0.00    +0.089 C 
ATOM     14  C   UNL     1      -3.279  -3.670  -0.702  0.00  0.00    -0.063 C 
ATOM     15  N   UNL     1      -4.572  -3.348  -0.086  0.00  0.00    +0.381 N 
ATOM     16  C   UNL     1      -4.580  -1.948   0.357  0.00  0.00    -0.063 C 
ATOM     17  C   UNL     1      -4.459  -1.027  -0.857  0.00  0.00    +0.089 C 
ATOM     18  H   UNL     1      -5.309  -3.489  -0.761  0.00  0.00    -0.086 HD
ATOM     19  H   UNL     1      -4.726  -3.951   0.707  0.00  0.00    -0.086 HD
ENDBRANCH   3  10
BRANCH   9  20
ATOM     20  C   UNL     1       3.068   0.656  -0.827  0.00  0.00    +0.190 A 
ATOM     21  C   UNL     1       4.517   0.665  -1.069  0.00  0.00    +0.191 A 
ATOM     22  N   UNL     1       5.095   1.276  -0.072  0.00  0.00    -0.033 NA
ATOM     23  O   UNL     1       4.086   1.682   0.836  0.00  0.00    -0.240 OA
ATOM     24  N   UNL     1       2.839   1.270   0.305  0.00  0.00    -0.044 NA
ATOM     25  N   UNL     1       5.161   0.115  -2.170  0.00  0.00    -0.339 N 
ATOM     26  H   UNL     1       4.645  -0.323  -2.865  0.00  0.00    +0.144 HD
ATOM     27  H   UNL     1       6.126   0.170  -2.244  0.00  0.00    +0.144 HD
ENDBRANCH   9  20
BRANCH   1  29
ATOM     28  C   UNL     1      -0.210   2.147  -0.561  0.00  0.00    +0.027 C 
ATOM     29  C   UNL     1       0.020   0.655  -0.316  0.00  0.00    +0.120 C 
ENDBRANCH   1  29
TORSDOF 3
