REMARK  Name = CHEMBL483396
REMARK  5 active torsions:
REMARK  status: ('A' for Active; 'I' for Inactive)
REMARK    1  A    between atoms: C_1  and  C_2
REMARK    2  A    between atoms: C_4  and  C_14
REMARK    3  A    between atoms: C_6  and  C_8
REMARK    4  A    between atoms: C_21  and  N_23
REMARK    5  A    between atoms: N_23  and  C_24
REMARK                            x       y       z     vdW  Elec       q    Type
REMARK                         _______ _______ _______ _____ _____    ______ ____
ROOT
ATOM      1  C   UNL     1      -0.012   1.489   0.074  0.00  0.00    +0.066 C 
ATOM      2  C   UNL     1      -0.002  -0.017   0.027  0.00  0.00    +0.051 C 
ATOM      3  C   UNL     1      -1.207  -0.722   0.103  0.00  0.00    +0.064 C 
ATOM      4  C   UNL     1      -1.117  -2.236   0.050  0.00  0.00    +0.174 C 
ATOM      5  N   UNL     1       0.236  -2.805  -0.078  0.00  0.00    -0.251 NA
ATOM      6  C   UNL     1       1.257  -1.990  -0.136  0.00  0.00    +0.177 C 
ATOM      7  N   UNL     1       1.139  -0.659  -0.091  0.00  0.00    -0.231 NA
ATOM      8  C   UNL     1      -2.419  -0.073   0.222  0.00  0.00    +0.248 C 
ATOM      9  O   UNL     1      -3.547  -0.784   0.426  0.00  0.00    -0.270 OA
ENDROOT
BRANCH   4  10
ATOM     10  C   UNL     1      -1.938  -2.714  -1.120  0.00  0.00    -0.018 A 
ATOM     11  C   UNL     1      -1.415  -2.660  -2.399  0.00  0.00    +0.009 A 
ATOM     12  C   UNL     1      -2.167  -3.097  -3.473  0.00  0.00    +0.039 A 
ATOM     13  C   UNL     1      -3.445  -3.590  -3.267  0.00  0.00    +0.123 A 
ATOM     14  C   UNL     1      -3.967  -3.644  -1.986  0.00  0.00    +0.039 A 
ATOM     15  C   UNL     1      -3.211  -3.210  -0.913  0.00  0.00    +0.009 A 
ATOM     16  F   UNL     1      -4.181  -4.018  -4.316  0.00  0.00    -0.205 F 
ENDBRANCH   4  10
BRANCH   6  17
ATOM     17  C   UNL     1       2.617  -2.571  -0.264  0.00  0.00    +0.125 A 
ATOM     18  C   UNL     1       2.783  -3.954  -0.325  0.00  0.00    +0.142 A 
ATOM     19  N   UNL     1       3.994  -4.467  -0.439  0.00  0.00    -0.260 NA
ATOM     20  C   UNL     1       5.048  -3.671  -0.494  0.00  0.00    +0.130 A 
ATOM     21  C   UNL     1       4.887  -2.296  -0.434  0.00  0.00    +0.131 A 
ATOM     22  N   UNL     1       3.679  -1.775  -0.326  0.00  0.00    -0.249 NA
ENDBRANCH   6  17
BRANCH   8  23
ATOM     23  N   UNL     1      -2.476   1.290   0.134  0.00  0.00    -0.282 N 
ATOM     24  H   UNL     1      -2.174   1.737  -0.673  0.00  0.00    +0.155 HD
BRANCH  23  25
ATOM     25  C   UNL     1      -2.970   2.041   1.206  0.00  0.00    +0.034 A 
ATOM     26  C   UNL     1      -3.487   1.375   2.327  0.00  0.00    +0.025 A 
ATOM     27  C   UNL     1      -3.979   2.051   3.394  0.00  0.00    +0.032 A 
ATOM     28  C   UNL     1      -3.975   3.463   3.390  0.00  0.00    +0.093 A 
ATOM     29  C   UNL     1      -3.433   4.164   2.216  0.00  0.00    +0.021 A 
ATOM     30  C   UNL     1      -2.931   3.401   1.139  0.00  0.00    +0.035 A 
ATOM     31  C   UNL     1      -3.552   5.516   2.478  0.00  0.00    +0.113 A 
ATOM     32  N   UNL     1      -4.111   5.654   3.689  0.00  0.00    -0.284 N 
ATOM     33  N   UNL     1      -4.367   4.394   4.242  0.00  0.00    -0.174 NA
ATOM     34  H   UNL     1      -4.308   6.501   4.119  0.00  0.00    +0.188 HD
ENDBRANCH  23  25
ENDBRANCH   8  23
TORSDOF 4
