REMARK  Name = CHEMBL591285
REMARK  5 active torsions:
REMARK  status: ('A' for Active; 'I' for Inactive)
REMARK    1  A    between atoms: C_6  and  C_7
REMARK    2  A    between atoms: C_10  and  N_21
REMARK    3  A    between atoms: C_11  and  N_13
REMARK    4  A    between atoms: C_16  and  C_19
REMARK    5  A    between atoms: C_19  and  N_20
REMARK                            x       y       z     vdW  Elec       q    Type
REMARK                         _______ _______ _______ _____ _____    ______ ____
ROOT
ATOM      1  C   UNL     1      -1.280  -0.756   0.120  0.00  0.00    +0.091 A 
ATOM      2  C   UNL     1      -2.497  -0.132  -0.132  0.00  0.00    +0.141 A 
ATOM      3  N   UNL     1      -3.603  -0.851  -0.233  0.00  0.00    -0.235 NA
ATOM      4  C   UNL     1      -3.555  -2.167  -0.095  0.00  0.00    +0.162 A 
ATOM      5  C   UNL     1      -2.329  -2.800   0.160  0.00  0.00    +0.162 A 
ATOM      6  N   UNL     1      -1.224  -2.081   0.255  0.00  0.00    -0.227 NA
ENDROOT
BRANCH   1  12
ATOM      7  C   UNL     1      -0.092   1.450   0.199  0.00  0.00    +0.030 A 
ATOM      8  C   UNL     1       1.083   2.164   0.307  0.00  0.00    +0.111 A 
ATOM      9  N   UNL     1       2.241   1.546   0.442  0.00  0.00    -0.263 NA
ATOM     10  C   UNL     1       2.332   0.231   0.479  0.00  0.00    +0.111 A 
ATOM     11  C   UNL     1       1.206  -0.560   0.377  0.00  0.00    +0.030 A 
ATOM     12  C   UNL     1      -0.043   0.053   0.233  0.00  0.00    +0.005 A 
ENDBRANCH   1  12
BRANCH   5  13
ATOM     13  N   UNL     1      -2.276  -4.183   0.305  0.00  0.00    -0.312 N 
ATOM     14  C   UNL     1      -2.062  -5.051  -0.861  0.00  0.00    +0.107 C 
ATOM     15  C   UNL     1      -0.872  -5.973  -0.577  0.00  0.00    +0.020 C 
ATOM     16  C   UNL     1      -1.116  -6.728   0.732  0.00  0.00    -0.026 C 
ATOM     17  C   UNL     1      -1.238  -5.728   1.884  0.00  0.00    +0.020 C 
ATOM     18  C   UNL     1      -2.426  -4.803   1.629  0.00  0.00    +0.107 C 
BRANCH  16  19
ATOM     19  C   UNL     1       0.055  -7.675   1.000  0.00  0.00    -0.083 C 
BRANCH  19  20
ATOM     20  N   UNL     1      -0.234  -8.486   2.191  0.00  0.00    +0.378 N 
ATOM     21  H   UNL     1       0.538  -9.110   2.368  0.00  0.00    -0.090 HD
ATOM     22  H   UNL     1      -0.366  -7.879   2.987  0.00  0.00    -0.090 HD
ATOM     23  H   UNL     1      -1.074  -9.024   2.036  0.00  0.00    -0.090 HD
ENDBRANCH  19  20
ENDBRANCH  16  19
ENDBRANCH   5  13
BRANCH   4  24
ATOM     24  N   UNL     1      -4.719  -2.921  -0.201  0.00  0.00    -0.312 N 
ATOM     25  C   UNL     1      -4.792  -4.389  -0.203  0.00  0.00    +0.106 C 
ATOM     26  C   UNL     1      -6.277  -4.774  -0.367  0.00  0.00    +0.020 C 
ATOM     27  C   UNL     1      -6.895  -3.507  -1.016  0.00  0.00    +0.020 C 
ATOM     28  C   UNL     1      -6.085  -2.380  -0.324  0.00  0.00    +0.106 C 
ENDBRANCH   4  24
TORSDOF 5
