REMARK  Name = CHEMBL390389
REMARK  4 active torsions:
REMARK  status: ('A' for Active; 'I' for Inactive)
REMARK    1  A    between atoms: C_3  and  C_8
REMARK    2  A    between atoms: C_8  and  N_9
REMARK    3  A    between atoms: C_12  and  N_14
REMARK    4  A    between atoms: N_14  and  C_15
REMARK                            x       y       z     vdW  Elec       q    Type
REMARK                         _______ _______ _______ _____ _____    ______ ____
ROOT
ATOM      1  N   UNL     1       4.106   2.427   1.361  0.00  0.00    +0.384 N 
ATOM      2  C   UNL     1       3.142   3.325   2.034  0.00  0.00    -0.077 C 
ATOM      3  C   UNL     1       4.010   4.216   2.957  0.00  0.00    +0.002 C 
ATOM      4  C   UNL     1       5.277   4.428   2.087  0.00  0.00    +0.052 C 
ATOM      5  C   UNL     1       5.429   3.076   1.359  0.00  0.00    -0.056 C 
ATOM      6  H   UNL     1       4.157   1.552   1.861  0.00  0.00    -0.081 HD
ENDROOT
BRANCH   4   7
ATOM      7  N   UNL     1       6.445   4.697   2.929  0.00  0.00    -0.343 N 
ATOM      8  H   UNL     1       7.024   3.969   3.202  0.00  0.00    +0.146 HD
BRANCH   7   9
ATOM      9  C   UNL     1       6.725   6.006   3.340  0.00  0.00    +0.028 A 
ATOM     10  C   UNL     1       5.886   7.050   2.950  0.00  0.00    +0.025 A 
ATOM     11  C   UNL     1       6.142   8.333   3.340  0.00  0.00    +0.029 A 
ATOM     12  C   UNL     1       7.250   8.614   4.136  0.00  0.00    +0.066 A 
ATOM     13  C   UNL     1       8.102   7.568   4.535  0.00  0.00    +0.021 A 
ATOM     14  C   UNL     1       7.827   6.255   4.134  0.00  0.00    +0.034 A 
ATOM     15  C   UNL     1       9.150   8.179   5.346  0.00  0.00    +0.142 A 
ATOM     16  N   UNL     1       8.915   9.459   5.403  0.00  0.00    -0.181 NA
ATOM     17  N   UNL     1       7.761   9.767   4.676  0.00  0.00    -0.277 N 
ATOM     18  H   UNL     1       7.383  10.654   4.570  0.00  0.00    +0.189 HD
ENDBRANCH   7   9
ENDBRANCH   4   7
BRANCH   1  19
ATOM     19  C   UNL     1       3.672   2.184  -0.021  0.00  0.00    -0.043 C 
BRANCH  19  22
ATOM     20  C   UNL     1      -0.017   1.378   0.010  0.00  0.00    +0.002 A 
ATOM     21  C   UNL     1       1.171   2.086   0.002  0.00  0.00    +0.002 A 
ATOM     22  C   UNL     1       2.378   1.412  -0.013  0.00  0.00    -0.063 A 
ATOM     23  C   UNL     1       2.398   0.029  -0.021  0.00  0.00    +0.021 A 
ATOM     24  C   UNL     1       1.210  -0.679  -0.013  0.00  0.00    +0.041 A 
ATOM     25  C   UNL     1       0.002  -0.004   0.002  0.00  0.00    +0.020 A 
ATOM     26 CL   UNL     1       1.234  -2.415  -0.024  0.00  0.00    -0.084 Cl
ENDBRANCH  19  22
ENDBRANCH   1  19
TORSDOF 4
