REMARK  Name = CHEMBL223651
REMARK  4 active torsions:
REMARK  status: ('A' for Active; 'I' for Inactive)
REMARK    1  A    between atoms: C_4  and  C_7
REMARK    2  A    between atoms: C_7  and  N_8
REMARK    3  A    between atoms: C_11  and  N_14
REMARK    4  A    between atoms: C_15  and  C_17
REMARK                            x       y       z     vdW  Elec       q    Type
REMARK                         _______ _______ _______ _____ _____    ______ ____
ROOT
ATOM      1  N   UNL     1       4.153  -0.953   1.342  0.00  0.00    +0.382 N 
ATOM      2  C   UNL     1       4.424   0.329   2.003  0.00  0.00    -0.077 C 
ATOM      3  C   UNL     1       4.807   0.083   3.464  0.00  0.00    +0.004 C 
ATOM      4  C   UNL     1       6.060  -0.796   3.517  0.00  0.00    +0.070 C 
ATOM      5  C   UNL     1       5.790  -2.099   2.760  0.00  0.00    +0.004 C 
ATOM      6  C   UNL     1       5.371  -1.772   1.325  0.00  0.00    -0.077 C 
ATOM      7  H   UNL     1       3.427  -1.441   1.844  0.00  0.00    -0.081 HD
ENDROOT
BRANCH   4   8
ATOM      8  N   UNL     1       6.388  -1.099   4.912  0.00  0.00    -0.309 N 
ATOM      9  C   UNL     1       7.655  -1.400   5.256  0.00  0.00    +0.244 C 
ATOM     10  O   UNL     1       8.527  -1.421   4.409  0.00  0.00    -0.270 OA
ATOM     11  H   UNL     1       5.692  -1.082   5.588  0.00  0.00    +0.149 HD
BRANCH   9  12
ATOM     12  C   UNL     1       7.986  -1.705   6.663  0.00  0.00    +0.037 A 
ATOM     13  C   UNL     1       6.978  -1.686   7.639  0.00  0.00    +0.015 A 
ATOM     14  C   UNL     1       7.265  -1.965   8.941  0.00  0.00    +0.028 A 
ATOM     15  C   UNL     1       8.572  -2.274   9.320  0.00  0.00    +0.066 A 
ATOM     16  C   UNL     1       9.595  -2.297   8.350  0.00  0.00    +0.020 A 
ATOM     17  C   UNL     1       9.293  -2.016   7.016  0.00  0.00    +0.024 A 
ATOM     18  C   UNL     1      10.823  -2.647   9.058  0.00  0.00    +0.142 A 
ATOM     19  N   UNL     1      10.523  -2.808  10.315  0.00  0.00    -0.181 NA
ATOM     20  N   UNL     1       9.157  -2.589  10.516  0.00  0.00    -0.277 N 
ATOM     21  H   UNL     1       8.697  -2.650  11.367  0.00  0.00    +0.189 HD
ENDBRANCH   9  12
ENDBRANCH   4   8
BRANCH   1  22
ATOM     22  C   UNL     1       3.711  -0.707  -0.038  0.00  0.00    -0.043 C 
BRANCH  22  26
ATOM     23  C   UNL     1      -0.017   1.378   0.010  0.00  0.00    +0.000 A 
ATOM     24  C   UNL     1       1.171   2.086   0.002  0.00  0.00    +0.000 A 
ATOM     25  C   UNL     1       2.377   1.411  -0.013  0.00  0.00    +0.002 A 
ATOM     26  C   UNL     1       2.396   0.029  -0.020  0.00  0.00    -0.064 A 
ATOM     27  C   UNL     1       1.208  -0.679  -0.012  0.00  0.00    +0.002 A 
ATOM     28  C   UNL     1       0.002  -0.004   0.002  0.00  0.00    +0.000 A 
ENDBRANCH  22  26
ENDBRANCH   1  22
TORSDOF 4
