REMARK  Name = CHEMBL218719
REMARK  5 active torsions:
REMARK  status: ('A' for Active; 'I' for Inactive)
REMARK    1  A    between atoms: C_1  and  C_2
REMARK    2  A    between atoms: C_3  and  C_19
REMARK    3  A    between atoms: C_4  and  C_9
REMARK    4  A    between atoms: C_12  and  C_15
REMARK    5  A    between atoms: N_21  and  C_22
REMARK                            x       y       z     vdW  Elec       q    Type
REMARK                         _______ _______ _______ _____ _____    ______ ____
ROOT
ATOM      1  C   UNL     1      -0.018   1.502   0.018  0.00  0.00    +0.061 C 
ATOM      2  C   UNL     1       0.002  -0.005  -0.002  0.00  0.00    +0.016 C 
ATOM      3  C   UNL     1      -1.158  -0.684  -0.003  0.00  0.00    +0.039 C 
ATOM      4  C   UNL     1      -1.158  -2.190  -0.023  0.00  0.00    +0.064 C 
ATOM      5  C   UNL     1       0.036  -2.687  -0.841  0.00  0.00    +0.109 C 
ATOM      6  C   UNL     1       1.278  -1.951  -0.412  0.00  0.00    +0.218 C 
ATOM      7  O   UNL     1       2.350  -2.518  -0.420  0.00  0.00    -0.275 OA
ATOM      8  N   UNL     1       1.204  -0.665  -0.025  0.00  0.00    -0.289 N 
ATOM      9  H   UNL     1       2.011  -0.201   0.244  0.00  0.00    +0.154 HD
ENDROOT
BRANCH   4  10
ATOM     10  C   UNL     1      -1.053  -2.712   1.387  0.00  0.00    -0.039 A 
ATOM     11  C   UNL     1       0.041  -2.384   2.166  0.00  0.00    +0.005 A 
ATOM     12  C   UNL     1       0.137  -2.862   3.459  0.00  0.00    +0.012 A 
ATOM     13  C   UNL     1      -0.861  -3.668   3.974  0.00  0.00    +0.055 A 
ATOM     14  C   UNL     1      -1.955  -3.996   3.195  0.00  0.00    +0.012 A 
ATOM     15  C   UNL     1      -2.054  -3.514   1.903  0.00  0.00    +0.005 A 
BRANCH  13  16
ATOM     16  C   UNL     1      -0.756  -4.191   5.383  0.00  0.00    +0.417 C 
ATOM     17  F   UNL     1      -1.357  -3.284   6.263  0.00  0.00    -0.166 F 
ATOM     18  F   UNL     1      -1.405  -5.427   5.472  0.00  0.00    -0.166 F 
ATOM     19  F   UNL     1       0.592  -4.346   5.724  0.00  0.00    -0.166 F 
ENDBRANCH  13  16
ENDBRANCH   4  10
BRANCH   3  20
ATOM     20  C   UNL     1      -2.387   0.021   0.016  0.00  0.00    +0.246 C 
ATOM     21  O   UNL     1      -2.391   1.238   0.032  0.00  0.00    -0.270 OA
ATOM     22  N   UNL     1      -3.553  -0.656   0.015  0.00  0.00    -0.282 N 
ATOM     23  H   UNL     1      -3.551  -1.623  -0.065  0.00  0.00    +0.155 HD
BRANCH  22  24
ATOM     24  C   UNL     1      -4.765   0.035   0.130  0.00  0.00    +0.034 A 
ATOM     25  C   UNL     1      -4.907   1.290  -0.464  0.00  0.00    +0.025 A 
ATOM     26  C   UNL     1      -6.080   1.981  -0.363  0.00  0.00    +0.029 A 
ATOM     27  C   UNL     1      -7.154   1.436   0.338  0.00  0.00    +0.066 A 
ATOM     28  C   UNL     1      -7.021   0.170   0.940  0.00  0.00    +0.021 A 
ATOM     29  C   UNL     1      -5.815  -0.530   0.826  0.00  0.00    +0.035 A 
ATOM     30  C   UNL     1      -8.299  -0.113   1.585  0.00  0.00    +0.142 A 
ATOM     31  N   UNL     1      -9.088   0.900   1.369  0.00  0.00    -0.181 NA
ATOM     32  N   UNL     1      -8.426   1.871   0.610  0.00  0.00    -0.277 N 
ATOM     33  H   UNL     1      -8.806   2.715   0.321  0.00  0.00    +0.189 HD
ENDBRANCH  22  24
ENDBRANCH   3  20
TORSDOF 4
