REMARK  Name = CHEMBL578643
REMARK  3 active torsions:
REMARK  status: ('A' for Active; 'I' for Inactive)
REMARK    1  A    between atoms: C_8  and  N_10
REMARK    2  A    between atoms: C_13  and  N_24
REMARK    3  A    between atoms: N_17  and  C_18
REMARK                            x       y       z     vdW  Elec       q    Type
REMARK                         _______ _______ _______ _____ _____    ______ ____
ROOT
ATOM      1  N   UNL     1       3.749  -3.452   0.271  0.00  0.00    -0.327 N 
ATOM      2  C   UNL     1       4.829  -4.073  -0.337  0.00  0.00    +0.102 A 
ATOM      3  C   UNL     1       5.295  -3.631  -1.572  0.00  0.00    +0.085 A 
ATOM      4  C   UNL     1       6.382  -4.285  -2.143  0.00  0.00    +0.128 A 
ATOM      5  N   UNL     1       6.937  -5.306  -1.494  0.00  0.00    -0.201 NA
ATOM      6  C   UNL     1       6.468  -5.700  -0.320  0.00  0.00    +0.200 A 
ATOM      7  N   UNL     1       5.438  -5.097   0.256  0.00  0.00    -0.316 N 
ATOM      8  N   UNL     1       7.073  -6.766   0.326  0.00  0.00    -0.285 N 
ATOM      9  H   UNL     1       3.433  -3.763   1.133  0.00  0.00    +0.148 HD
ATOM     10  H   UNL     1       6.689  -7.119   1.144  0.00  0.00    +0.155 HD
ATOM     11  H   UNL     1       5.122  -5.409   1.119  0.00  0.00    +0.170 HD
ENDROOT
BRANCH   1  19
ATOM     12  C   UNL     1       0.144   1.367   0.183  0.00  0.00    +0.000 A 
ATOM     13  C   UNL     1       1.339   2.062   0.169  0.00  0.00    +0.000 A 
ATOM     14  C   UNL     1       2.536   1.375   0.129  0.00  0.00    +0.004 A 
ATOM     15  C   UNL     1       2.544  -0.010   0.104  0.00  0.00    -0.042 A 
ATOM     16  C   UNL     1       1.350  -0.705   0.118  0.00  0.00    -0.042 A 
ATOM     17  C   UNL     1       0.150  -0.014   0.158  0.00  0.00    +0.004 A 
ATOM     18  C   UNL     1       1.623  -2.194   0.085  0.00  0.00    +0.058 C 
ATOM     19  C   UNL     1       3.086  -2.325  -0.390  0.00  0.00    +0.080 C 
ATOM     20  C   UNL     1       3.702  -0.984   0.061  0.00  0.00    +0.058 C 
ENDBRANCH   1  19
BRANCH   4  21
ATOM     21  N   UNL     1       6.879  -3.880  -3.372  0.00  0.00    -0.319 N 
ATOM     22  C   UNL     1       8.027  -4.564  -3.986  0.00  0.00    +0.087 C 
ATOM     23  C   UNL     1       7.662  -4.925  -5.430  0.00  0.00    -0.063 C 
ATOM     24  N   UNL     1       7.227  -3.716  -6.140  0.00  0.00    +0.381 N 
ATOM     25  C   UNL     1       5.991  -3.199  -5.537  0.00  0.00    -0.063 C 
ATOM     26  C   UNL     1       6.270  -2.757  -4.101  0.00  0.00    +0.087 C 
ATOM     27  H   UNL     1       7.948  -3.013  -6.079  0.00  0.00    -0.086 HD
ATOM     28  H   UNL     1       7.059  -3.938  -7.109  0.00  0.00    -0.086 HD
ENDBRANCH   4  21
BRANCH   8  29
ATOM     29  C   UNL     1       8.233  -7.332  -0.200  0.00  0.00    +0.036 A 
ATOM     30  C   UNL     1       9.182  -6.544  -0.851  0.00  0.00    +0.043 A 
ATOM     31  C   UNL     1      10.316  -7.143  -1.357  0.00  0.00    +0.112 A 
ATOM     32  N   UNL     1      10.509  -8.442  -1.233  0.00  0.00    -0.263 NA
ATOM     33  C   UNL     1       9.634  -9.222  -0.625  0.00  0.00    +0.112 A 
ATOM     34  C   UNL     1       8.477  -8.700  -0.085  0.00  0.00    +0.043 A 
ENDBRANCH   8  29
TORSDOF 3
