REMARK  Name = CHEMBL575962
REMARK  2 active torsions:
REMARK  status: ('A' for Active; 'I' for Inactive)
REMARK    1  A    between atoms: C_6  and  N_7
REMARK    2  A    between atoms: N_20  and  C_21
REMARK                            x       y       z     vdW  Elec       q    Type
REMARK                         _______ _______ _______ _____ _____    ______ ____
ROOT
ATOM      1  N   UNL     1      -1.185  -0.735   0.010  0.00  0.00    -0.283 N 
ATOM      2  C   UNL     1      -1.149  -2.112  -0.102  0.00  0.00    +0.225 A 
ATOM      3  N   UNL     1       0.019  -2.748  -0.112  0.00  0.00    -0.181 NA
ATOM      4  C   UNL     1       0.054  -4.073  -0.219  0.00  0.00    +0.221 A 
ATOM      5  N   UNL     1      -1.079  -4.761  -0.317  0.00  0.00    -0.181 NA
ATOM      6  C   UNL     1      -2.246  -4.126  -0.307  0.00  0.00    +0.224 A 
ATOM      7  N   UNL     1      -2.281  -2.802  -0.195  0.00  0.00    -0.181 NA
ATOM      8  N   UNL     1      -3.422  -4.841  -0.409  0.00  0.00    -0.303 N 
ATOM      9  C   UNL     1      -3.408  -6.308  -0.522  0.00  0.00    +0.089 C 
ATOM     10  C   UNL     1      -4.372  -6.885   0.520  0.00  0.00    -0.063 C 
ATOM     11  N   UNL     1      -5.698  -6.276   0.349  0.00  0.00    +0.381 N 
ATOM     12  C   UNL     1      -5.627  -4.837   0.631  0.00  0.00    -0.063 C 
ATOM     13  C   UNL     1      -4.726  -4.159  -0.400  0.00  0.00    +0.089 C 
ATOM     14  N   UNL     1       1.266  -4.732  -0.230  0.00  0.00    -0.310 N 
ATOM     15  H   UNL     1      -2.035  -0.278   0.102  0.00  0.00    +0.155 HD
ATOM     16  H   UNL     1      -6.011  -6.417  -0.599  0.00  0.00    -0.086 HD
ATOM     17  H   UNL     1       1.291  -5.699  -0.308  0.00  0.00    +0.149 HD
ATOM     18  H   UNL     1      -6.350  -6.710   0.985  0.00  0.00    -0.086 HD
ENDROOT
BRANCH   1  24
ATOM     19  C   UNL     1       1.092  -0.427  -0.768  0.00  0.00    +0.043 A 
ATOM     20  C   UNL     1       2.247   0.326  -0.760  0.00  0.00    +0.112 A 
ATOM     21  N   UNL     1       2.328   1.434  -0.046  0.00  0.00    -0.263 NA
ATOM     22  C   UNL     1       1.318   1.868   0.684  0.00  0.00    +0.112 A 
ATOM     23  C   UNL     1       0.128   1.172   0.730  0.00  0.00    +0.043 A 
ATOM     24  C   UNL     1       0.001  -0.003  -0.009  0.00  0.00    +0.036 A 
ENDBRANCH   1  24
BRANCH  14  25
ATOM     25  C   UNL     1       2.514  -3.973  -0.122  0.00  0.00    +0.073 C 
ATOM     26  C   UNL     1       2.988  -3.534  -1.524  0.00  0.00    +0.022 C 
ATOM     27  C   UNL     1       4.530  -3.658  -1.459  0.00  0.00    +0.002 C 
ATOM     28  C   UNL     1       4.736  -4.938  -0.611  0.00  0.00    +0.002 C 
ATOM     29  C   UNL     1       3.626  -4.865   0.458  0.00  0.00    +0.022 C 
ENDBRANCH  14  25
TORSDOF 2
