REMARK  Name = CHEMBL218868
REMARK  7 active torsions:
REMARK  status: ('A' for Active; 'I' for Inactive)
REMARK    1  A    between atoms: C_1  and  C_2
REMARK    2  A    between atoms: C_2  and  N_3
REMARK    3  A    between atoms: C_6  and  O_18
REMARK    4  A    between atoms: C_11  and  C_12
REMARK    5  A    between atoms: O_18  and  C_19
REMARK    6  A    between atoms: C_23  and  N_25
REMARK    7  A    between atoms: C_26  and  C_28
REMARK                            x       y       z     vdW  Elec       q    Type
REMARK                         _______ _______ _______ _____ _____    ______ ____
ROOT
ATOM      1  N   UNL     1       0.712  -0.493   1.195  0.00  0.00    -0.322 N 
ATOM      2  C   UNL     1       2.061  -0.741   1.298  0.00  0.00    +0.076 A 
ATOM      3  C   UNL     1       3.144  -0.656   0.434  0.00  0.00    +0.095 A 
ATOM      4  C   UNL     1       4.400  -1.000   0.903  0.00  0.00    +0.223 A 
ATOM      5  N   UNL     1       4.578  -1.405   2.154  0.00  0.00    -0.219 NA
ATOM      6  C   UNL     1       3.584  -1.502   3.011  0.00  0.00    +0.144 A 
ATOM      7  C   UNL     1       2.283  -1.175   2.622  0.00  0.00    +0.108 A 
ATOM      8  N   UNL     1       1.084  -1.170   3.249  0.00  0.00    -0.224 NA
ATOM      9  C   UNL     1       0.155  -0.765   2.418  0.00  0.00    +0.167 A 
ENDROOT
BRANCH   9  10
ATOM     10  C   UNL     1      -1.280  -0.626   2.749  0.00  0.00    +0.190 A 
ATOM     11  C   UNL     1      -1.894  -0.908   4.053  0.00  0.00    +0.191 A 
ATOM     12  N   UNL     1      -3.174  -0.671   3.963  0.00  0.00    -0.033 NA
ATOM     13  O   UNL     1      -3.446  -0.239   2.642  0.00  0.00    -0.240 OA
ATOM     14  N   UNL     1      -2.220  -0.226   1.932  0.00  0.00    -0.044 NA
ATOM     15  N   UNL     1      -1.226  -1.350   5.188  0.00  0.00    -0.339 N 
ATOM     16  H   UNL     1      -0.268  -1.499   5.160  0.00  0.00    +0.144 HD
ATOM     17  H   UNL     1      -1.718  -1.510   6.009  0.00  0.00    +0.144 HD
ENDBRANCH   9  10
BRANCH   1  19
ATOM     18  C   UNL     1      -0.017   1.510  -0.004  0.00  0.00    +0.027 C 
ATOM     19  C   UNL     1       0.004  -0.020   0.004  0.00  0.00    +0.120 C 
ENDBRANCH   1  19
BRANCH   4  20
ATOM     20  O   UNL     1       5.468  -0.921   0.069  0.00  0.00    -0.438 OA
BRANCH  20  21
ATOM     21  C   UNL     1       6.701  -1.165   0.586  0.00  0.00    +0.132 A 
ATOM     22  C   UNL     1       7.091  -2.468   0.868  0.00  0.00    +0.046 A 
ATOM     23  C   UNL     1       8.344  -2.718   1.394  0.00  0.00    +0.005 A 
ATOM     24  C   UNL     1       9.213  -1.672   1.641  0.00  0.00    +0.023 A 
ATOM     25  C   UNL     1       8.829  -0.367   1.361  0.00  0.00    +0.037 A 
ATOM     26  C   UNL     1       7.572  -0.115   0.828  0.00  0.00    +0.069 A 
BRANCH  25  27
ATOM     27  N   UNL     1       9.709   0.691   1.613  0.00  0.00    -0.286 N 
ATOM     28  C   UNL     1      11.034   0.522   1.435  0.00  0.00    +0.214 C 
ATOM     29  O   UNL     1      11.472  -0.569   1.137  0.00  0.00    -0.276 OA
ATOM     30  C   UNL     1      11.972   1.690   1.605  0.00  0.00    +0.109 C 
ATOM     31  H   UNL     1       9.365   1.546   1.915  0.00  0.00    +0.155 HD
ENDBRANCH  25  27
ENDBRANCH  20  21
ENDBRANCH   4  20
TORSDOF 5
