REMARK  Name = CHEMBL520640
REMARK  7 active torsions:
REMARK  status: ('A' for Active; 'I' for Inactive)
REMARK    1  A    between atoms: C_1  and  C_2
REMARK    2  A    between atoms: C_3  and  C_17
REMARK    3  A    between atoms: C_4  and  C_16
REMARK    4  A    between atoms: C_6  and  C_8
REMARK    5  A    between atoms: C_11  and  O_14
REMARK    6  A    between atoms: O_14  and  C_15
REMARK    7  A    between atoms: N_19  and  C_20
REMARK                            x       y       z     vdW  Elec       q    Type
REMARK                         _______ _______ _______ _____ _____    ______ ____
ROOT
ATOM      1  C   UNL     1       0.152   1.646   0.018  0.00  0.00    +0.035 C 
ATOM      2  C   UNL     1       0.157   0.124  -0.145  0.00  0.00    +0.114 C 
ATOM      3  C   UNL     1       1.020  -0.242  -1.319  0.00  0.00    +0.053 C 
ATOM      4  C   UNL     1       2.252  -0.753  -1.140  0.00  0.00    +0.016 C 
ATOM      5  N   UNL     1       2.727  -0.953   0.131  0.00  0.00    -0.304 N 
ATOM      6  C   UNL     1       1.845  -0.974   1.193  0.00  0.00    +0.104 C 
ATOM      7  N   UNL     1       0.650  -0.485   1.084  0.00  0.00    -0.366 N 
ATOM      8  C   UNL     1       3.106  -1.103  -2.331  0.00  0.00    +0.061 C 
ATOM      9  H   UNL     1       3.676  -1.080   0.283  0.00  0.00    +0.153 HD
ATOM     10  H   UNL     1       0.059  -0.527   1.852  0.00  0.00    +0.161 HD
ENDROOT
BRANCH   6  11
ATOM     11  C   UNL     1       2.272  -1.563   2.479  0.00  0.00    +0.013 A 
ATOM     12  C   UNL     1       1.335  -2.170   3.317  0.00  0.00    +0.015 A 
ATOM     13  C   UNL     1       1.737  -2.719   4.515  0.00  0.00    +0.046 A 
ATOM     14  C   UNL     1       3.074  -2.669   4.890  0.00  0.00    +0.120 A 
ATOM     15  C   UNL     1       4.010  -2.066   4.059  0.00  0.00    +0.046 A 
ATOM     16  C   UNL     1       3.616  -1.520   2.857  0.00  0.00    +0.015 A 
BRANCH  14  17
ATOM     17  O   UNL     1       3.467  -3.210   6.072  0.00  0.00    -0.495 OA
ATOM     18  C   UNL     1       4.856  -3.124   6.395  0.00  0.00    +0.277 C 
ENDBRANCH  14  17
ENDBRANCH   6  11
BRANCH   3  19
ATOM     19  C   UNL     1       0.530  -0.046  -2.632  0.00  0.00    +0.248 C 
ATOM     20  O   UNL     1       1.263  -0.223  -3.588  0.00  0.00    -0.270 OA
ATOM     21  N   UNL     1      -0.748   0.335  -2.825  0.00  0.00    -0.282 N 
ATOM     22  H   UNL     1      -1.309   0.552  -2.064  0.00  0.00    +0.155 HD
BRANCH  21  23
ATOM     23  C   UNL     1      -1.267   0.416  -4.123  0.00  0.00    +0.034 A 
ATOM     24  C   UNL     1      -0.831  -0.478  -5.102  0.00  0.00    +0.025 A 
ATOM     25  C   UNL     1      -1.323  -0.416  -6.374  0.00  0.00    +0.029 A 
ATOM     26  C   UNL     1      -2.272   0.547  -6.708  0.00  0.00    +0.066 A 
ATOM     27  C   UNL     1      -2.720   1.454  -5.729  0.00  0.00    +0.021 A 
ATOM     28  C   UNL     1      -2.211   1.375  -4.427  0.00  0.00    +0.035 A 
ATOM     29  C   UNL     1      -3.695   2.319  -6.384  0.00  0.00    +0.142 A 
ATOM     30  N   UNL     1      -3.794   1.938  -7.626  0.00  0.00    -0.181 NA
ATOM     31  N   UNL     1      -2.940   0.857  -7.866  0.00  0.00    -0.277 N 
ATOM     32  H   UNL     1      -2.836   0.400  -8.716  0.00  0.00    +0.189 HD
ENDBRANCH  21  23
ENDBRANCH   3  19
TORSDOF 4
