REMARK  Name = CHEMBL365286
REMARK  3 active torsions:
REMARK  status: ('A' for Active; 'I' for Inactive)
REMARK    1  A    between atoms: C_1  and  C_2
REMARK    2  A    between atoms: C_2  and  N_3
REMARK    3  A    between atoms: C_11  and  C_12
REMARK                            x       y       z     vdW  Elec       q    Type
REMARK                         _______ _______ _______ _____ _____    ______ ____
ROOT
ATOM      1  N   UNL     1       0.711  -0.489   1.189  0.00  0.00    -0.322 N 
ATOM      2  C   UNL     1       2.064  -0.739   1.290  0.00  0.00    +0.069 A 
ATOM      3  C   UNL     1       3.132  -0.637   0.408  0.00  0.00    +0.028 A 
ATOM      4  C   UNL     1       4.401  -0.974   0.829  0.00  0.00    +0.002 A 
ATOM      5  C   UNL     1       4.618  -1.415   2.127  0.00  0.00    +0.002 A 
ATOM      6  C   UNL     1       3.581  -1.523   3.009  0.00  0.00    +0.030 A 
ATOM      7  C   UNL     1       2.284  -1.186   2.605  0.00  0.00    +0.090 A 
ATOM      8  N   UNL     1       1.084  -1.188   3.232  0.00  0.00    -0.226 NA
ATOM      9  C   UNL     1       0.155  -0.774   2.407  0.00  0.00    +0.167 A 
ENDROOT
BRANCH   9  10
ATOM     10  C   UNL     1      -1.280  -0.638   2.740  0.00  0.00    +0.190 A 
ATOM     11  C   UNL     1      -1.894  -0.933   4.041  0.00  0.00    +0.191 A 
ATOM     12  N   UNL     1      -3.173  -0.694   3.954  0.00  0.00    -0.033 NA
ATOM     13  O   UNL     1      -3.446  -0.248   2.638  0.00  0.00    -0.240 OA
ATOM     14  N   UNL     1      -2.221  -0.230   1.927  0.00  0.00    -0.044 NA
ATOM     15  N   UNL     1      -1.226  -1.387   5.171  0.00  0.00    -0.339 N 
ATOM     16  H   UNL     1      -0.268  -1.537   5.140  0.00  0.00    +0.144 HD
ATOM     17  H   UNL     1      -1.717  -1.555   5.990  0.00  0.00    +0.144 HD
ENDBRANCH   9  10
BRANCH   1  19
ATOM     18  C   UNL     1      -0.019   1.526   0.010  0.00  0.00    +0.027 C 
ATOM     19  C   UNL     1       0.002  -0.004   0.002  0.00  0.00    +0.120 C 
ENDBRANCH   1  19
TORSDOF 2
