REMARK  Name = CHEMBL225582
REMARK  4 active torsions:
REMARK  status: ('A' for Active; 'I' for Inactive)
REMARK    1  A    between atoms: C_4  and  C_7
REMARK    2  A    between atoms: C_7  and  N_8
REMARK    3  A    between atoms: C_12  and  O_14
REMARK    4  A    between atoms: O_14  and  C_15
REMARK                            x       y       z     vdW  Elec       q    Type
REMARK                         _______ _______ _______ _____ _____    ______ ____
ROOT
ATOM      1  N   UNL     1       4.146  -0.658   1.654  0.00  0.00    +0.385 N 
ATOM      2  C   UNL     1       4.589   0.501   2.438  0.00  0.00    -0.078 C 
ATOM      3  C   UNL     1       5.074   0.037   3.813  0.00  0.00    -0.015 C 
ATOM      4  C   UNL     1       6.242  -0.937   3.634  0.00  0.00    +0.041 C 
ATOM      5  C   UNL     1       5.790  -2.106   2.753  0.00  0.00    +0.157 C 
ATOM      6  C   UNL     1       5.278  -1.562   1.418  0.00  0.00    -0.033 C 
ATOM      7  H   UNL     1       3.425  -1.150   2.162  0.00  0.00    -0.081 HD
ENDROOT
BRANCH   1   8
ATOM      8  C   UNL     1       3.610  -0.201   0.366  0.00  0.00    -0.043 C 
BRANCH   8  12
ATOM      9  C   UNL     1       0.104   2.148   1.034  0.00  0.00    +0.000 A 
ATOM     10  C   UNL     1       1.346   2.754   0.997  0.00  0.00    +0.000 A 
ATOM     11  C   UNL     1       2.480   1.994   0.781  0.00  0.00    +0.002 A 
ATOM     12  C   UNL     1       2.373   0.628   0.602  0.00  0.00    -0.064 A 
ATOM     13  C   UNL     1       1.131   0.021   0.640  0.00  0.00    +0.002 A 
ATOM     14  C   UNL     1      -0.003   0.781   0.855  0.00  0.00    +0.000 A 
ENDBRANCH   8  12
ENDBRANCH   1   8
BRANCH   5  15
ATOM     15  O   UNL     1       4.741  -2.820   3.410  0.00  0.00    -0.491 OA
BRANCH  15  16
ATOM     16  C   UNL     1       5.112  -3.775   4.305  0.00  0.00    +0.122 A 
ATOM     17  C   UNL     1       6.457  -3.936   4.630  0.00  0.00    +0.048 A 
ATOM     18  C   UNL     1       6.851  -4.889   5.525  0.00  0.00    +0.031 A 
ATOM     19  C   UNL     1       5.904  -5.715   6.126  0.00  0.00    +0.066 A 
ATOM     20  C   UNL     1       4.543  -5.561   5.804  0.00  0.00    +0.023 A 
ATOM     21  C   UNL     1       4.153  -4.576   4.889  0.00  0.00    +0.057 A 
ATOM     22  C   UNL     1       3.820  -6.559   6.586  0.00  0.00    +0.142 A 
ATOM     23  N   UNL     1       4.693  -7.222   7.290  0.00  0.00    -0.181 NA
ATOM     24  N   UNL     1       5.981  -6.738   7.038  0.00  0.00    -0.277 N 
ATOM     25  H   UNL     1       6.797  -7.071   7.442  0.00  0.00    +0.189 HD
ENDBRANCH  15  16
ENDBRANCH   5  15
TORSDOF 4
