REMARK  Name = CHEMBL599163
REMARK  6 active torsions:
REMARK  status: ('A' for Active; 'I' for Inactive)
REMARK    1  A    between atoms: C_6  and  C_7
REMARK    2  A    between atoms: C_10  and  N_22
REMARK    3  A    between atoms: C_11  and  N_13
REMARK    4  A    between atoms: N_16  and  C_19
REMARK    5  A    between atoms: C_19  and  C_20
REMARK    6  A    between atoms: C_20  and  O_21
REMARK                            x       y       z     vdW  Elec       q    Type
REMARK                         _______ _______ _______ _____ _____    ______ ____
ROOT
ATOM      1  C   UNL     1      -1.278  -0.759   0.118  0.00  0.00    +0.091 A 
ATOM      2  C   UNL     1      -2.493  -0.133  -0.138  0.00  0.00    +0.141 A 
ATOM      3  N   UNL     1      -3.602  -0.848  -0.236  0.00  0.00    -0.235 NA
ATOM      4  C   UNL     1      -3.558  -2.164  -0.092  0.00  0.00    +0.162 A 
ATOM      5  C   UNL     1      -2.333  -2.800   0.166  0.00  0.00    +0.162 A 
ATOM      6  N   UNL     1      -1.226  -2.083   0.259  0.00  0.00    -0.227 NA
ENDROOT
BRANCH   5   7
ATOM      7  N   UNL     1      -2.284  -4.182   0.318  0.00  0.00    -0.316 N 
ATOM      8  C   UNL     1      -2.070  -5.064  -0.841  0.00  0.00    +0.088 C 
ATOM      9  C   UNL     1      -0.934  -6.037  -0.507  0.00  0.00    -0.059 C 
ATOM     10  N   UNL     1      -1.247  -6.743   0.742  0.00  0.00    +0.383 N 
ATOM     11  C   UNL     1      -1.291  -5.790   1.858  0.00  0.00    -0.059 C 
ATOM     12  C   UNL     1      -2.438  -4.804   1.642  0.00  0.00    +0.088 C 
ATOM     13  H   UNL     1      -2.143  -7.197   0.654  0.00  0.00    -0.082 HD
BRANCH  10  14
ATOM     14  C   UNL     1      -0.213  -7.753   1.004  0.00  0.00    -0.051 C 
BRANCH  14  15
ATOM     15  C   UNL     1      -0.601  -8.573   2.236  0.00  0.00    +0.137 C 
BRANCH  15  16
ATOM     16  O   UNL     1      -1.792  -9.314   1.959  0.00  0.00    -0.397 OA
ATOM     17  H   UNL     1      -2.097  -9.858   2.697  0.00  0.00    +0.209 HD
ENDBRANCH  15  16
ENDBRANCH  14  15
ENDBRANCH  10  14
ENDBRANCH   5   7
BRANCH   1  23
ATOM     18  C   UNL     1      -0.084   1.444   0.187  0.00  0.00    +0.030 A 
ATOM     19  C   UNL     1       1.093   2.155   0.293  0.00  0.00    +0.111 A 
ATOM     20  N   UNL     1       2.249   1.534   0.430  0.00  0.00    -0.263 NA
ATOM     21  C   UNL     1       2.336   0.219   0.473  0.00  0.00    +0.111 A 
ATOM     22  C   UNL     1       1.208  -0.569   0.374  0.00  0.00    +0.030 A 
ATOM     23  C   UNL     1      -0.039   0.047   0.228  0.00  0.00    +0.005 A 
ENDBRANCH   1  23
BRANCH   4  24
ATOM     24  N   UNL     1      -4.723  -2.915  -0.195  0.00  0.00    -0.312 N 
ATOM     25  C   UNL     1      -4.800  -4.383  -0.197  0.00  0.00    +0.106 C 
ATOM     26  C   UNL     1      -6.287  -4.764  -0.357  0.00  0.00    +0.020 C 
ATOM     27  C   UNL     1      -6.902  -3.496  -1.005  0.00  0.00    +0.020 C 
ATOM     28  C   UNL     1      -6.088  -2.370  -0.315  0.00  0.00    +0.106 C 
ENDBRANCH   4  24
TORSDOF 6
