REMARK  Name = CHEMBL575759
REMARK  2 active torsions:
REMARK  status: ('A' for Active; 'I' for Inactive)
REMARK    1  A    between atoms: C_9  and  N_11
REMARK    2  A    between atoms: N_24  and  C_25
REMARK                            x       y       z     vdW  Elec       q    Type
REMARK                         _______ _______ _______ _____ _____    ______ ____
ROOT
ATOM      1  N   UNL     1       5.066  -2.495  -0.028  0.00  0.00    -0.310 N 
ATOM      2  C   UNL     1       5.962  -2.641   1.012  0.00  0.00    +0.221 A 
ATOM      3  N   UNL     1       5.774  -1.979   2.150  0.00  0.00    -0.181 NA
ATOM      4  C   UNL     1       6.636  -2.120   3.151  0.00  0.00    +0.225 A 
ATOM      5  N   UNL     1       7.688  -2.922   3.015  0.00  0.00    -0.181 NA
ATOM      6  C   UNL     1       7.877  -3.583   1.877  0.00  0.00    +0.224 A 
ATOM      7  N   UNL     1       7.011  -3.446   0.877  0.00  0.00    -0.181 NA
ATOM      8  N   UNL     1       8.968  -4.416   1.736  0.00  0.00    -0.303 N 
ATOM      9  C   UNL     1       9.200  -5.153   0.484  0.00  0.00    +0.089 C 
ATOM     10  C   UNL     1      10.646  -4.911   0.039  0.00  0.00    -0.063 C 
ATOM     11  N   UNL     1      11.560  -5.269   1.131  0.00  0.00    +0.381 N 
ATOM     12  C   UNL     1      11.344  -4.376   2.277  0.00  0.00    -0.063 C 
ATOM     13  C   UNL     1       9.936  -4.587   2.830  0.00  0.00    +0.089 C 
ATOM     14  N   UNL     1       6.441  -1.432   4.333  0.00  0.00    -0.283 N 
ATOM     15  H   UNL     1       5.202  -2.980  -0.857  0.00  0.00    +0.149 HD
ATOM     16  H   UNL     1      11.388  -6.223   1.413  0.00  0.00    -0.086 HD
ATOM     17  H   UNL     1       7.112  -1.469   5.033  0.00  0.00    +0.155 HD
ATOM     18  H   UNL     1      12.513  -5.182   0.813  0.00  0.00    -0.086 HD
ENDROOT
BRANCH   1  27
ATOM     19  C   UNL     1       0.936   2.444  -0.458  0.00  0.00    +0.000 A 
ATOM     20  C   UNL     1       2.219   2.947  -0.337  0.00  0.00    +0.000 A 
ATOM     21  C   UNL     1       3.291   2.082  -0.270  0.00  0.00    +0.004 A 
ATOM     22  C   UNL     1       3.093   0.708  -0.321  0.00  0.00    -0.042 A 
ATOM     23  C   UNL     1       1.816   0.206  -0.435  0.00  0.00    -0.044 A 
ATOM     24  C   UNL     1       0.738   1.080  -0.506  0.00  0.00    +0.004 A 
ATOM     25  C   UNL     1       1.526  -1.271  -0.479  0.00  0.00    +0.037 C 
ATOM     26  C   UNL     1       2.789  -2.057  -0.823  0.00  0.00    +0.027 C 
ATOM     27  C   UNL     1       3.911  -1.607   0.120  0.00  0.00    +0.078 C 
ATOM     28  C   UNL     1       4.308  -0.179  -0.250  0.00  0.00    +0.057 C 
ENDBRANCH   1  27
BRANCH  14  29
ATOM     29  C   UNL     1       5.279  -0.685   4.521  0.00  0.00    +0.036 A 
ATOM     30  C   UNL     1       4.060  -1.114   3.995  0.00  0.00    +0.043 A 
ATOM     31  C   UNL     1       2.934  -0.346   4.204  0.00  0.00    +0.112 A 
ATOM     32  N   UNL     1       2.999   0.780   4.889  0.00  0.00    -0.263 NA
ATOM     33  C   UNL     1       4.133   1.219   5.403  0.00  0.00    +0.112 A 
ATOM     34  C   UNL     1       5.303   0.506   5.245  0.00  0.00    +0.043 A 
ENDBRANCH  14  29
TORSDOF 2
