REMARK  Name = CHEMBL571948
REMARK  5 active torsions:
REMARK  status: ('A' for Active; 'I' for Inactive)
REMARK    1  A    between atoms: C_1  and  C_2
REMARK    2  A    between atoms: C_2  and  C_4
REMARK    3  A    between atoms: C_2  and  N_23
REMARK    4  A    between atoms: C_7  and  C_10
REMARK    5  A    between atoms: N_12  and  C_13
REMARK                            x       y       z     vdW  Elec       q    Type
REMARK                         _______ _______ _______ _____ _____    ______ ____
ROOT
ATOM      1  C   UNL     1       2.787  -1.887   4.675  0.00  0.00    +0.248 C 
ATOM      2  O   UNL     1       4.002  -1.892   4.699  0.00  0.00    -0.270 OA
ATOM      3  N   UNL     1       2.090  -2.345   5.733  0.00  0.00    -0.281 N 
ATOM      4  H   UNL     1       1.121  -2.287   5.738  0.00  0.00    +0.155 HD
ENDROOT
BRANCH   3   5
ATOM      5  C   UNL     1       2.759  -2.903   6.820  0.00  0.00    +0.046 A 
ATOM      6  C   UNL     1       4.008  -2.433   7.211  0.00  0.00    +0.044 A 
ATOM      7  C   UNL     1       4.641  -3.014   8.295  0.00  0.00    +0.115 A 
ATOM      8  N   UNL     1       4.091  -4.002   8.969  0.00  0.00    -0.237 NA
ATOM      9  C   UNL     1       2.901  -4.495   8.645  0.00  0.00    +0.140 A 
ATOM     10  C   UNL     1       2.192  -3.953   7.558  0.00  0.00    +0.040 A 
ATOM     11  C   UNL     1       0.937  -4.701   7.473  0.00  0.00    +0.031 A 
ATOM     12  C   UNL     1       0.953  -5.603   8.467  0.00  0.00    +0.085 A 
ATOM     13  N   UNL     1       2.124  -5.498   9.171  0.00  0.00    -0.346 N 
ATOM     14  H   UNL     1       2.365  -6.045   9.935  0.00  0.00    +0.167 HD
ENDBRANCH   3   5
BRANCH   1  18
ATOM     15  C   UNL     1       0.738  -0.427   1.253  0.00  0.00    -0.062 A 
ATOM     16  C   UNL     1       2.121  -0.431   1.278  0.00  0.00    +0.003 A 
ATOM     17  C   UNL     1       2.793  -0.903   2.386  0.00  0.00    +0.013 A 
ATOM     18  C   UNL     1       2.074  -1.379   3.484  0.00  0.00    +0.037 A 
ATOM     19  C   UNL     1       0.678  -1.372   3.452  0.00  0.00    +0.013 A 
ATOM     20  C   UNL     1       0.019  -0.891   2.340  0.00  0.00    +0.003 A 
BRANCH  15  22
ATOM     21  C   UNL     1      -0.016   1.621   0.075  0.00  0.00    -0.009 C 
ATOM     22  C   UNL     1       0.011   0.092   0.039  0.00  0.00    -0.047 C 
BRANCH  22  23
ATOM     23  N   UNL     1       0.704  -0.357  -1.176  0.00  0.00    +0.382 N 
ATOM     24  H   UNL     1       1.649  -0.004  -1.174  0.00  0.00    -0.089 HD
ATOM     25  H   UNL     1       0.722  -1.365  -1.200  0.00  0.00    -0.089 HD
ATOM     26  H   UNL     1       0.217  -0.010  -1.989  0.00  0.00    -0.089 HD
ENDBRANCH  22  23
ENDBRANCH  15  22
ENDBRANCH   1  18
TORSDOF 4
