REMARK  Name = CHEMBL483402
REMARK  7 active torsions:
REMARK  status: ('A' for Active; 'I' for Inactive)
REMARK    1  A    between atoms: C_1  and  C_2
REMARK    2  A    between atoms: C_3  and  C_24
REMARK    3  A    between atoms: C_4  and  C_16
REMARK    4  A    between atoms: C_6  and  C_8
REMARK    5  A    between atoms: C_12  and  O_14
REMARK    6  A    between atoms: O_14  and  C_15
REMARK    7  A    between atoms: N_26  and  C_27
REMARK                            x       y       z     vdW  Elec       q    Type
REMARK                         _______ _______ _______ _____ _____    ______ ____
ROOT
ATOM      1  C   UNL     1      -0.834   1.203  -1.700  0.00  0.00    +0.061 C 
ATOM      2  C   UNL     1      -0.542  -0.006  -0.849  0.00  0.00    +0.017 C 
ATOM      3  C   UNL     1      -1.520  -0.887  -0.567  0.00  0.00    +0.058 C 
ATOM      4  C   UNL     1      -1.252  -2.092   0.288  0.00  0.00    +0.150 C 
ATOM      5  N   UNL     1       0.178  -2.349   0.407  0.00  0.00    -0.361 N 
ATOM      6  C   UNL     1       1.074  -1.466   0.106  0.00  0.00    +0.104 C 
ATOM      7  N   UNL     1       0.723  -0.218  -0.362  0.00  0.00    -0.304 N 
ATOM      8  H   UNL     1       1.366   0.508  -0.343  0.00  0.00    +0.153 HD
ATOM      9  H   UNL     1       0.470  -3.218   0.724  0.00  0.00    +0.162 HD
ENDROOT
BRANCH   4  10
ATOM     10  C   UNL     1      -1.827  -1.860   1.662  0.00  0.00    +0.015 A 
ATOM     11  C   UNL     1      -1.897  -0.578   2.174  0.00  0.00    +0.010 A 
ATOM     12  C   UNL     1      -2.425  -0.364   3.434  0.00  0.00    +0.020 A 
ATOM     13  C   UNL     1      -2.884  -1.433   4.183  0.00  0.00    +0.044 A 
ATOM     14  C   UNL     1      -2.815  -2.716   3.672  0.00  0.00    +0.058 A 
ATOM     15  C   UNL     1      -2.291  -2.930   2.408  0.00  0.00    +0.130 A 
ATOM     16  F   UNL     1      -2.227  -4.183   1.906  0.00  0.00    -0.205 F 
ATOM     17 CL   UNL     1      -3.545  -1.164   5.765  0.00  0.00    -0.083 Cl
ENDBRANCH   4  10
BRANCH   6  18
ATOM     18  C   UNL     1       2.508  -1.804   0.264  0.00  0.00    +0.019 A 
ATOM     19  C   UNL     1       2.957  -3.121   0.109  0.00  0.00    +0.031 A 
ATOM     20  C   UNL     1       4.300  -3.396   0.263  0.00  0.00    +0.115 A 
ATOM     21  N   UNL     1       5.160  -2.438   0.553  0.00  0.00    -0.221 NA
ATOM     22  C   UNL     1       4.781  -1.181   0.708  0.00  0.00    +0.215 A 
ATOM     23  C   UNL     1       3.448  -0.818   0.564  0.00  0.00    +0.078 A 
BRANCH  22  24
ATOM     24  O   UNL     1       5.705  -0.233   1.005  0.00  0.00    -0.480 OA
ATOM     25  C   UNL     1       7.061  -0.667   1.134  0.00  0.00    +0.279 C 
ENDBRANCH  22  24
ENDBRANCH   6  18
BRANCH   3  26
ATOM     26  C   UNL     1      -2.821  -0.674  -1.085  0.00  0.00    +0.248 C 
ATOM     27  O   UNL     1      -3.078   0.356  -1.680  0.00  0.00    -0.270 OA
ATOM     28  N   UNL     1      -3.773  -1.613  -0.920  0.00  0.00    -0.282 N 
ATOM     29  H   UNL     1      -3.566  -2.438  -0.453  0.00  0.00    +0.155 HD
BRANCH  28  30
ATOM     30  C   UNL     1      -5.063  -1.397  -1.421  0.00  0.00    +0.034 A 
ATOM     31  C   UNL     1      -5.556  -0.097  -1.535  0.00  0.00    +0.025 A 
ATOM     32  C   UNL     1      -6.810   0.135  -2.021  0.00  0.00    +0.029 A 
ATOM     33  C   UNL     1      -7.616  -0.932  -2.411  0.00  0.00    +0.066 A 
ATOM     34  C   UNL     1      -7.129  -2.249  -2.301  0.00  0.00    +0.021 A 
ATOM     35  C   UNL     1      -5.839  -2.473  -1.807  0.00  0.00    +0.035 A 
ATOM     36  C   UNL     1      -8.194  -3.122  -2.782  0.00  0.00    +0.142 A 
ATOM     37  N   UNL     1      -9.198  -2.370  -3.134  0.00  0.00    -0.181 NA
ATOM     38  N   UNL     1      -8.885  -1.023  -2.923  0.00  0.00    -0.277 N 
ATOM     39  H   UNL     1      -9.472  -0.274  -3.109  0.00  0.00    +0.189 HD
ENDBRANCH  28  30
ENDBRANCH   3  26
TORSDOF 5
