REMARK  Name = CHEMBL575340
REMARK  3 active torsions:
REMARK  status: ('A' for Active; 'I' for Inactive)
REMARK    1  A    between atoms: C_8  and  N_10
REMARK    2  A    between atoms: C_13  and  N_23
REMARK    3  A    between atoms: N_23  and  C_24
REMARK                            x       y       z     vdW  Elec       q    Type
REMARK                         _______ _______ _______ _____ _____    ______ ____
ROOT
ATOM      1  N   UNL     1       4.698  -2.367   0.716  0.00  0.00    -0.325 N 
ATOM      2  C   UNL     1       5.611  -3.155   0.032  0.00  0.00    +0.126 A 
ATOM      3  C   UNL     1       5.712  -3.076  -1.354  0.00  0.00    +0.085 A 
ATOM      4  C   UNL     1       6.642  -3.885  -1.998  0.00  0.00    +0.106 A 
ATOM      5  N   UNL     1       7.400  -4.704  -1.272  0.00  0.00    -0.316 N 
ATOM      6  C   UNL     1       7.277  -4.754   0.045  0.00  0.00    +0.198 A 
ATOM      7  N   UNL     1       6.406  -3.993   0.692  0.00  0.00    -0.201 NA
ATOM      8  N   UNL     1       8.082  -5.618   0.766  0.00  0.00    -0.305 N 
ATOM      9  C   UNL     1       7.896  -5.796   2.214  0.00  0.00    +0.089 C 
ATOM     10  C   UNL     1       7.811  -7.296   2.513  0.00  0.00    -0.063 C 
ATOM     11  N   UNL     1       8.996  -7.970   1.967  0.00  0.00    +0.381 N 
ATOM     12  C   UNL     1       9.005  -7.859   0.503  0.00  0.00    -0.063 C 
ATOM     13  C   UNL     1       9.145  -6.391   0.104  0.00  0.00    +0.089 C 
ATOM     14  H   UNL     1       4.636  -2.425   1.682  0.00  0.00    +0.148 HD
ATOM     15  H   UNL     1       9.829  -7.540   2.341  0.00  0.00    -0.086 HD
ATOM     16  H   UNL     1       8.977  -8.945   2.229  0.00  0.00    -0.086 HD
ATOM     17  H   UNL     1       8.051  -5.272  -1.714  0.00  0.00    +0.170 HD
ENDROOT
BRANCH   1  25
ATOM     18  C   UNL     1       0.955   2.328   0.307  0.00  0.00    +0.000 A 
ATOM     19  C   UNL     1       2.067   2.965  -0.212  0.00  0.00    +0.000 A 
ATOM     20  C   UNL     1       3.245   2.265  -0.384  0.00  0.00    +0.004 A 
ATOM     21  C   UNL     1       3.317   0.926  -0.038  0.00  0.00    -0.042 A 
ATOM     22  C   UNL     1       2.206   0.289   0.480  0.00  0.00    -0.042 A 
ATOM     23  C   UNL     1       1.025   0.992   0.652  0.00  0.00    +0.004 A 
ATOM     24  C   UNL     1       2.537  -1.159   0.775  0.00  0.00    +0.058 C 
ATOM     25  C   UNL     1       3.828  -1.448  -0.021  0.00  0.00    +0.080 C 
ATOM     26  C   UNL     1       4.471  -0.049  -0.127  0.00  0.00    +0.058 C 
ENDBRANCH   1  25
BRANCH   4  27
ATOM     27  N   UNL     1       6.777  -3.841  -3.378  0.00  0.00    -0.301 N 
ATOM     28  H   UNL     1       7.330  -4.495  -3.833  0.00  0.00    +0.154 HD
BRANCH  27  29
ATOM     29  C   UNL     1       6.119  -2.855  -4.111  0.00  0.00    +0.035 A 
ATOM     30  C   UNL     1       6.038  -1.546  -3.638  0.00  0.00    +0.043 A 
ATOM     31  C   UNL     1       5.378  -0.600  -4.394  0.00  0.00    +0.112 A 
ATOM     32  N   UNL     1       4.828  -0.921  -5.550  0.00  0.00    -0.263 NA
ATOM     33  C   UNL     1       4.883  -2.149  -6.032  0.00  0.00    +0.112 A 
ATOM     34  C   UNL     1       5.529  -3.151  -5.340  0.00  0.00    +0.043 A 
ENDBRANCH  27  29
ENDBRANCH   4  27
TORSDOF 3
