REMARK  Name = CHEMBL1083967
REMARK  7 active torsions:
REMARK  status: ('A' for Active; 'I' for Inactive)
REMARK    1  A    between atoms: C_1  and  C_2
REMARK    2  A    between atoms: C_2  and  C_3
REMARK    3  A    between atoms: C_3  and  C_4
REMARK    4  A    between atoms: C_4  and  C_5
REMARK    5  A    between atoms: C_4  and  N_22
REMARK    6  A    between atoms: C_11  and  C_21
REMARK    7  A    between atoms: C_12  and  C_14
REMARK                            x       y       z     vdW  Elec       q    Type
REMARK                         _______ _______ _______ _____ _____    ______ ____
ROOT
ATOM      1  C   UNL     1       1.382  -2.542   2.512  0.00  0.00    -0.061 A 
ATOM      2  C   UNL     1       2.766  -2.546   2.640  0.00  0.00    +0.003 A 
ATOM      3  C   UNL     1       3.340  -3.003   3.809  0.00  0.00    +0.016 A 
ATOM      4  C   UNL     1       2.533  -3.449   4.834  0.00  0.00    +0.020 A 
ATOM      5  C   UNL     1       1.123  -3.456   4.730  0.00  0.00    -0.007 A 
ATOM      6  C   UNL     1       0.575  -2.974   3.516  0.00  0.00    +0.011 A 
ATOM      7  C   UNL     1       0.429  -3.958   5.902  0.00  0.00    -0.026 A 
ATOM      8  C   UNL     1       1.155  -4.369   6.971  0.00  0.00    +0.042 A 
ATOM      9  S   UNL     1       2.840  -4.101   6.455  0.00  0.00    -0.086 S 
ATOM     10  C   UNL     1      -1.076  -4.021   5.930  0.00  0.00    +0.045 C 
ENDROOT
BRANCH   8  11
ATOM     11  C   UNL     1       0.665  -4.910   8.255  0.00  0.00    +0.083 A 
ATOM     12  C   UNL     1       1.567  -5.283   9.259  0.00  0.00    +0.049 A 
ATOM     13  C   UNL     1       1.062  -5.785  10.444  0.00  0.00    +0.116 A 
ATOM     14  N   UNL     1      -0.249  -5.897  10.594  0.00  0.00    -0.223 NA
ATOM     15  C   UNL     1      -1.081  -5.537   9.627  0.00  0.00    +0.213 A 
ATOM     16  N   UNL     1      -0.641  -5.047   8.479  0.00  0.00    -0.214 NA
ATOM     17  N   UNL     1      -2.444  -5.670   9.826  0.00  0.00    -0.327 N 
ATOM     18  H   UNL     1      -2.779  -6.024  10.664  0.00  0.00    +0.145 HD
ATOM     19  H   UNL     1      -3.064  -5.411   9.126  0.00  0.00    +0.145 HD
ENDBRANCH   8  11
BRANCH   1  20
ATOM     20  C   UNL     1       0.763  -2.041   1.233  0.00  0.00    -0.044 C 
BRANCH  20  21
ATOM     21  N   UNL     1       1.553  -2.513   0.088  0.00  0.00    +0.383 N 
ATOM     22  H   UNL     1       1.138  -2.178  -0.768  0.00  0.00    -0.089 HD
ATOM     23  H   UNL     1       2.497  -2.165   0.164  0.00  0.00    -0.089 HD
ATOM     24  H   UNL     1       1.567  -3.522   0.083  0.00  0.00    -0.089 HD
ENDBRANCH  20  21
BRANCH  20  25
ATOM     25  C   UNL     1       0.742  -0.511   1.242  0.00  0.00    -0.012 C 
BRANCH  25  27
ATOM     26  C   UNL     1      -0.019   1.526   0.010  0.00  0.00    +0.004 C 
ATOM     27  C   UNL     1       0.002  -0.004   0.002  0.00  0.00    -0.005 C 
ENDBRANCH  25  27
ENDBRANCH  20  25
ENDBRANCH   1  20
TORSDOF 5
