REMARK  Name = CHEMBL218719
REMARK  5 active torsions:
REMARK  status: ('A' for Active; 'I' for Inactive)
REMARK    1  A    between atoms: C_1  and  C_2
REMARK    2  A    between atoms: C_3  and  C_19
REMARK    3  A    between atoms: C_4  and  C_9
REMARK    4  A    between atoms: C_12  and  C_15
REMARK    5  A    between atoms: N_21  and  C_22
REMARK                            x       y       z     vdW  Elec       q    Type
REMARK                         _______ _______ _______ _____ _____    ______ ____
ROOT
ATOM      1  C   UNL     1      -0.018   1.502   0.018  0.00  0.00    +0.061 C 
ATOM      2  C   UNL     1       0.002  -0.005  -0.001  0.00  0.00    +0.016 C 
ATOM      3  C   UNL     1      -1.158  -0.684  -0.001  0.00  0.00    +0.039 C 
ATOM      4  C   UNL     1      -1.158  -2.190  -0.020  0.00  0.00    +0.064 C 
ATOM      5  C   UNL     1       0.047  -2.708   0.768  0.00  0.00    +0.109 C 
ATOM      6  C   UNL     1       1.284  -1.960   0.340  0.00  0.00    +0.218 C 
ATOM      7  O   UNL     1       2.355  -2.528   0.318  0.00  0.00    -0.275 OA
ATOM      8  N   UNL     1       1.204  -0.665  -0.023  0.00  0.00    -0.289 N 
ATOM      9  H   UNL     1       2.005  -0.194  -0.299  0.00  0.00    +0.154 HD
ENDROOT
BRANCH   4  10
ATOM     10  C   UNL     1      -1.073  -2.675  -1.444  0.00  0.00    -0.039 A 
ATOM     11  C   UNL     1       0.015  -2.336  -2.227  0.00  0.00    +0.005 A 
ATOM     12  C   UNL     1       0.093  -2.781  -3.533  0.00  0.00    +0.012 A 
ATOM     13  C   UNL     1      -0.918  -3.565  -4.057  0.00  0.00    +0.055 A 
ATOM     14  C   UNL     1      -2.006  -3.905  -3.275  0.00  0.00    +0.012 A 
ATOM     15  C   UNL     1      -2.081  -3.463  -1.967  0.00  0.00    +0.005 A 
BRANCH  13  16
ATOM     16  C   UNL     1      -0.834  -4.049  -5.482  0.00  0.00    +0.417 C 
ATOM     17  F   UNL     1      -0.177  -5.283  -5.517  0.00  0.00    -0.166 F 
ATOM     18  F   UNL     1      -2.124  -4.193  -6.003  0.00  0.00    -0.166 F 
ATOM     19  F   UNL     1      -0.122  -3.120  -6.249  0.00  0.00    -0.166 F 
ENDBRANCH  13  16
ENDBRANCH   4  10
BRANCH   3  20
ATOM     20  C   UNL     1      -2.387   0.021   0.016  0.00  0.00    +0.246 C 
ATOM     21  O   UNL     1      -2.391   1.238   0.032  0.00  0.00    -0.270 OA
ATOM     22  N   UNL     1      -3.553  -0.656   0.016  0.00  0.00    -0.282 N 
ATOM     23  H   UNL     1      -3.551  -1.623  -0.065  0.00  0.00    +0.155 HD
BRANCH  22  24
ATOM     24  C   UNL     1      -4.765   0.035   0.132  0.00  0.00    +0.034 A 
ATOM     25  C   UNL     1      -4.907   1.290  -0.462  0.00  0.00    +0.025 A 
ATOM     26  C   UNL     1      -6.080   1.981  -0.361  0.00  0.00    +0.029 A 
ATOM     27  C   UNL     1      -7.154   1.435   0.340  0.00  0.00    +0.066 A 
ATOM     28  C   UNL     1      -7.021   0.170   0.942  0.00  0.00    +0.021 A 
ATOM     29  C   UNL     1      -5.815  -0.530   0.827  0.00  0.00    +0.035 A 
ATOM     30  C   UNL     1      -8.299  -0.114   1.588  0.00  0.00    +0.142 A 
ATOM     31  N   UNL     1      -9.088   0.900   1.372  0.00  0.00    -0.181 NA
ATOM     32  N   UNL     1      -8.426   1.870   0.613  0.00  0.00    -0.277 N 
ATOM     33  H   UNL     1      -8.806   2.715   0.325  0.00  0.00    +0.189 HD
ENDBRANCH  22  24
ENDBRANCH   3  20
TORSDOF 4
