REMARK  Name = CHEMBL577177
REMARK  7 active torsions:
REMARK  status: ('A' for Active; 'I' for Inactive)
REMARK    1  A    between atoms: C_1  and  N_2
REMARK    2  A    between atoms: N_2  and  C_3
REMARK    3  A    between atoms: C_3  and  C_4
REMARK    4  A    between atoms: C_4  and  N_5
REMARK    5  A    between atoms: N_5  and  C_6
REMARK    6  A    between atoms: N_13  and  C_14
REMARK    7  A    between atoms: N_23  and  C_24
REMARK                            x       y       z     vdW  Elec       q    Type
REMARK                         _______ _______ _______ _____ _____    ______ ____
ROOT
ATOM      1  N   UNL     1       1.356  -2.773  -2.366  0.00  0.00    -0.304 N 
ATOM      2  C   UNL     1       2.768  -3.162  -2.304  0.00  0.00    +0.132 C 
ATOM      3  C   UNL     1       0.624  -3.012  -3.511  0.00  0.00    +0.223 A 
ATOM      4  N   UNL     1      -0.655  -2.654  -3.568  0.00  0.00    -0.181 NA
ATOM      5  C   UNL     1      -1.360  -2.883  -4.671  0.00  0.00    +0.225 A 
ATOM      6  N   UNL     1      -0.787  -3.470  -5.717  0.00  0.00    -0.181 NA
ATOM      7  C   UNL     1       0.492  -3.828  -5.660  0.00  0.00    +0.221 A 
ATOM      8  N   UNL     1       1.199  -3.594  -4.558  0.00  0.00    -0.181 NA
ATOM      9  N   UNL     1       1.088  -4.438  -6.745  0.00  0.00    -0.310 N 
ATOM     10  N   UNL     1      -2.690  -2.512  -4.731  0.00  0.00    -0.283 N 
ATOM     11  H   UNL     1       2.021  -4.699  -6.703  0.00  0.00    +0.149 HD
ATOM     12  H   UNL     1      -3.131  -2.157  -3.943  0.00  0.00    +0.155 HD
ENDROOT
BRANCH   9  13
ATOM     13  C   UNL     1       0.310  -4.691  -7.961  0.00  0.00    +0.082 C 
ATOM     14  C   UNL     1      -0.324  -6.097  -7.924  0.00  0.00    +0.058 C 
ATOM     15  C   UNL     1      -0.288  -6.586  -9.356  0.00  0.00    -0.042 A 
ATOM     16  C   UNL     1      -0.983  -7.614  -9.972  0.00  0.00    +0.004 A 
ATOM     17  C   UNL     1      -0.784  -7.882 -11.312  0.00  0.00    +0.000 A 
ATOM     18  C   UNL     1       0.111  -7.122 -12.042  0.00  0.00    +0.000 A 
ATOM     19  C   UNL     1       0.805  -6.097 -11.430  0.00  0.00    +0.004 A 
ATOM     20  C   UNL     1       0.607  -5.827 -10.086  0.00  0.00    -0.042 A 
ATOM     21  C   UNL     1       1.234  -4.776  -9.195  0.00  0.00    +0.058 C 
ENDBRANCH   9  13
BRANCH  10  22
ATOM     22  C   UNL     1      -3.399  -2.646  -5.924  0.00  0.00    +0.036 A 
ATOM     23  C   UNL     1      -4.761  -2.941  -5.917  0.00  0.00    +0.043 A 
ATOM     24  C   UNL     1      -5.426  -3.066  -7.120  0.00  0.00    +0.112 A 
ATOM     25  N   UNL     1      -4.788  -2.911  -8.264  0.00  0.00    -0.263 NA
ATOM     26  C   UNL     1      -3.499  -2.631  -8.313  0.00  0.00    +0.112 A 
ATOM     27  C   UNL     1      -2.764  -2.483  -7.155  0.00  0.00    +0.043 A 
ENDBRANCH  10  22
BRANCH   1  28
ATOM     28  C   UNL     1       0.723  -2.131  -1.211  0.00  0.00    +0.088 C 
BRANCH  28  29
ATOM     29  C   UNL     1       0.881  -0.613  -1.321  0.00  0.00    -0.064 C 
BRANCH  29  31
ATOM     30  C   UNL     1       0.398   1.488  -0.270  0.00  0.00    -0.100 C 
ATOM     31  N   UNL     1       0.245   0.030  -0.164  0.00  0.00    +0.378 N 
ATOM     32  H   UNL     1       0.686  -0.293   0.684  0.00  0.00    -0.086 HD
ATOM     33  H   UNL     1      -0.736  -0.205  -0.145  0.00  0.00    -0.086 HD
ENDBRANCH  29  31
ENDBRANCH  28  29
ENDBRANCH   1  28
TORSDOF 5
