REMARK  Name = CHEMBL224746
REMARK  4 active torsions:
REMARK  status: ('A' for Active; 'I' for Inactive)
REMARK    1  A    between atoms: C_3  and  C_7
REMARK    2  A    between atoms: C_7  and  N_8
REMARK    3  A    between atoms: C_12  and  N_14
REMARK    4  A    between atoms: N_14  and  C_15
REMARK                            x       y       z     vdW  Elec       q    Type
REMARK                         _______ _______ _______ _____ _____    ______ ____
ROOT
ATOM      1  N   UNL     1       4.142   2.271   1.359  0.00  0.00    +0.384 N 
ATOM      2  C   UNL     1       3.212   3.187   2.030  0.00  0.00    -0.078 C 
ATOM      3  C   UNL     1       3.627   3.359   3.494  0.00  0.00    -0.017 C 
ATOM      4  C   UNL     1       5.044   3.934   3.553  0.00  0.00    +0.018 C 
ATOM      5  C   UNL     1       5.993   3.009   2.786  0.00  0.00    +0.054 C 
ATOM      6  C   UNL     1       5.491   2.850   1.349  0.00  0.00    -0.056 C 
ATOM      7  H   UNL     1       4.159   1.391   1.852  0.00  0.00    -0.081 HD
ENDROOT
BRANCH   5   8
ATOM      8  N   UNL     1       6.031   1.698   3.438  0.00  0.00    -0.343 N 
ATOM      9  H   UNL     1       5.454   0.983   3.126  0.00  0.00    +0.146 HD
BRANCH   8  10
ATOM     10  C   UNL     1       6.899   1.476   4.513  0.00  0.00    +0.028 A 
ATOM     11  C   UNL     1       7.722   2.522   4.955  0.00  0.00    +0.025 A 
ATOM     12  C   UNL     1       8.582   2.364   5.991  0.00  0.00    +0.032 A 
ATOM     13  C   UNL     1       8.661   1.118   6.651  0.00  0.00    +0.093 A 
ATOM     14  C   UNL     1       7.799   0.019   6.189  0.00  0.00    +0.021 A 
ATOM     15  C   UNL     1       6.922   0.251   5.108  0.00  0.00    +0.034 A 
ATOM     16  C   UNL     1       8.079  -1.065   7.000  0.00  0.00    +0.113 A 
ATOM     17  N   UNL     1       9.019  -0.689   7.881  0.00  0.00    -0.284 N 
ATOM     18  N   UNL     1       9.370   0.648   7.662  0.00  0.00    -0.174 NA
ATOM     19  H   UNL     1       9.398  -1.259   8.568  0.00  0.00    +0.188 HD
ENDBRANCH   8  10
ENDBRANCH   5   8
BRANCH   1  20
ATOM     20  C   UNL     1       3.696   2.049  -0.023  0.00  0.00    -0.041 C 
BRANCH  20  23
ATOM     21  C   UNL     1      -0.017   1.378   0.010  0.00  0.00    +0.020 A 
ATOM     22  C   UNL     1       1.185   2.070   0.002  0.00  0.00    +0.005 A 
ATOM     23  C   UNL     1       2.365   1.343  -0.013  0.00  0.00    -0.046 A 
ATOM     24  C   UNL     1       2.305  -0.038  -0.020  0.00  0.00    +0.112 A 
ATOM     25  N   UNL     1       1.144  -0.663  -0.013  0.00  0.00    -0.263 NA
ATOM     26  C   UNL     1       0.002  -0.004   0.002  0.00  0.00    +0.111 A 
ENDBRANCH  20  23
ENDBRANCH   1  20
TORSDOF 4
