REMARK  Name = CHEMBL441702
REMARK  4 active torsions:
REMARK  status: ('A' for Active; 'I' for Inactive)
REMARK    1  A    between atoms: C_1  and  C_2
REMARK    2  A    between atoms: C_3  and  C_19
REMARK    3  A    between atoms: C_4  and  C_9
REMARK    4  A    between atoms: N_21  and  C_22
REMARK                            x       y       z     vdW  Elec       q    Type
REMARK                         _______ _______ _______ _____ _____    ______ ____
ROOT
ATOM      1  C   UNL     1      -0.018   1.502   0.018  0.00  0.00    +0.061 C 
ATOM      2  C   UNL     1       0.002  -0.005  -0.001  0.00  0.00    +0.016 C 
ATOM      3  C   UNL     1      -1.158  -0.684  -0.001  0.00  0.00    +0.039 C 
ATOM      4  C   UNL     1      -1.158  -2.190  -0.020  0.00  0.00    +0.064 C 
ATOM      5  C   UNL     1       0.047  -2.708   0.768  0.00  0.00    +0.109 C 
ATOM      6  C   UNL     1       1.284  -1.960   0.340  0.00  0.00    +0.218 C 
ATOM      7  O   UNL     1       2.355  -2.528   0.318  0.00  0.00    -0.275 OA
ATOM      8  N   UNL     1       1.204  -0.665  -0.023  0.00  0.00    -0.289 N 
ATOM      9  H   UNL     1       2.005  -0.194  -0.299  0.00  0.00    +0.154 HD
ENDROOT
BRANCH   4  10
ATOM     10  C   UNL     1      -1.073  -2.675  -1.444  0.00  0.00    -0.039 A 
ATOM     11  C   UNL     1       0.029  -2.327  -2.224  0.00  0.00    +0.005 A 
ATOM     12  C   UNL     1       0.136  -2.748  -3.514  0.00  0.00    +0.009 A 
ATOM     13  C   UNL     1      -0.878  -3.546  -4.071  0.00  0.00    -0.018 A 
ATOM     14  C   UNL     1      -0.802  -4.000  -5.399  0.00  0.00    +0.008 A 
ATOM     15  C   UNL     1      -1.803  -4.771  -5.905  0.00  0.00    +0.001 A 
ATOM     16  C   UNL     1      -2.905  -5.120  -5.125  0.00  0.00    +0.001 A 
ATOM     17  C   UNL     1      -3.012  -4.698  -3.836  0.00  0.00    +0.008 A 
ATOM     18  C   UNL     1      -1.998  -3.900  -3.278  0.00  0.00    -0.018 A 
ATOM     19  C   UNL     1      -2.071  -3.451  -1.949  0.00  0.00    +0.012 A 
ENDBRANCH   4  10
BRANCH   3  20
ATOM     20  C   UNL     1      -2.387   0.021   0.016  0.00  0.00    +0.246 C 
ATOM     21  O   UNL     1      -2.391   1.238   0.032  0.00  0.00    -0.270 OA
ATOM     22  N   UNL     1      -3.553  -0.656   0.016  0.00  0.00    -0.282 N 
ATOM     23  H   UNL     1      -3.551  -1.623  -0.065  0.00  0.00    +0.155 HD
BRANCH  22  24
ATOM     24  C   UNL     1      -4.765   0.035   0.132  0.00  0.00    +0.034 A 
ATOM     25  C   UNL     1      -4.907   1.290  -0.462  0.00  0.00    +0.025 A 
ATOM     26  C   UNL     1      -6.080   1.981  -0.361  0.00  0.00    +0.029 A 
ATOM     27  C   UNL     1      -7.154   1.435   0.340  0.00  0.00    +0.066 A 
ATOM     28  C   UNL     1      -7.021   0.170   0.942  0.00  0.00    +0.021 A 
ATOM     29  C   UNL     1      -5.815  -0.530   0.827  0.00  0.00    +0.035 A 
ATOM     30  C   UNL     1      -8.299  -0.114   1.588  0.00  0.00    +0.142 A 
ATOM     31  N   UNL     1      -9.088   0.900   1.372  0.00  0.00    -0.181 NA
ATOM     32  N   UNL     1      -8.426   1.870   0.613  0.00  0.00    -0.277 N 
ATOM     33  H   UNL     1      -8.806   2.715   0.325  0.00  0.00    +0.189 HD
ENDBRANCH  22  24
ENDBRANCH   3  20
TORSDOF 3
