REMARK  Name = CHEMBL604934
REMARK  3 active torsions:
REMARK  status: ('A' for Active; 'I' for Inactive)
REMARK    1  A    between atoms: C_7  and  C_11
REMARK    2  A    between atoms: C_14  and  N_23
REMARK    3  A    between atoms: C_15  and  N_17
REMARK                            x       y       z     vdW  Elec       q    Type
REMARK                         _______ _______ _______ _____ _____    ______ ____
ROOT
ATOM      1  C   UNL     1      -2.429  -0.641   0.117  0.00  0.00    +0.092 A 
ATOM      2  C   UNL     1      -2.831   0.690   0.172  0.00  0.00    +0.141 A 
ATOM      3  N   UNL     1      -4.114   1.000   0.089  0.00  0.00    -0.235 NA
ATOM      4  C   UNL     1      -5.021   0.044  -0.048  0.00  0.00    +0.162 A 
ATOM      5  C   UNL     1      -4.620  -1.299  -0.104  0.00  0.00    +0.162 A 
ATOM      6  N   UNL     1      -3.337  -1.607  -0.025  0.00  0.00    -0.227 NA
ENDROOT
BRANCH   1  13
ATOM      7  C   UNL     1      -1.251  -3.616   0.239  0.00  0.00    +0.029 A 
ATOM      8  C   UNL     1      -0.301  -4.563   0.312  0.00  0.00    +0.085 A 
ATOM      9  N   UNL     1       0.935  -3.978   0.378  0.00  0.00    -0.346 N 
ATOM     10  H   UNL     1       1.776  -4.458   0.436  0.00  0.00    +0.167 HD
ATOM     11  C   UNL     1       0.809  -2.609   0.347  0.00  0.00    +0.139 A 
ATOM     12  C   UNL     1      -0.566  -2.325   0.259  0.00  0.00    +0.028 A 
ATOM     13  C   UNL     1      -0.992  -0.985   0.211  0.00  0.00    +0.014 A 
ATOM     14  C   UNL     1      -0.014   0.010   0.254  0.00  0.00    +0.030 A 
ATOM     15  C   UNL     1       1.317  -0.354   0.341  0.00  0.00    +0.114 A 
ATOM     16  N   UNL     1       1.689  -1.617   0.384  0.00  0.00    -0.237 NA
ENDBRANCH   1  13
BRANCH   5  17
ATOM     17  N   UNL     1      -5.571  -2.305  -0.248  0.00  0.00    -0.316 N 
ATOM     18  C   UNL     1      -5.964  -2.790  -1.580  0.00  0.00    +0.087 C 
ATOM     19  C   UNL     1      -5.872  -4.320  -1.586  0.00  0.00    -0.063 C 
ATOM     20  N   UNL     1      -6.676  -4.862  -0.483  0.00  0.00    +0.381 N 
ATOM     21  C   UNL     1      -6.109  -4.438   0.804  0.00  0.00    -0.063 C 
ATOM     22  C   UNL     1      -6.208  -2.918   0.928  0.00  0.00    +0.087 C 
ATOM     23  H   UNL     1      -7.623  -4.523  -0.560  0.00  0.00    -0.086 HD
ATOM     24  H   UNL     1      -6.676  -5.870  -0.533  0.00  0.00    -0.086 HD
ENDBRANCH   5  17
BRANCH   4  25
ATOM     25  N   UNL     1      -6.369   0.372  -0.134  0.00  0.00    -0.312 N 
ATOM     26  C   UNL     1      -7.486  -0.584  -0.132  0.00  0.00    +0.106 C 
ATOM     27  C   UNL     1      -8.788   0.232  -0.273  0.00  0.00    +0.020 C 
ATOM     28  C   UNL     1      -8.300   1.557  -0.915  0.00  0.00    +0.020 C 
ATOM     29  C   UNL     1      -6.916   1.737  -0.238  0.00  0.00    +0.106 C 
ENDBRANCH   4  25
TORSDOF 3
