REMARK  Name = CHEMBL1084892
REMARK  5 active torsions:
REMARK  status: ('A' for Active; 'I' for Inactive)
REMARK    1  A    between atoms: C_1  and  N_2
REMARK    2  A    between atoms: N_2  and  C_3
REMARK    3  A    between atoms: C_3  and  C_4
REMARK    4  A    between atoms: C_3  and  C_10
REMARK    5  A    between atoms: N_12  and  C_13
REMARK                            x       y       z     vdW  Elec       q    Type
REMARK                         _______ _______ _______ _____ _____    ______ ____
ROOT
ATOM      1  C   UNL     1      -2.109   0.081   1.053  0.00  0.00    +0.239 C 
ATOM      2  O   UNL     1      -1.647   0.941   1.772  0.00  0.00    -0.273 OA
ATOM      3  N   UNL     1      -3.334  -0.422   1.305  0.00  0.00    -0.283 N 
ATOM      4  H   UNL     1      -3.670  -1.166   0.781  0.00  0.00    +0.155 HD
ENDROOT
BRANCH   3   5
ATOM      5  C   UNL     1      -4.119   0.128   2.320  0.00  0.00    +0.053 A 
ATOM      6  C   UNL     1      -4.053   1.486   2.580  0.00  0.00    +0.033 A 
ATOM      7  C   UNL     1      -4.840   2.027   3.594  0.00  0.00    -0.010 A 
ATOM      8  C   UNL     1      -4.814   3.455   3.916  0.00  0.00    +0.026 A 
ATOM      9  C   UNL     1      -5.595   3.922   4.904  0.00  0.00    +0.086 A 
ATOM     10  N   UNL     1      -6.421   3.111   5.629  0.00  0.00    -0.329 N 
ATOM     11  H   UNL     1      -6.963   3.504   6.331  0.00  0.00    +0.168 HD
ATOM     12  C   UNL     1      -6.509   1.786   5.402  0.00  0.00    +0.257 A 
ATOM     13  O   UNL     1      -7.258   1.096   6.071  0.00  0.00    -0.267 OA
ATOM     14  C   UNL     1      -5.695   1.184   4.343  0.00  0.00    +0.048 A 
ATOM     15  C   UNL     1      -5.744  -0.182   4.062  0.00  0.00    +0.035 A 
ATOM     16  C   UNL     1      -4.970  -0.696   3.061  0.00  0.00    +0.063 A 
ATOM     17 CL   UNL     1      -5.039  -2.395   2.709  0.00  0.00    -0.082 Cl
ENDBRANCH   3   5
BRANCH   1  18
ATOM     18  C   UNL     1      -1.314  -0.424  -0.123  0.00  0.00    +0.171 C 
BRANCH  18  19
ATOM     19  C   UNL     1      -1.877   0.154  -1.396  0.00  0.00    -0.022 A 
ATOM     20  C   UNL     1      -1.474   1.405  -1.824  0.00  0.00    +0.005 A 
ATOM     21  C   UNL     1      -1.990   1.936  -2.991  0.00  0.00    +0.000 A 
ATOM     22  C   UNL     1      -2.909   1.216  -3.731  0.00  0.00    +0.000 A 
ATOM     23  C   UNL     1      -3.311  -0.036  -3.304  0.00  0.00    +0.000 A 
ATOM     24  C   UNL     1      -2.792  -0.569  -2.139  0.00  0.00    +0.005 A 
ENDBRANCH  18  19
BRANCH  18  26
ATOM     25  C   UNL     1       0.970  -0.856  -0.800  0.00  0.00    +0.102 C 
ATOM     26  N   UNL     1       0.089  -0.016   0.022  0.00  0.00    -0.305 NA
ATOM     27  H   UNL     1       0.372  -0.034   0.990  0.00  0.00    +0.123 HD
ENDBRANCH  18  26
ENDBRANCH   1  18
TORSDOF 4
