REMARK  Name = CHEMBL1079921
REMARK  9 active torsions:
REMARK  status: ('A' for Active; 'I' for Inactive)
REMARK    1  A    between atoms: C_1  and  N_2
REMARK    2  A    between atoms: N_2  and  C_3
REMARK    3  A    between atoms: N_2  and  C_4
REMARK    4  A    between atoms: C_4  and  C_5
REMARK    5  A    between atoms: C_5  and  C_6
REMARK    6  A    between atoms: C_6  and  N_7
REMARK    7  A    between atoms: C_8  and  C_10
REMARK    8  A    between atoms: C_17  and  C_20
REMARK    9  A    between atoms: C_25  and  C_29
REMARK                            x       y       z     vdW  Elec       q    Type
REMARK                         _______ _______ _______ _____ _____    ______ ____
ROOT
ATOM      1  C   UNL     1      -3.918  -6.184  -0.383  0.00  0.00    +0.037 A 
ATOM      2  C   UNL     1      -2.703  -6.866  -0.485  0.00  0.00    +0.016 A 
ATOM      3  C   UNL     1      -2.695  -8.236  -0.607  0.00  0.00    +0.046 A 
ATOM      4  C   UNL     1      -3.893  -8.949  -0.629  0.00  0.00    +0.124 A 
ATOM      5  C   UNL     1      -5.101  -8.276  -0.524  0.00  0.00    -0.004 A 
ATOM      6  C   UNL     1      -5.116  -6.901  -0.398  0.00  0.00    +0.020 A 
ATOM      7  C   UNL     1      -6.416  -9.015  -0.532  0.00  0.00    +0.052 C 
ATOM      8  C   UNL     1      -6.213 -10.421  -1.101  0.00  0.00    +0.086 C 
ATOM      9  C   UNL     1      -4.999 -11.052  -0.405  0.00  0.00    +0.239 C 
ATOM     10  O   UNL     1      -3.837 -10.299  -0.756  0.00  0.00    -0.491 OA
ENDROOT
BRANCH   8  11
ATOM     11  C   UNL     1      -7.439 -11.257  -0.839  0.00  0.00    +0.086 A 
ATOM     12  N   UNL     1      -7.967 -11.560   0.311  0.00  0.00    -0.244 NA
ATOM     13  C   UNL     1      -9.075 -12.322   0.415  0.00  0.00    +0.079 A 
ATOM     14  C   UNL     1      -9.776 -12.744   1.565  0.00  0.00    +0.029 A 
ATOM     15  C   UNL     1     -10.886 -13.520   1.457  0.00  0.00    +0.011 A 
ATOM     16  C   UNL     1     -11.373 -13.927   0.211  0.00  0.00    -0.014 A 
ATOM     17  C   UNL     1     -10.705 -13.529  -0.945  0.00  0.00    +0.025 A 
ATOM     18  C   UNL     1      -9.584 -12.745  -0.835  0.00  0.00    +0.040 A 
ATOM     19  S   UNL     1      -8.438 -12.004  -1.968  0.00  0.00    -0.072 S 
BRANCH  16  20
ATOM     20  C   UNL     1     -12.588 -14.776   0.120  0.00  0.00    +0.019 A 
ATOM     21  C   UNL     1     -13.334 -15.229   1.168  0.00  0.00    +0.113 A 
ATOM     22  N   UNL     1     -14.346 -15.963   0.661  0.00  0.00    -0.284 N 
ATOM     23  H   UNL     1     -15.037 -16.410   1.175  0.00  0.00    +0.188 HD
ATOM     24  N   UNL     1     -14.227 -15.967  -0.734  0.00  0.00    -0.182 NA
ATOM     25  C   UNL     1     -13.182 -15.255  -1.063  0.00  0.00    +0.142 A 
ENDBRANCH  16  20
ENDBRANCH   8  11
BRANCH   1  27
ATOM     26  N   UNL     1      -2.777  -4.025  -0.239  0.00  0.00    -0.311 N 
ATOM     27  C   UNL     1      -3.935  -4.714  -0.253  0.00  0.00    +0.244 C 
ATOM     28  O   UNL     1      -4.994  -4.124  -0.160  0.00  0.00    -0.270 OA
ATOM     29  H   UNL     1      -1.932  -4.496  -0.314  0.00  0.00    +0.149 HD
BRANCH  26  30
ATOM     30  C   UNL     1      -2.794  -2.566  -0.111  0.00  0.00    +0.102 C 
BRANCH  30  31
ATOM     31  C   UNL     1      -1.358  -2.037  -0.122  0.00  0.00    +0.000 C 
BRANCH  31  32
ATOM     32  C   UNL     1      -1.376  -0.512   0.012  0.00  0.00    -0.078 C 
BRANCH  32  34
ATOM     33  C   UNL     1      -0.018   1.465   0.010  0.00  0.00    -0.097 C 
ATOM     34  N   UNL     1       0.002  -0.004   0.002  0.00  0.00    +0.376 N 
ATOM     35  C   UNL     1       0.713  -0.491   1.192  0.00  0.00    -0.097 C 
ATOM     36  H   UNL     1       0.474  -0.330  -0.828  0.00  0.00    -0.083 HD
ENDBRANCH  32  34
ENDBRANCH  31  32
ENDBRANCH  30  31
ENDBRANCH  26  30
ENDBRANCH   1  27
TORSDOF 7
