REMARK  Name = CHEMBL390389
REMARK  4 active torsions:
REMARK  status: ('A' for Active; 'I' for Inactive)
REMARK    1  A    between atoms: C_3  and  C_8
REMARK    2  A    between atoms: C_8  and  N_9
REMARK    3  A    between atoms: C_12  and  N_14
REMARK    4  A    between atoms: N_14  and  C_15
REMARK                            x       y       z     vdW  Elec       q    Type
REMARK                         _______ _______ _______ _____ _____    ______ ____
ROOT
ATOM      1  N   UNL     1       4.106   2.427   1.361  0.00  0.00    +0.384 N 
ATOM      2  C   UNL     1       3.208   3.410   2.022  0.00  0.00    -0.077 C 
ATOM      3  C   UNL     1       4.048   3.985   3.182  0.00  0.00    +0.002 C 
ATOM      4  C   UNL     1       5.516   3.769   2.760  0.00  0.00    +0.052 C 
ATOM      5  C   UNL     1       5.439   3.082   1.379  0.00  0.00    -0.056 C 
ATOM      6  H   UNL     1       4.129   1.563   1.881  0.00  0.00    -0.081 HD
ENDROOT
BRANCH   4   7
ATOM      7  N   UNL     1       6.208   5.056   2.649  0.00  0.00    -0.343 N 
ATOM      8  H   UNL     1       6.256   5.509   1.792  0.00  0.00    +0.146 HD
BRANCH   7   9
ATOM      9  C   UNL     1       6.799   5.632   3.779  0.00  0.00    +0.028 A 
ATOM     10  C   UNL     1       6.724   4.960   5.008  0.00  0.00    +0.025 A 
ATOM     11  C   UNL     1       7.279   5.470   6.134  0.00  0.00    +0.032 A 
ATOM     12  C   UNL     1       7.953   6.710   6.083  0.00  0.00    +0.093 A 
ATOM     13  C   UNL     1       8.033   7.416   4.795  0.00  0.00    +0.021 A 
ATOM     14  C   UNL     1       7.439   6.828   3.658  0.00  0.00    +0.034 A 
ATOM     15  C   UNL     1       8.736   8.583   5.032  0.00  0.00    +0.113 A 
ATOM     16  N   UNL     1       9.065   8.609   6.333  0.00  0.00    -0.284 N 
ATOM     17  N   UNL     1       8.583   7.460   6.970  0.00  0.00    -0.174 NA
ATOM     18  H   UNL     1       9.563   9.319   6.767  0.00  0.00    +0.188 HD
ENDBRANCH   7   9
ENDBRANCH   4   7
BRANCH   1  19
ATOM     19  C   UNL     1       3.672   2.184  -0.021  0.00  0.00    -0.043 C 
BRANCH  19  22
ATOM     20  C   UNL     1      -0.017   1.378   0.010  0.00  0.00    +0.002 A 
ATOM     21  C   UNL     1       1.171   2.086   0.002  0.00  0.00    +0.002 A 
ATOM     22  C   UNL     1       2.378   1.412  -0.013  0.00  0.00    -0.063 A 
ATOM     23  C   UNL     1       2.398   0.029  -0.021  0.00  0.00    +0.021 A 
ATOM     24  C   UNL     1       1.210  -0.679  -0.013  0.00  0.00    +0.041 A 
ATOM     25  C   UNL     1       0.002  -0.004   0.002  0.00  0.00    +0.020 A 
ATOM     26 CL   UNL     1       1.234  -2.415  -0.024  0.00  0.00    -0.084 Cl
ENDBRANCH  19  22
ENDBRANCH   1  19
TORSDOF 4
