REMARK  Name = CHEMBL1084892
REMARK  5 active torsions:
REMARK  status: ('A' for Active; 'I' for Inactive)
REMARK    1  A    between atoms: C_1  and  N_2
REMARK    2  A    between atoms: N_2  and  C_3
REMARK    3  A    between atoms: C_3  and  C_4
REMARK    4  A    between atoms: C_3  and  C_10
REMARK    5  A    between atoms: N_12  and  C_13
REMARK                            x       y       z     vdW  Elec       q    Type
REMARK                         _______ _______ _______ _____ _____    ______ ____
ROOT
ATOM      1  C   UNL     1       2.138  -0.063  -1.157  0.00  0.00    +0.207 C 
ATOM      2  O   UNL     1       2.647   0.238  -0.098  0.00  0.00    -0.277 OA
ATOM      3  N   UNL     1       2.864  -0.015  -2.292  0.00  0.00    -0.285 N 
ATOM      4  H   UNL     1       2.477  -0.318  -3.128  0.00  0.00    +0.155 HD
ENDROOT
BRANCH   3   5
ATOM      5  C   UNL     1       4.172   0.472  -2.263  0.00  0.00    +0.052 A 
ATOM      6  C   UNL     1       4.969   0.234  -1.156  0.00  0.00    +0.033 A 
ATOM      7  C   UNL     1       6.274   0.723  -1.136  0.00  0.00    -0.010 A 
ATOM      8  C   UNL     1       7.165   0.504   0.006  0.00  0.00    +0.026 A 
ATOM      9  C   UNL     1       8.413   0.997  -0.029  0.00  0.00    +0.086 A 
ATOM     10  N   UNL     1       8.892   1.702  -1.096  0.00  0.00    -0.329 N 
ATOM     11  H   UNL     1       9.802   2.035  -1.067  0.00  0.00    +0.168 HD
ATOM     12  C   UNL     1       8.143   1.952  -2.189  0.00  0.00    +0.257 A 
ATOM     13  O   UNL     1       8.606   2.585  -3.120  0.00  0.00    -0.267 OA
ATOM     14  C   UNL     1       6.766   1.453  -2.243  0.00  0.00    +0.048 A 
ATOM     15  C   UNL     1       5.943   1.679  -3.348  0.00  0.00    +0.035 A 
ATOM     16  C   UNL     1       4.668   1.189  -3.354  0.00  0.00    +0.063 A 
ATOM     17 CL   UNL     1       3.650   1.466  -4.733  0.00  0.00    -0.082 Cl
ENDBRANCH   3   5
BRANCH   1  18
ATOM     18  C   UNL     1       0.694  -0.491  -1.204  0.00  0.00    +0.047 C 
BRANCH  18  19
ATOM     19  C   UNL     1       0.617  -1.994  -1.272  0.00  0.00    -0.053 A 
ATOM     20  C   UNL     1       0.761  -2.747  -0.122  0.00  0.00    +0.002 A 
ATOM     21  C   UNL     1       0.691  -4.126  -0.184  0.00  0.00    +0.000 A 
ATOM     22  C   UNL     1       0.476  -4.753  -1.397  0.00  0.00    +0.000 A 
ATOM     23  C   UNL     1       0.332  -4.000  -2.548  0.00  0.00    +0.000 A 
ATOM     24  C   UNL     1       0.397  -2.621  -2.485  0.00  0.00    +0.002 A 
ENDBRANCH  18  19
BRANCH  18  26
ATOM     25  C   UNL     1      -0.026   1.449   0.010  0.00  0.00    -0.099 C 
ATOM     26  N   UNL     1       0.004  -0.020   0.004  0.00  0.00    +0.387 N 
ATOM     27  H   UNL     1       0.494  -0.349   0.822  0.00  0.00    -0.085 HD
ATOM     28  H   UNL     1      -0.941  -0.375   0.012  0.00  0.00    -0.085 HD
ENDBRANCH  18  26
ENDBRANCH   1  18
TORSDOF 4
