REMARK  Name = CHEMBL384073
REMARK  4 active torsions:
REMARK  status: ('A' for Active; 'I' for Inactive)
REMARK    1  A    between atoms: C_1  and  C_2
REMARK    2  A    between atoms: C_3  and  C_16
REMARK    3  A    between atoms: C_4  and  C_9
REMARK    4  A    between atoms: N_18  and  C_19
REMARK                            x       y       z     vdW  Elec       q    Type
REMARK                         _______ _______ _______ _____ _____    ______ ____
ROOT
ATOM      1  C   UNL     1      -0.695   0.792  -0.868  0.00  0.00    +0.061 C 
ATOM      2  C   UNL     1      -0.487  -0.534  -0.182  0.00  0.00    +0.019 C 
ATOM      3  C   UNL     1      -1.552  -1.202   0.307  0.00  0.00    +0.056 C 
ATOM      4  C   UNL     1      -1.298  -2.531   0.990  0.00  0.00    +0.142 C 
ATOM      5  N   UNL     1       0.100  -2.988   1.063  0.00  0.00    -0.288 N 
ATOM      6  C   UNL     1       1.059  -2.207   0.526  0.00  0.00    +0.304 C 
ATOM      7  O   UNL     1       2.216  -2.575   0.581  0.00  0.00    -0.252 OA
ATOM      8  N   UNL     1       0.777  -1.042  -0.071  0.00  0.00    -0.273 N 
ATOM      9  H   UNL     1       0.326  -3.830   1.488  0.00  0.00    +0.151 HD
ATOM     10  H   UNL     1       1.512  -0.528  -0.441  0.00  0.00    +0.156 HD
ENDROOT
BRANCH   4  11
ATOM     11  C   UNL     1      -1.831  -2.441   2.396  0.00  0.00    -0.022 A 
ATOM     12  C   UNL     1      -1.065  -1.860   3.389  0.00  0.00    +0.008 A 
ATOM     13  C   UNL     1      -1.553  -1.776   4.680  0.00  0.00    +0.038 A 
ATOM     14  C   UNL     1      -2.811  -2.274   4.977  0.00  0.00    +0.123 A 
ATOM     15  C   UNL     1      -3.578  -2.855   3.981  0.00  0.00    +0.038 A 
ATOM     16  C   UNL     1      -3.089  -2.933   2.691  0.00  0.00    +0.008 A 
ATOM     17  F   UNL     1      -3.289  -2.193   6.238  0.00  0.00    -0.205 F 
ENDBRANCH   4  11
BRANCH   3  18
ATOM     18  C   UNL     1      -2.863  -0.679   0.188  0.00  0.00    +0.248 C 
ATOM     19  O   UNL     1      -3.658  -1.196  -0.575  0.00  0.00    -0.270 OA
ATOM     20  N   UNL     1      -3.230   0.392   0.920  0.00  0.00    -0.282 N 
ATOM     21  H   UNL     1      -2.579   0.845   1.478  0.00  0.00    +0.155 HD
BRANCH  20  22
ATOM     22  C   UNL     1      -4.552   0.852   0.873  0.00  0.00    +0.034 A 
ATOM     23  C   UNL     1      -5.240   0.865  -0.341  0.00  0.00    +0.025 A 
ATOM     24  C   UNL     1      -6.529   1.309  -0.407  0.00  0.00    +0.029 A 
ATOM     25  C   UNL     1      -7.174   1.756   0.743  0.00  0.00    +0.066 A 
ATOM     26  C   UNL     1      -6.490   1.747   1.974  0.00  0.00    +0.021 A 
ATOM     27  C   UNL     1      -5.170   1.284   2.030  0.00  0.00    +0.035 A 
ATOM     28  C   UNL     1      -7.423   2.266   2.967  0.00  0.00    +0.142 A 
ATOM     29  N   UNL     1      -8.540   2.546   2.357  0.00  0.00    -0.181 NA
ATOM     30  N   UNL     1      -8.430   2.249   0.995  0.00  0.00    -0.277 N 
ATOM     31  H   UNL     1      -9.129   2.372   0.334  0.00  0.00    +0.189 HD
ENDBRANCH  20  22
ENDBRANCH   3  18
TORSDOF 3
