REMARK  Name = CHEMBL225167
REMARK  4 active torsions:
REMARK  status: ('A' for Active; 'I' for Inactive)
REMARK    1  A    between atoms: C_3  and  C_6
REMARK    2  A    between atoms: C_6  and  N_7
REMARK    3  A    between atoms: C_11  and  N_13
REMARK    4  A    between atoms: N_13  and  C_14
REMARK                            x       y       z     vdW  Elec       q    Type
REMARK                         _______ _______ _______ _____ _____    ______ ____
ROOT
ATOM      1  N   UNL     1       4.102   0.606   1.351  0.00  0.00    +0.386 N 
ATOM      2  C   UNL     1       3.741   1.863   2.018  0.00  0.00    -0.078 C 
ATOM      3  C   UNL     1       4.192   1.816   3.480  0.00  0.00    -0.017 C 
ATOM      4  C   UNL     1       5.710   1.625   3.534  0.00  0.00    +0.018 C 
ATOM      5  C   UNL     1       6.082   0.351   2.771  0.00  0.00    +0.054 C 
ATOM      6  C   UNL     1       5.562   0.452   1.336  0.00  0.00    -0.056 C 
ATOM      7  H   UNL     1       3.688  -0.168   1.848  0.00  0.00    -0.081 HD
ENDROOT
BRANCH   5   8
ATOM      8  N   UNL     1       7.539   0.199   2.753  0.00  0.00    -0.343 N 
ATOM      9  H   UNL     1       8.052   0.524   1.996  0.00  0.00    +0.146 HD
BRANCH   8  10
ATOM     10  C   UNL     1       8.192  -0.415   3.828  0.00  0.00    +0.028 A 
ATOM     11  C   UNL     1       7.451  -0.887   4.912  0.00  0.00    +0.025 A 
ATOM     12  C   UNL     1       8.069  -1.489   5.971  0.00  0.00    +0.029 A 
ATOM     13  C   UNL     1       9.453  -1.639   5.978  0.00  0.00    +0.066 A 
ATOM     14  C   UNL     1      10.211  -1.167   4.889  0.00  0.00    +0.021 A 
ATOM     15  C   UNL     1       9.565  -0.556   3.808  0.00  0.00    +0.034 A 
ATOM     16  C   UNL     1      11.605  -1.469   5.197  0.00  0.00    +0.142 A 
ATOM     17  N   UNL     1      11.638  -2.061   6.357  0.00  0.00    -0.181 NA
ATOM     18  N   UNL     1      10.342  -2.184   6.870  0.00  0.00    -0.277 N 
ATOM     19  H   UNL     1      10.110  -2.590   7.720  0.00  0.00    +0.189 HD
ENDBRANCH   8  10
ENDBRANCH   5   8
BRANCH   1  20
ATOM     20  C   UNL     1       3.599   0.625  -0.029  0.00  0.00    -0.003 C 
BRANCH  20  23
ATOM     21  C   UNL     1      -0.016   1.341   0.009  0.00  0.00    +0.041 A 
ATOM     22  C   UNL     1       1.331   1.769  -0.001  0.00  0.00    +0.042 A 
ATOM     23  C   UNL     1       2.092   0.660  -0.014  0.00  0.00    +0.089 A 
ATOM     24  O   UNL     1       1.282  -0.411  -0.012  0.00  0.00    -0.470 OA
ATOM     25  C   UNL     1       0.002  -0.004   0.002  0.00  0.00    +0.195 A 
ENDBRANCH  20  23
ENDBRANCH   1  20
TORSDOF 4
