REMARK  Name = CHEMBL521179
REMARK  9 active torsions:
REMARK  status: ('A' for Active; 'I' for Inactive)
REMARK    1  A    between atoms: C_1  and  N_2
REMARK    2  A    between atoms: N_2  and  C_3
REMARK    3  A    between atoms: N_2  and  C_4
REMARK    4  A    between atoms: C_4  and  C_5
REMARK    5  A    between atoms: C_5  and  O_6
REMARK    6  A    between atoms: O_6  and  C_7
REMARK    7  A    between atoms: C_9  and  C_26
REMARK    8  A    between atoms: C_12  and  N_13
REMARK    9  A    between atoms: C_14  and  C_16
REMARK                            x       y       z     vdW  Elec       q    Type
REMARK                         _______ _______ _______ _____ _____    ______ ____
ROOT
ATOM      1  C   UNL     1      -0.842  -3.869   1.432  0.00  0.00    +0.142 A 
ATOM      2  C   UNL     1      -1.214  -4.722   0.408  0.00  0.00    +0.056 A 
ATOM      3  C   UNL     1      -1.105  -6.101   0.578  0.00  0.00    -0.011 A 
ATOM      4  C   UNL     1      -0.621  -6.617   1.778  0.00  0.00    +0.010 A 
ATOM      5  C   UNL     1      -0.251  -5.764   2.798  0.00  0.00    +0.027 A 
ATOM      6  C   UNL     1      -0.354  -4.390   2.628  0.00  0.00    +0.076 A 
ENDROOT
BRANCH   3   7
ATOM      7  C   UNL     1      -1.504  -7.019  -0.519  0.00  0.00    +0.019 A 
ATOM      8  C   UNL     1      -1.454  -8.382  -0.487  0.00  0.00    +0.113 A 
ATOM      9  N   UNL     1      -1.902  -8.834  -1.676  0.00  0.00    -0.284 N 
ATOM     10  H   UNL     1      -1.979  -9.764  -1.938  0.00  0.00    +0.188 HD
ATOM     11  N   UNL     1      -2.238  -7.728  -2.466  0.00  0.00    -0.182 NA
ATOM     12  C   UNL     1      -2.007  -6.641  -1.778  0.00  0.00    +0.142 A 
ENDBRANCH   3   7
BRANCH   6  13
ATOM     13  N   UNL     1       0.029  -3.526   3.663  0.00  0.00    -0.279 N 
ATOM     14  C   UNL     1       0.906  -3.942   4.599  0.00  0.00    +0.261 C 
ATOM     15  O   UNL     1       1.440  -5.025   4.490  0.00  0.00    -0.271 OA
ATOM     16  H   UNL     1      -0.338  -2.630   3.707  0.00  0.00    +0.155 HD
BRANCH  14  17
ATOM     17  C   UNL     1       1.222  -3.061   5.780  0.00  0.00    +0.296 C 
ATOM     18  C   UNL     1       1.951  -1.798   5.302  0.00  0.00    +0.283 C 
ATOM     19  O   UNL     1       2.249  -0.992   6.448  0.00  0.00    -0.484 OA
ATOM     20  C   UNL     1       2.783  -1.632   7.523  0.00  0.00    +0.162 A 
ATOM     21  C   UNL     1       3.422  -0.892   8.507  0.00  0.00    +0.049 A 
ATOM     22  C   UNL     1       3.967  -1.527   9.607  0.00  0.00    +0.004 A 
ATOM     23  C   UNL     1       3.878  -2.901   9.729  0.00  0.00    +0.004 A 
ATOM     24  C   UNL     1       3.244  -3.644   8.752  0.00  0.00    +0.049 A 
ATOM     25  C   UNL     1       2.696  -3.014   7.645  0.00  0.00    +0.163 A 
ATOM     26  O   UNL     1       2.082  -3.760   6.687  0.00  0.00    -0.473 OA
ENDBRANCH  14  17
ENDBRANCH   6  13
BRANCH   1  27
ATOM     27  O   UNL     1      -0.948  -2.524   1.268  0.00  0.00    -0.492 OA
BRANCH  27  28
ATOM     28  C   UNL     1      -1.457  -2.060   0.016  0.00  0.00    +0.210 C 
BRANCH  28  29
ATOM     29  C   UNL     1      -1.503  -0.531   0.019  0.00  0.00    -0.038 C 
BRANCH  29  31
ATOM     30  C   UNL     1       0.600  -0.332  -1.119  0.00  0.00    -0.096 C 
ATOM     31  N   UNL     1      -0.136   0.000   0.108  0.00  0.00    +0.378 N 
ATOM     32  C   UNL     1      -0.187   1.459   0.269  0.00  0.00    -0.096 C 
ATOM     33  H   UNL     1       0.333  -0.410   0.902  0.00  0.00    -0.082 HD
ENDBRANCH  29  31
ENDBRANCH  28  29
ENDBRANCH  27  28
ENDBRANCH   1  27
TORSDOF 7
