REMARK  Name = CHEMBL483574
REMARK  7 active torsions:
REMARK  status: ('A' for Active; 'I' for Inactive)
REMARK    1  A    between atoms: C_1  and  C_2
REMARK    2  A    between atoms: C_4  and  C_16
REMARK    3  A    between atoms: C_6  and  C_8
REMARK    4  A    between atoms: C_11  and  O_14
REMARK    5  A    between atoms: O_14  and  C_15
REMARK    6  A    between atoms: C_24  and  N_26
REMARK    7  A    between atoms: N_26  and  C_27
REMARK                            x       y       z     vdW  Elec       q    Type
REMARK                         _______ _______ _______ _____ _____    ______ ____
ROOT
ATOM      1  C   UNL     1      -0.528   1.704  -0.671  0.00  0.00    +0.066 C 
ATOM      2  C   UNL     1      -0.381   0.269  -0.238  0.00  0.00    +0.051 C 
ATOM      3  C   UNL     1      -1.497  -0.574  -0.234  0.00  0.00    +0.064 C 
ATOM      4  C   UNL     1      -1.270  -2.006   0.216  0.00  0.00    +0.177 C 
ATOM      5  N   UNL     1       0.107  -2.359   0.602  0.00  0.00    -0.252 NA
ATOM      6  C   UNL     1       1.034  -1.436   0.536  0.00  0.00    +0.158 C 
ATOM      7  N   UNL     1       0.797  -0.184   0.129  0.00  0.00    -0.232 NA
ATOM      8  C   UNL     1      -2.743  -0.126  -0.619  0.00  0.00    +0.248 C 
ATOM      9  O   UNL     1      -3.821  -0.926  -0.480  0.00  0.00    -0.270 OA
ENDROOT
BRANCH   4  10
ATOM     10  C   UNL     1      -1.692  -2.921  -0.905  0.00  0.00    +0.017 A 
ATOM     11  C   UNL     1      -2.912  -3.567  -0.848  0.00  0.00    +0.010 A 
ATOM     12  C   UNL     1      -3.300  -4.406  -1.875  0.00  0.00    +0.020 A 
ATOM     13  C   UNL     1      -2.466  -4.601  -2.963  0.00  0.00    +0.044 A 
ATOM     14  C   UNL     1      -1.244  -3.955  -3.022  0.00  0.00    +0.058 A 
ATOM     15  C   UNL     1      -0.859  -3.110  -1.995  0.00  0.00    +0.130 A 
ATOM     16  F   UNL     1       0.332  -2.475  -2.053  0.00  0.00    -0.205 F 
ATOM     17 CL   UNL     1      -2.953  -5.656  -4.253  0.00  0.00    -0.083 Cl
ENDBRANCH   4  10
BRANCH   6  18
ATOM     18  C   UNL     1       2.417  -1.799   0.926  0.00  0.00    +0.037 A 
ATOM     19  C   UNL     1       3.441  -0.845   0.878  0.00  0.00    +0.018 A 
ATOM     20  C   UNL     1       4.714  -1.230   1.252  0.00  0.00    +0.068 A 
ATOM     21  C   UNL     1       4.934  -2.542   1.660  0.00  0.00    +0.214 A 
ATOM     22  N   UNL     1       3.944  -3.419   1.694  0.00  0.00    -0.221 NA
ATOM     23  C   UNL     1       2.715  -3.091   1.352  0.00  0.00    +0.126 A 
BRANCH  21  24
ATOM     24  O   UNL     1       6.181  -2.926   2.028  0.00  0.00    -0.480 OA
ATOM     25  C   UNL     1       6.346  -4.285   2.438  0.00  0.00    +0.279 C 
ENDBRANCH  21  24
ENDBRANCH   6  18
BRANCH   8  26
ATOM     26  N   UNL     1      -2.886   1.130  -1.142  0.00  0.00    -0.282 N 
ATOM     27  H   UNL     1      -2.398   1.381  -1.941  0.00  0.00    +0.155 HD
BRANCH  26  28
ATOM     28  C   UNL     1      -3.738   2.053  -0.523  0.00  0.00    +0.034 A 
ATOM     29  C   UNL     1      -4.335   1.737   0.699  0.00  0.00    +0.025 A 
ATOM     30  C   UNL     1      -5.168   2.623   1.318  0.00  0.00    +0.029 A 
ATOM     31  C   UNL     1      -5.432   3.859   0.734  0.00  0.00    +0.066 A 
ATOM     32  C   UNL     1      -4.835   4.189  -0.498  0.00  0.00    +0.021 A 
ATOM     33  C   UNL     1      -3.978   3.274  -1.121  0.00  0.00    +0.035 A 
ATOM     34  C   UNL     1      -5.305   5.529  -0.836  0.00  0.00    +0.142 A 
ATOM     35  N   UNL     1      -6.098   5.925   0.118  0.00  0.00    -0.181 NA
ATOM     36  N   UNL     1      -6.203   4.934   1.099  0.00  0.00    -0.277 N 
ATOM     37  H   UNL     1      -6.736   4.996   1.907  0.00  0.00    +0.189 HD
ENDBRANCH  26  28
ENDBRANCH   8  26
TORSDOF 5
