REMARK  Name = CHEMBL575798
REMARK  4 active torsions:
REMARK  status: ('A' for Active; 'I' for Inactive)
REMARK    1  A    between atoms: C_4  and  C_7
REMARK    2  A    between atoms: C_7  and  C_8
REMARK    3  A    between atoms: C_8  and  N_9
REMARK    4  A    between atoms: N_22  and  C_23
REMARK                            x       y       z     vdW  Elec       q    Type
REMARK                         _______ _______ _______ _____ _____    ______ ____
ROOT
ATOM      1  N   UNL     1       5.624  -1.418   1.393  0.00  0.00    -0.313 N 
ATOM      2  C   UNL     1       6.133  -1.921   2.573  0.00  0.00    +0.221 A 
ATOM      3  N   UNL     1       5.579  -1.581   3.733  0.00  0.00    -0.181 NA
ATOM      4  C   UNL     1       6.068  -2.065   4.870  0.00  0.00    +0.225 A 
ATOM      5  N   UNL     1       7.111  -2.888   4.848  0.00  0.00    -0.181 NA
ATOM      6  C   UNL     1       7.665  -3.228   3.688  0.00  0.00    +0.224 A 
ATOM      7  N   UNL     1       7.172  -2.748   2.550  0.00  0.00    -0.181 NA
ATOM      8  N   UNL     1       8.748  -4.083   3.665  0.00  0.00    -0.303 N 
ATOM      9  C   UNL     1       9.381  -4.468   2.394  0.00  0.00    +0.089 C 
ATOM     10  C   UNL     1      10.891  -4.243   2.516  0.00  0.00    -0.063 C 
ATOM     11  N   UNL     1      11.400  -4.964   3.689  0.00  0.00    +0.381 N 
ATOM     12  C   UNL     1      10.817  -4.402   4.913  0.00  0.00    -0.063 C 
ATOM     13  C   UNL     1       9.306  -4.631   4.911  0.00  0.00    +0.089 C 
ATOM     14  N   UNL     1       5.492  -1.711   6.076  0.00  0.00    -0.283 N 
ATOM     15  H   UNL     1       6.026  -1.669   0.546  0.00  0.00    +0.149 HD
ATOM     16  H   UNL     1      11.151  -5.939   3.616  0.00  0.00    -0.086 HD
ATOM     17  H   UNL     1       5.899  -1.996   6.910  0.00  0.00    +0.155 HD
ATOM     18  H   UNL     1      12.405  -4.878   3.726  0.00  0.00    -0.086 HD
ENDROOT
BRANCH  14  19
ATOM     19  C   UNL     1       4.328  -0.945   6.095  0.00  0.00    +0.036 A 
ATOM     20  C   UNL     1       3.364  -1.085   5.098  0.00  0.00    +0.043 A 
ATOM     21  C   UNL     1       2.225  -0.308   5.152  0.00  0.00    +0.112 A 
ATOM     22  N   UNL     1       2.044   0.559   6.131  0.00  0.00    -0.263 NA
ATOM     23  C   UNL     1       2.933   0.721   7.093  0.00  0.00    +0.112 A 
ATOM     24  C   UNL     1       4.095  -0.022   7.114  0.00  0.00    +0.043 A 
ENDBRANCH  14  19
BRANCH   1  25
ATOM     25  C   UNL     1       4.478  -0.506   1.418  0.00  0.00    +0.109 C 
BRANCH  25  26
ATOM     26  C   UNL     1       4.117  -0.101  -0.013  0.00  0.00    +0.054 C 
BRANCH  26  30
ATOM     27  C   UNL     1       0.775   2.559   0.058  0.00  0.00    +0.000 A 
ATOM     28  C   UNL     1       2.061   3.062   0.124  0.00  0.00    +0.000 A 
ATOM     29  C   UNL     1       3.142   2.201   0.102  0.00  0.00    +0.004 A 
ATOM     30  C   UNL     1       2.938   0.837   0.013  0.00  0.00    -0.046 A 
ATOM     31  C   UNL     1       1.652   0.334  -0.052  0.00  0.00    +0.004 A 
ATOM     32  C   UNL     1       0.571   1.194  -0.030  0.00  0.00    +0.000 A 
ENDBRANCH  26  30
ENDBRANCH  25  26
ENDBRANCH   1  25
TORSDOF 4
