REMARK  Name = CHEMBL225582
REMARK  4 active torsions:
REMARK  status: ('A' for Active; 'I' for Inactive)
REMARK    1  A    between atoms: C_4  and  C_7
REMARK    2  A    between atoms: C_7  and  N_8
REMARK    3  A    between atoms: C_12  and  O_14
REMARK    4  A    between atoms: O_14  and  C_15
REMARK                            x       y       z     vdW  Elec       q    Type
REMARK                         _______ _______ _______ _____ _____    ______ ____
ROOT
ATOM      1  N   UNL     1       4.064  -1.319   1.087  0.00  0.00    +0.385 N 
ATOM      2  C   UNL     1       4.074  -0.039   1.807  0.00  0.00    -0.078 C 
ATOM      3  C   UNL     1       4.331  -0.289   3.295  0.00  0.00    -0.015 C 
ATOM      4  C   UNL     1       5.686  -0.982   3.463  0.00  0.00    +0.041 C 
ATOM      5  C   UNL     1       5.691  -2.278   2.648  0.00  0.00    +0.157 C 
ATOM      6  C   UNL     1       5.383  -1.955   1.185  0.00  0.00    -0.033 C 
ATOM      7  H   UNL     1       3.368  -1.925   1.494  0.00  0.00    -0.081 HD
ENDROOT
BRANCH   1   8
ATOM      8  C   UNL     1       3.740  -1.081  -0.326  0.00  0.00    -0.043 C 
BRANCH   8  12
ATOM      9  C   UNL     1      -0.236   0.449  -0.639  0.00  0.00    +0.000 A 
ATOM     10  C   UNL     1       0.830   1.317  -0.497  0.00  0.00    +0.000 A 
ATOM     11  C   UNL     1       2.116   0.822  -0.395  0.00  0.00    +0.002 A 
ATOM     12  C   UNL     1       2.337  -0.542  -0.435  0.00  0.00    -0.064 A 
ATOM     13  C   UNL     1       1.271  -1.411  -0.577  0.00  0.00    +0.002 A 
ATOM     14  C   UNL     1      -0.015  -0.915  -0.680  0.00  0.00    +0.000 A 
ENDBRANCH   8  12
ENDBRANCH   1   8
BRANCH   5  15
ATOM     15  O   UNL     1       6.976  -2.895   2.741  0.00  0.00    -0.491 OA
BRANCH  15  16
ATOM     16  C   UNL     1       7.202  -3.693   3.819  0.00  0.00    +0.122 A 
ATOM     17  C   UNL     1       6.240  -3.789   4.823  0.00  0.00    +0.048 A 
ATOM     18  C   UNL     1       6.447  -4.584   5.914  0.00  0.00    +0.031 A 
ATOM     19  C   UNL     1       7.629  -5.311   6.034  0.00  0.00    +0.066 A 
ATOM     20  C   UNL     1       8.606  -5.221   5.025  0.00  0.00    +0.023 A 
ATOM     21  C   UNL     1       8.379  -4.406   3.909  0.00  0.00    +0.057 A 
ATOM     22  C   UNL     1       9.706  -6.086   5.440  0.00  0.00    +0.142 A 
ATOM     23  N   UNL     1       9.383  -6.620   6.583  0.00  0.00    -0.181 NA
ATOM     24  N   UNL     1       8.120  -6.172   6.982  0.00  0.00    -0.277 N 
ATOM     25  H   UNL     1       7.664  -6.429   7.799  0.00  0.00    +0.189 HD
ENDBRANCH  15  16
ENDBRANCH   5  15
TORSDOF 4
