REMARK  Name = CHEMBL578643
REMARK  3 active torsions:
REMARK  status: ('A' for Active; 'I' for Inactive)
REMARK    1  A    between atoms: C_8  and  N_10
REMARK    2  A    between atoms: C_13  and  N_24
REMARK    3  A    between atoms: N_17  and  C_18
REMARK                            x       y       z     vdW  Elec       q    Type
REMARK                         _______ _______ _______ _____ _____    ______ ____
ROOT
ATOM      1  N   UNL     1       5.396  -2.363   1.468  0.00  0.00    -0.325 N 
ATOM      2  C   UNL     1       6.006  -3.212   0.557  0.00  0.00    +0.126 A 
ATOM      3  C   UNL     1       6.430  -2.733  -0.679  0.00  0.00    +0.085 A 
ATOM      4  C   UNL     1       7.037  -3.622  -1.561  0.00  0.00    +0.104 A 
ATOM      5  N   UNL     1       7.191  -4.893  -1.196  0.00  0.00    -0.316 N 
ATOM      6  C   UNL     1       6.775  -5.314  -0.012  0.00  0.00    +0.200 A 
ATOM      7  N   UNL     1       6.198  -4.495   0.855  0.00  0.00    -0.201 NA
ATOM      8  N   UNL     1       6.953  -6.644   0.333  0.00  0.00    -0.285 N 
ATOM      9  H   UNL     1       5.107  -2.703   2.329  0.00  0.00    +0.148 HD
ATOM     10  H   UNL     1       7.460  -7.232  -0.249  0.00  0.00    +0.155 HD
ATOM     11  H   UNL     1       7.613  -5.519  -1.806  0.00  0.00    +0.170 HD
ENDROOT
BRANCH   1  19
ATOM     12  C   UNL     1       4.227   3.379   2.837  0.00  0.00    +0.000 A 
ATOM     13  C   UNL     1       5.588   3.534   2.651  0.00  0.00    +0.000 A 
ATOM     14  C   UNL     1       6.356   2.458   2.254  0.00  0.00    +0.004 A 
ATOM     15  C   UNL     1       5.768   1.222   2.041  0.00  0.00    -0.042 A 
ATOM     16  C   UNL     1       4.407   1.067   2.226  0.00  0.00    -0.042 A 
ATOM     17  C   UNL     1       3.638   2.148   2.625  0.00  0.00    +0.004 A 
ATOM     18  C   UNL     1       4.010  -0.364   1.932  0.00  0.00    +0.058 C 
ATOM     19  C   UNL     1       5.190  -0.953   1.129  0.00  0.00    +0.080 C 
ATOM     20  C   UNL     1       6.379  -0.094   1.609  0.00  0.00    +0.058 C 
ENDBRANCH   1  19
BRANCH   4  21
ATOM     21  N   UNL     1       7.475  -3.190  -2.804  0.00  0.00    -0.320 N 
ATOM     22  C   UNL     1       7.201  -1.821  -3.268  0.00  0.00    +0.087 C 
ATOM     23  C   UNL     1       8.516  -1.201  -3.754  0.00  0.00    -0.063 C 
ATOM     24  N   UNL     1       9.123  -2.075  -4.766  0.00  0.00    +0.381 N 
ATOM     25  C   UNL     1       9.493  -3.360  -4.160  0.00  0.00    -0.063 C 
ATOM     26  C   UNL     1       8.232  -4.085  -3.692  0.00  0.00    +0.087 C 
ATOM     27  H   UNL     1       8.462  -2.233  -5.512  0.00  0.00    -0.086 HD
ATOM     28  H   UNL     1       9.948  -1.631  -5.140  0.00  0.00    -0.086 HD
ENDBRANCH   4  21
BRANCH   8  29
ATOM     29  C   UNL     1       6.405  -7.138   1.515  0.00  0.00    +0.036 A 
ATOM     30  C   UNL     1       5.194  -6.645   2.002  0.00  0.00    +0.043 A 
ATOM     31  C   UNL     1       4.685  -7.160   3.176  0.00  0.00    +0.112 A 
ATOM     32  N   UNL     1       5.328  -8.105   3.835  0.00  0.00    -0.263 NA
ATOM     33  C   UNL     1       6.475  -8.598   3.406  0.00  0.00    +0.112 A 
ATOM     34  C   UNL     1       7.049  -8.141   2.238  0.00  0.00    +0.043 A 
ENDBRANCH   8  29
TORSDOF 3
