REMARK  Name = CHEMBL483402
REMARK  7 active torsions:
REMARK  status: ('A' for Active; 'I' for Inactive)
REMARK    1  A    between atoms: C_1  and  C_2
REMARK    2  A    between atoms: C_4  and  C_16
REMARK    3  A    between atoms: C_6  and  C_8
REMARK    4  A    between atoms: C_12  and  O_14
REMARK    5  A    between atoms: O_14  and  C_15
REMARK    6  A    between atoms: C_24  and  N_26
REMARK    7  A    between atoms: N_26  and  C_27
REMARK                            x       y       z     vdW  Elec       q    Type
REMARK                         _______ _______ _______ _____ _____    ______ ____
ROOT
ATOM      1  C   UNL     1      -0.356   1.642   0.854  0.00  0.00    +0.066 C 
ATOM      2  C   UNL     1      -0.263   0.147   0.682  0.00  0.00    +0.051 C 
ATOM      3  C   UNL     1      -1.415  -0.592   0.395  0.00  0.00    +0.064 C 
ATOM      4  C   UNL     1      -1.241  -2.092   0.236  0.00  0.00    +0.177 C 
ATOM      5  N   UNL     1       0.127  -2.612   0.402  0.00  0.00    -0.252 NA
ATOM      6  C   UNL     1       1.091  -1.768   0.671  0.00  0.00    +0.157 C 
ATOM      7  N   UNL     1       0.901  -0.452   0.798  0.00  0.00    -0.232 NA
ATOM      8  C   UNL     1      -2.648   0.012   0.262  0.00  0.00    +0.248 C 
ATOM      9  O   UNL     1      -3.756  -0.743   0.107  0.00  0.00    -0.270 OA
ENDROOT
BRANCH   4  10
ATOM     10  C   UNL     1      -2.128  -2.775   1.245  0.00  0.00    +0.017 A 
ATOM     11  C   UNL     1      -3.287  -3.406   0.831  0.00  0.00    +0.010 A 
ATOM     12  C   UNL     1      -4.101  -4.033   1.756  0.00  0.00    +0.020 A 
ATOM     13  C   UNL     1      -3.756  -4.031   3.096  0.00  0.00    +0.044 A 
ATOM     14  C   UNL     1      -2.597  -3.401   3.511  0.00  0.00    +0.058 A 
ATOM     15  C   UNL     1      -1.779  -2.777   2.584  0.00  0.00    +0.130 A 
ATOM     16  F   UNL     1      -0.644  -2.166   2.988  0.00  0.00    -0.205 F 
ATOM     17 CL   UNL     1      -4.779  -4.819   4.256  0.00  0.00    -0.083 Cl
ENDBRANCH   4  10
BRANCH   6  18
ATOM     18  C   UNL     1       2.466  -2.301   0.837  0.00  0.00    +0.025 A 
ATOM     19  C   UNL     1       2.728  -3.668   0.705  0.00  0.00    +0.031 A 
ATOM     20  C   UNL     1       4.019  -4.125   0.867  0.00  0.00    +0.115 A 
ATOM     21  N   UNL     1       5.004  -3.291   1.144  0.00  0.00    -0.221 NA
ATOM     22  C   UNL     1       4.803  -1.991   1.278  0.00  0.00    +0.215 A 
ATOM     23  C   UNL     1       3.533  -1.450   1.125  0.00  0.00    +0.078 A 
BRANCH  22  24
ATOM     24  O   UNL     1       5.849  -1.176   1.564  0.00  0.00    -0.480 OA
ATOM     25  C   UNL     1       7.131  -1.792   1.705  0.00  0.00    +0.279 C 
ENDBRANCH  22  24
ENDBRANCH   6  18
BRANCH   8  26
ATOM     26  N   UNL     1      -2.748   1.375   0.288  0.00  0.00    -0.282 N 
ATOM     27  H   UNL     1      -2.258   1.910  -0.356  0.00  0.00    +0.155 HD
BRANCH  26  28
ATOM     28  C   UNL     1      -3.558   2.000   1.244  0.00  0.00    +0.034 A 
ATOM     29  C   UNL     1      -4.157   1.240   2.250  0.00  0.00    +0.025 A 
ATOM     30  C   UNL     1      -4.951   1.830   3.191  0.00  0.00    +0.029 A 
ATOM     31  C   UNL     1      -5.172   3.204   3.156  0.00  0.00    +0.066 A 
ATOM     32  C   UNL     1      -4.572   3.981   2.146  0.00  0.00    +0.021 A 
ATOM     33  C   UNL     1      -3.756   3.365   1.190  0.00  0.00    +0.035 A 
ATOM     34  C   UNL     1      -4.993   5.358   2.382  0.00  0.00    +0.142 A 
ATOM     35  N   UNL     1      -5.763   5.365   3.433  0.00  0.00    -0.181 NA
ATOM     36  N   UNL     1      -5.898   4.067   3.937  0.00  0.00    -0.277 N 
ATOM     37  H   UNL     1      -6.422   3.817   4.714  0.00  0.00    +0.189 HD
ENDBRANCH  26  28
ENDBRANCH   8  26
TORSDOF 5
