REMARK  Name = CHEMBL521823
REMARK  6 active torsions:
REMARK  status: ('A' for Active; 'I' for Inactive)
REMARK    1  A    between atoms: C_1  and  C_2
REMARK    2  A    between atoms: C_2  and  N_3
REMARK    3  A    between atoms: C_9  and  O_10
REMARK    4  A    between atoms: O_10  and  C_11
REMARK    5  A    between atoms: C_11  and  C_12
REMARK    6  A    between atoms: C_19  and  C_20
REMARK                            x       y       z     vdW  Elec       q    Type
REMARK                         _______ _______ _______ _____ _____    ______ ____
ROOT
ATOM      1  N   UNL     1       0.688  -0.476  -1.203  0.00  0.00    -0.320 N 
ATOM      2  C   UNL     1       0.107  -0.745  -2.421  0.00  0.00    +0.114 A 
ATOM      3  C   UNL     1       1.147  -1.169  -3.271  0.00  0.00    +0.109 A 
ATOM      4  C   UNL     1       0.837  -1.512  -4.590  0.00  0.00    +0.113 A 
ATOM      5  N   UNL     1      -0.404  -1.438  -5.022  0.00  0.00    -0.362 N 
ATOM      6  C   UNL     1      -1.402  -1.043  -4.250  0.00  0.00    +0.131 A 
ATOM      7  C   UNL     1      -1.189  -0.685  -2.931  0.00  0.00    +0.162 A 
ATOM      8  N   UNL     1       2.289  -1.140  -2.546  0.00  0.00    -0.224 NA
ATOM      9  C   UNL     1       2.028  -0.728  -1.330  0.00  0.00    +0.167 A 
ATOM     10  H   UNL     1      -0.593  -1.682  -5.942  0.00  0.00    +0.165 HD
ENDROOT
BRANCH   9  11
ATOM     11  C   UNL     1       3.030  -0.563  -0.254  0.00  0.00    +0.190 A 
ATOM     12  C   UNL     1       4.471  -0.822  -0.373  0.00  0.00    +0.191 A 
ATOM     13  N   UNL     1       5.029  -0.565   0.778  0.00  0.00    -0.033 NA
ATOM     14  O   UNL     1       4.015  -0.140   1.671  0.00  0.00    -0.240 OA
ATOM     15  N   UNL     1       2.787  -0.155   0.965  0.00  0.00    -0.044 NA
ATOM     16  N   UNL     1       5.126  -1.264  -1.514  0.00  0.00    -0.339 N 
ATOM     17  H   UNL     1       4.625  -1.429  -2.328  0.00  0.00    +0.144 HD
ATOM     18  H   UNL     1       6.085  -1.408  -1.497  0.00  0.00    +0.144 HD
ENDBRANCH   9  11
BRANCH   1  20
ATOM     19  C   UNL     1      -0.019   1.526   0.010  0.00  0.00    +0.027 C 
ATOM     20  C   UNL     1       0.002  -0.004   0.002  0.00  0.00    +0.120 C 
ENDBRANCH   1  20
BRANCH   7  21
ATOM     21  O   UNL     1      -2.224  -0.280  -2.148  0.00  0.00    -0.488 OA
BRANCH  21  22
ATOM     22  C   UNL     1      -3.520  -0.248  -2.750  0.00  0.00    +0.232 C 
BRANCH  22  23
ATOM     23  C   UNL     1      -4.548   0.228  -1.722  0.00  0.00    +0.023 C 
ATOM     24  C   UNL     1      -4.662  -0.803  -0.596  0.00  0.00    -0.012 C 
ATOM     25  C   UNL     1      -5.748  -0.360   0.387  0.00  0.00    -0.082 C 
ATOM     26  N   UNL     1      -7.033  -0.256  -0.314  0.00  0.00    +0.379 N 
ATOM     27  C   UNL     1      -6.954   0.782  -1.349  0.00  0.00    -0.082 C 
ATOM     28  C   UNL     1      -5.914   0.383  -2.398  0.00  0.00    -0.012 C 
ATOM     29  H   UNL     1      -7.254  -1.141  -0.744  0.00  0.00    -0.086 HD
ATOM     30  H   UNL     1      -7.757  -0.015   0.347  0.00  0.00    -0.086 HD
ENDBRANCH  22  23
ENDBRANCH  21  22
ENDBRANCH   7  21
TORSDOF 5
