REMARK  Name = CHEMBL384073
REMARK  4 active torsions:
REMARK  status: ('A' for Active; 'I' for Inactive)
REMARK    1  A    between atoms: C_1  and  C_2
REMARK    2  A    between atoms: C_3  and  C_16
REMARK    3  A    between atoms: C_4  and  C_9
REMARK    4  A    between atoms: N_18  and  C_19
REMARK                            x       y       z     vdW  Elec       q    Type
REMARK                         _______ _______ _______ _____ _____    ______ ____
ROOT
ATOM      1  C   UNL     1       0.670   1.536  -1.469  0.00  0.00    +0.061 C 
ATOM      2  C   UNL     1       0.589   0.194  -0.789  0.00  0.00    +0.019 C 
ATOM      3  C   UNL     1      -0.558  -0.173  -0.180  0.00  0.00    +0.056 C 
ATOM      4  C   UNL     1      -0.598  -1.531   0.491  0.00  0.00    +0.142 C 
ATOM      5  N   UNL     1       0.627  -2.345   0.423  0.00  0.00    -0.288 N 
ATOM      6  C   UNL     1       1.698  -1.841  -0.222  0.00  0.00    +0.304 C 
ATOM      7  O   UNL     1       2.714  -2.505  -0.284  0.00  0.00    -0.252 OA
ATOM      8  N   UNL     1       1.676  -0.635  -0.803  0.00  0.00    -0.273 N 
ATOM      9  H   UNL     1       0.664  -3.223   0.835  0.00  0.00    +0.151 HD
ATOM     10  H   UNL     1       2.478  -0.330  -1.256  0.00  0.00    +0.156 HD
ENDROOT
BRANCH   4  11
ATOM     11  C   UNL     1      -1.718  -2.325  -0.132  0.00  0.00    -0.022 A 
ATOM     12  C   UNL     1      -1.540  -2.916  -1.369  0.00  0.00    +0.008 A 
ATOM     13  C   UNL     1      -2.565  -3.644  -1.942  0.00  0.00    +0.038 A 
ATOM     14  C   UNL     1      -3.771  -3.782  -1.276  0.00  0.00    +0.123 A 
ATOM     15  C   UNL     1      -3.948  -3.190  -0.037  0.00  0.00    +0.038 A 
ATOM     16  C   UNL     1      -2.919  -2.466   0.536  0.00  0.00    +0.008 A 
ATOM     17  F   UNL     1      -4.775  -4.493  -1.834  0.00  0.00    -0.205 F 
ENDBRANCH   4  11
BRANCH   3  18
ATOM     18  C   UNL     1      -1.688   0.682  -0.169  0.00  0.00    +0.248 C 
ATOM     19  O   UNL     1      -1.969   1.306   0.838  0.00  0.00    -0.270 OA
ATOM     20  N   UNL     1      -2.450   0.806  -1.273  0.00  0.00    -0.282 N 
ATOM     21  H   UNL     1      -2.271   0.255  -2.051  0.00  0.00    +0.155 HD
BRANCH  20  22
ATOM     22  C   UNL     1      -3.502   1.731  -1.298  0.00  0.00    +0.034 A 
ATOM     23  C   UNL     1      -4.256   1.956  -0.145  0.00  0.00    +0.025 A 
ATOM     24  C   UNL     1      -5.284   2.853  -0.148  0.00  0.00    +0.029 A 
ATOM     25  C   UNL     1      -5.594   3.557  -1.310  0.00  0.00    +0.066 A 
ATOM     26  C   UNL     1      -4.839   3.338  -2.478  0.00  0.00    +0.021 A 
ATOM     27  C   UNL     1      -3.784   2.420  -2.461  0.00  0.00    +0.035 A 
ATOM     28  C   UNL     1      -5.404   4.213  -3.501  0.00  0.00    +0.142 A 
ATOM     29  N   UNL     1      -6.391   4.870  -2.963  0.00  0.00    -0.181 NA
ATOM     30  N   UNL     1      -6.541   4.499  -1.623  0.00  0.00    -0.277 N 
ATOM     31  H   UNL     1      -7.208   4.851  -1.012  0.00  0.00    +0.189 HD
ENDBRANCH  20  22
ENDBRANCH   3  18
TORSDOF 3
