REMARK  Name = CHEMBL610785
REMARK  2 active torsions:
REMARK  status: ('A' for Active; 'I' for Inactive)
REMARK    1  A    between atoms: N_6  and  S_8
REMARK    2  A    between atoms: S_8  and  C_11
REMARK                            x       y       z     vdW  Elec       q    Type
REMARK                         _______ _______ _______ _____ _____    ______ ____
ROOT
ATOM      1  S   UNL     1       0.036  -1.212   2.470  0.00  0.00    +0.061 S 
ATOM      2  O   UNL     1      -1.117  -1.889   1.990  0.00  0.00    -0.153 OA
ATOM      3  O   UNL     1       1.103  -1.890   3.119  0.00  0.00    -0.153 OA
ENDROOT
BRANCH   1   4
ATOM      4  C   UNL     1      -0.534   0.020   3.593  0.00  0.00    +0.110 C 
ATOM      5  C   UNL     1       0.049   0.172   4.814  0.00  0.00    +0.028 C 
ATOM      6  C   UNL     1      -0.431   1.133   5.733  0.00  0.00    -0.001 C 
ATOM      7  C   UNL     1      -1.282   2.095   5.360  0.00  0.00    -0.010 C 
ATOM      8  C   UNL     1      -1.723   2.194   3.935  0.00  0.00    +0.131 C 
ATOM      9  C   UNL     1      -1.596   0.870   3.245  0.00  0.00    -0.004 C 
ATOM     10  C   UNL     1      -2.524   0.501   2.299  0.00  0.00    +0.024 C 
ATOM     11  C   UNL     1      -3.670   1.271   2.108  0.00  0.00    +0.101 C 
ATOM     12  N   UNL     1      -3.924   2.331   2.848  0.00  0.00    -0.188 NA
ATOM     13  C   UNL     1      -3.078   2.788   3.757  0.00  0.00    +0.247 C 
ATOM     14  O   UNL     1      -3.409   3.727   4.454  0.00  0.00    -0.273 OA
ENDBRANCH   1   4
BRANCH   1  20
ATOM     15  C   UNL     1      -0.228   1.407  -0.036  0.00  0.00    -0.002 C 
ATOM     16  C   UNL     1       1.123   2.106  -0.117  0.00  0.00    -0.081 C 
ATOM     17  N   UNL     1       1.498   2.350   1.252  0.00  0.00    +0.380 N 
ATOM     18  C   UNL     1       2.464   1.317   1.714  0.00  0.00    -0.065 C 
ATOM     19  C   UNL     1       2.091  -0.075   1.158  0.00  0.00    +0.090 C 
ATOM     20  N   UNL     1       0.697  -0.423   1.172  0.00  0.00    -0.178 NA
ATOM     21  C   UNL     1      -0.150  -0.058  -0.017  0.00  0.00    +0.107 C 
ATOM     22  H   UNL     1       1.924   3.262   1.325  0.00  0.00    -0.086 HD
ATOM     23  H   UNL     1       0.674   2.321   1.834  0.00  0.00    -0.086 HD
ENDBRANCH   1  20
TORSDOF 2
