REMARK  Name = CHEMBL520828
REMARK  7 active torsions:
REMARK  status: ('A' for Active; 'I' for Inactive)
REMARK    1  A    between atoms: C_1  and  C_2
REMARK    2  A    between atoms: C_4  and  C_16
REMARK    3  A    between atoms: C_6  and  C_8
REMARK    4  A    between atoms: C_11  and  O_14
REMARK    5  A    between atoms: O_14  and  C_15
REMARK    6  A    between atoms: C_24  and  N_26
REMARK    7  A    between atoms: N_26  and  C_27
REMARK                            x       y       z     vdW  Elec       q    Type
REMARK                         _______ _______ _______ _____ _____    ______ ____
ROOT
ATOM      1  C   UNL     1      -0.528   1.705  -0.671  0.00  0.00    +0.066 C 
ATOM      2  C   UNL     1      -0.381   0.269  -0.238  0.00  0.00    +0.051 C 
ATOM      3  C   UNL     1      -1.497  -0.574  -0.234  0.00  0.00    +0.064 C 
ATOM      4  C   UNL     1      -1.270  -2.006   0.215  0.00  0.00    +0.177 C 
ATOM      5  N   UNL     1       0.107  -2.359   0.601  0.00  0.00    -0.252 NA
ATOM      6  C   UNL     1       1.034  -1.436   0.535  0.00  0.00    +0.156 C 
ATOM      7  N   UNL     1       0.797  -0.184   0.129  0.00  0.00    -0.232 NA
ATOM      8  C   UNL     1      -2.743  -0.125  -0.618  0.00  0.00    +0.248 C 
ATOM      9  O   UNL     1      -3.821  -0.925  -0.479  0.00  0.00    -0.270 OA
ENDROOT
BRANCH   4  10
ATOM     10  C   UNL     1      -1.692  -2.921  -0.906  0.00  0.00    +0.017 A 
ATOM     11  C   UNL     1      -2.913  -3.566  -0.849  0.00  0.00    +0.010 A 
ATOM     12  C   UNL     1      -3.301  -4.405  -1.876  0.00  0.00    +0.020 A 
ATOM     13  C   UNL     1      -2.467  -4.599  -2.964  0.00  0.00    +0.044 A 
ATOM     14  C   UNL     1      -1.246  -3.954  -3.023  0.00  0.00    +0.058 A 
ATOM     15  C   UNL     1      -0.860  -3.109  -1.996  0.00  0.00    +0.130 A 
ATOM     16  F   UNL     1       0.331  -2.474  -2.054  0.00  0.00    -0.205 F 
ATOM     17 CL   UNL     1      -2.955  -5.654  -4.254  0.00  0.00    -0.083 Cl
ENDBRANCH   4  10
BRANCH   6  18
ATOM     18  C   UNL     1       2.417  -1.799   0.924  0.00  0.00    +0.019 A 
ATOM     19  C   UNL     1       2.707  -3.098   1.343  0.00  0.00    +0.015 A 
ATOM     20  C   UNL     1       3.994  -3.433   1.704  0.00  0.00    +0.046 A 
ATOM     21  C   UNL     1       5.002  -2.478   1.652  0.00  0.00    +0.120 A 
ATOM     22  C   UNL     1       4.716  -1.184   1.235  0.00  0.00    +0.046 A 
ATOM     23  C   UNL     1       3.432  -0.845   0.868  0.00  0.00    +0.015 A 
BRANCH  21  24
ATOM     24  O   UNL     1       6.269  -2.811   2.009  0.00  0.00    -0.495 OA
ATOM     25  C   UNL     1       7.257  -1.781   1.931  0.00  0.00    +0.277 C 
ENDBRANCH  21  24
ENDBRANCH   6  18
BRANCH   8  26
ATOM     26  N   UNL     1      -2.886   1.131  -1.141  0.00  0.00    -0.282 N 
ATOM     27  H   UNL     1      -2.398   1.382  -1.940  0.00  0.00    +0.155 HD
BRANCH  26  28
ATOM     28  C   UNL     1      -3.738   2.054  -0.521  0.00  0.00    +0.034 A 
ATOM     29  C   UNL     1      -4.334   1.737   0.700  0.00  0.00    +0.025 A 
ATOM     30  C   UNL     1      -5.167   2.623   1.320  0.00  0.00    +0.029 A 
ATOM     31  C   UNL     1      -5.432   3.859   0.736  0.00  0.00    +0.066 A 
ATOM     32  C   UNL     1      -4.835   4.189  -0.495  0.00  0.00    +0.021 A 
ATOM     33  C   UNL     1      -3.978   3.275  -1.119  0.00  0.00    +0.035 A 
ATOM     34  C   UNL     1      -5.305   5.529  -0.834  0.00  0.00    +0.142 A 
ATOM     35  N   UNL     1      -6.098   5.926   0.121  0.00  0.00    -0.181 NA
ATOM     36  N   UNL     1      -6.203   4.934   1.101  0.00  0.00    -0.277 N 
ATOM     37  H   UNL     1      -6.736   4.995   1.909  0.00  0.00    +0.189 HD
ENDBRANCH  26  28
ENDBRANCH   8  26
TORSDOF 5
