REMARK  Name = CHEMBL1084892
REMARK  5 active torsions:
REMARK  status: ('A' for Active; 'I' for Inactive)
REMARK    1  A    between atoms: C_1  and  N_2
REMARK    2  A    between atoms: N_2  and  C_3
REMARK    3  A    between atoms: C_3  and  C_4
REMARK    4  A    between atoms: C_3  and  C_10
REMARK    5  A    between atoms: N_12  and  C_13
REMARK                            x       y       z     vdW  Elec       q    Type
REMARK                         _______ _______ _______ _____ _____    ______ ____
ROOT
ATOM      1  C   UNL     1       0.600  -1.981  -1.278  0.00  0.00    +0.207 C 
ATOM      2  O   UNL     1       0.367  -2.623  -0.276  0.00  0.00    -0.277 OA
ATOM      3  N   UNL     1       0.790  -2.612  -2.453  0.00  0.00    -0.285 N 
ATOM      4  H   UNL     1       0.911  -2.097  -3.266  0.00  0.00    +0.155 HD
ENDROOT
BRANCH   3   5
ATOM      5  C   UNL     1       0.814  -4.007  -2.501  0.00  0.00    +0.052 A 
ATOM      6  C   UNL     1      -0.005  -4.737  -1.655  0.00  0.00    +0.033 A 
ATOM      7  C   UNL     1       0.025  -6.128  -1.709  0.00  0.00    -0.010 A 
ATOM      8  C   UNL     1      -0.817  -6.955  -0.841  0.00  0.00    +0.026 A 
ATOM      9  C   UNL     1      -0.748  -8.293  -0.936  0.00  0.00    +0.086 A 
ATOM     10  N   UNL     1       0.084  -8.921  -1.819  0.00  0.00    -0.329 N 
ATOM     11  H   UNL     1       0.092  -9.891  -1.844  0.00  0.00    +0.168 HD
ATOM     12  C   UNL     1       0.893  -8.242  -2.655  0.00  0.00    +0.257 A 
ATOM     13  O   UNL     1       1.621  -8.839  -3.428  0.00  0.00    -0.267 OA
ATOM     14  C   UNL     1       0.888  -6.777  -2.625  0.00  0.00    +0.048 A 
ATOM     15  C   UNL     1       1.703  -6.019  -3.466  0.00  0.00    +0.035 A 
ATOM     16  C   UNL     1       1.659  -4.655  -3.405  0.00  0.00    +0.063 A 
ATOM     17 CL   UNL     1       2.669  -3.715  -4.459  0.00  0.00    -0.082 Cl
ENDBRANCH   3   5
BRANCH   1  18
ATOM     18  C   UNL     1       0.676  -0.477  -1.209  0.00  0.00    +0.047 C 
BRANCH  18  19
ATOM     19  C   UNL     1       2.120  -0.049  -1.162  0.00  0.00    -0.053 A 
ATOM     20  C   UNL     1       2.821  -0.110   0.029  0.00  0.00    +0.002 A 
ATOM     21  C   UNL     1       4.146   0.282   0.072  0.00  0.00    +0.000 A 
ATOM     22  C   UNL     1       4.770   0.735  -1.075  0.00  0.00    +0.000 A 
ATOM     23  C   UNL     1       4.070   0.796  -2.266  0.00  0.00    +0.000 A 
ATOM     24  C   UNL     1       2.746   0.399  -2.310  0.00  0.00    +0.002 A 
ENDBRANCH  18  19
BRANCH  18  26
ATOM     25  C   UNL     1      -0.043   1.462   0.006  0.00  0.00    -0.099 C 
ATOM     26  N   UNL     1      -0.013  -0.007   0.000  0.00  0.00    +0.387 N 
ATOM     27  H   UNL     1       0.477  -0.337   0.817  0.00  0.00    -0.085 HD
ATOM     28  H   UNL     1      -0.958  -0.362   0.008  0.00  0.00    -0.085 HD
ENDBRANCH  18  26
ENDBRANCH   1  18
TORSDOF 4
