REMARK  Name = CHEMBL225492
REMARK  4 active torsions:
REMARK  status: ('A' for Active; 'I' for Inactive)
REMARK    1  A    between atoms: C_9  and  N_11
REMARK    2  A    between atoms: N_11  and  C_12
REMARK    3  A    between atoms: N_16  and  C_18
REMARK    4  A    between atoms: C_18  and  C_19
REMARK                            x       y       z     vdW  Elec       q    Type
REMARK                         _______ _______ _______ _____ _____    ______ ____
ROOT
ATOM      1  C   UNL     1      -0.057  -2.828  -0.013  0.00  0.00    +0.054 C 
ATOM      2  C   UNL     1      -0.573  -2.975  -1.448  0.00  0.00    +0.018 C 
ATOM      3  C   UNL     1      -1.852  -3.818  -1.436  0.00  0.00    -0.017 C 
ATOM      4  C   UNL     1      -1.559  -5.171  -0.784  0.00  0.00    -0.078 C 
ATOM      5  N   UNL     1      -1.095  -4.964   0.594  0.00  0.00    +0.384 N 
ATOM      6  C   UNL     1       0.169  -4.218   0.586  0.00  0.00    -0.056 C 
ATOM      7  H   UNL     1      -1.790  -4.441   1.107  0.00  0.00    -0.081 HD
ENDROOT
BRANCH   1   8
ATOM      8  N   UNL     1       1.206  -2.087  -0.021  0.00  0.00    -0.342 N 
ATOM      9  H   UNL     1       2.050  -2.567  -0.032  0.00  0.00    +0.146 HD
BRANCH   8  18
ATOM     10  C   UNL     1      -0.017   1.387   0.010  0.00  0.00    +0.002 A 
ATOM     11  C   UNL     1       1.139   2.109   0.003  0.00  0.00    +0.010 A 
ATOM     12  C   UNL     1       2.376   1.445  -0.013  0.00  0.00    +0.002 A 
ATOM     13  C   UNL     1       3.595   2.143  -0.020  0.00  0.00    +0.119 A 
ATOM     14  N   UNL     1       4.728   1.481  -0.034  0.00  0.00    -0.263 NA
ATOM     15  C   UNL     1       4.784   0.157  -0.042  0.00  0.00    +0.111 A 
ATOM     16  C   UNL     1       3.659  -0.611  -0.036  0.00  0.00    +0.030 A 
ATOM     17  C   UNL     1       2.407   0.027  -0.021  0.00  0.00    +0.006 A 
ATOM     18  C   UNL     1       1.197  -0.694  -0.013  0.00  0.00    +0.035 A 
ATOM     19  C   UNL     1       0.002  -0.004   0.002  0.00  0.00    +0.023 A 
ENDBRANCH   8  18
ENDBRANCH   1   8
BRANCH   5  20
ATOM     20  C   UNL     1      -0.890  -6.266   1.240  0.00  0.00    -0.043 C 
BRANCH  20  21
ATOM     21  C   UNL     1      -2.212  -6.978   1.367  0.00  0.00    -0.064 A 
ATOM     22  C   UNL     1      -2.990  -6.795   2.495  0.00  0.00    +0.003 A 
ATOM     23  C   UNL     1      -4.203  -7.447   2.612  0.00  0.00    +0.020 A 
ATOM     24  C   UNL     1      -4.638  -8.284   1.600  0.00  0.00    +0.041 A 
ATOM     25  C   UNL     1      -3.859  -8.468   0.471  0.00  0.00    +0.020 A 
ATOM     26  C   UNL     1      -2.649  -7.810   0.353  0.00  0.00    +0.003 A 
ATOM     27 CL   UNL     1      -6.161  -9.105   1.746  0.00  0.00    -0.084 Cl
ENDBRANCH  20  21
ENDBRANCH   5  20
TORSDOF 4
