REMARK  Name = CHEMBL567603
REMARK  2 active torsions:
REMARK  status: ('A' for Active; 'I' for Inactive)
REMARK    1  A    between atoms: C_9  and  N_10
REMARK    2  A    between atoms: N_23  and  C_24
REMARK                            x       y       z     vdW  Elec       q    Type
REMARK                         _______ _______ _______ _____ _____    ______ ____
ROOT
ATOM      1  N   UNL     1       4.365  -0.167  -1.117  0.00  0.00    -0.306 N 
ATOM      2  C   UNL     1       5.447   0.561  -0.664  0.00  0.00    +0.222 A 
ATOM      3  N   UNL     1       5.461   1.026   0.581  0.00  0.00    -0.181 NA
ATOM      4  C   UNL     1       6.503   1.727   1.017  0.00  0.00    +0.225 A 
ATOM      5  N   UNL     1       7.531   1.962   0.207  0.00  0.00    -0.181 NA
ATOM      6  C   UNL     1       7.517   1.497  -1.038  0.00  0.00    +0.224 A 
ATOM      7  N   UNL     1       6.477   0.792  -1.472  0.00  0.00    -0.181 NA
ATOM      8  N   UNL     1       8.584   1.741  -1.878  0.00  0.00    -0.303 N 
ATOM      9  C   UNL     1       8.588   1.242  -3.262  0.00  0.00    +0.089 C 
ATOM     10  C   UNL     1       8.934   2.405  -4.197  0.00  0.00    -0.063 C 
ATOM     11  N   UNL     1      10.200   3.014  -3.770  0.00  0.00    +0.381 N 
ATOM     12  C   UNL     1      10.043   3.612  -2.438  0.00  0.00    -0.063 C 
ATOM     13  C   UNL     1       9.748   2.514  -1.417  0.00  0.00    +0.089 C 
ATOM     14  N   UNL     1       6.518   2.211   2.311  0.00  0.00    -0.283 N 
ATOM     15  H   UNL     1       4.356  -0.510  -2.024  0.00  0.00    +0.150 HD
ATOM     16  H   UNL     1      10.919   2.307  -3.737  0.00  0.00    -0.086 HD
ATOM     17  H   UNL     1       7.238   2.791   2.604  0.00  0.00    +0.155 HD
ATOM     18  H   UNL     1      10.466   3.730  -4.429  0.00  0.00    -0.086 HD
ENDROOT
BRANCH   1  27
ATOM     19  C   UNL     1       0.103   2.474  -0.422  0.00  0.00    +0.000 A 
ATOM     20  C   UNL     1       1.392   2.967  -0.350  0.00  0.00    +0.000 A 
ATOM     21  C   UNL     1       2.461   2.095  -0.284  0.00  0.00    +0.006 A 
ATOM     22  C   UNL     1       2.245   0.727  -0.289  0.00  0.00    -0.024 A 
ATOM     23  C   UNL     1       0.956   0.234  -0.360  0.00  0.00    -0.042 A 
ATOM     24  C   UNL     1      -0.114   1.110  -0.427  0.00  0.00    +0.004 A 
ATOM     25  C   UNL     1       0.986  -1.279  -0.351  0.00  0.00    +0.037 C 
ATOM     26  C   UNL     1       2.439  -1.657  -0.707  0.00  0.00    +0.032 C 
ATOM     27  C   UNL     1       3.229  -0.421  -0.227  0.00  0.00    +0.104 C 
ENDBRANCH   1  27
BRANCH  14  28
ATOM     28  C   UNL     1       5.498   1.865   3.196  0.00  0.00    +0.036 A 
ATOM     29  C   UNL     1       4.908   0.603   3.149  0.00  0.00    +0.043 A 
ATOM     30  C   UNL     1       3.901   0.300   4.043  0.00  0.00    +0.112 A 
ATOM     31  N   UNL     1       3.497   1.187   4.932  0.00  0.00    -0.263 NA
ATOM     32  C   UNL     1       4.030   2.392   5.008  0.00  0.00    +0.112 A 
ATOM     33  C   UNL     1       5.045   2.771   4.155  0.00  0.00    +0.043 A 
ENDBRANCH  14  28
TORSDOF 2
