REMARK  Name = CHEMBL1080071
REMARK  3 active torsions:
REMARK  status: ('A' for Active; 'I' for Inactive)
REMARK    1  A    between atoms: C_6  and  N_7
REMARK    2  A    between atoms: C_9  and  C_15
REMARK    3  A    between atoms: N_10  and  C_11
REMARK                            x       y       z     vdW  Elec       q    Type
REMARK                         _______ _______ _______ _____ _____    ______ ____
ROOT
ATOM      1  C   UNL     1       0.000   1.470  -0.055  0.00  0.00    +0.025 A 
ATOM      2  C   UNL     1       1.196   2.155  -0.034  0.00  0.00    +0.030 A 
ATOM      3  C   UNL     1       2.395   1.456  -0.028  0.00  0.00    +0.069 A 
ATOM      4  C   UNL     1       2.390   0.049  -0.043  0.00  0.00    +0.091 A 
ATOM      5  C   UNL     1       1.170  -0.635  -0.063  0.00  0.00    +0.052 A 
ATOM      6  C   UNL     1      -0.015   0.077  -0.069  0.00  0.00    +0.027 A 
ATOM      7  N   UNL     1       3.682  -0.356  -0.033  0.00  0.00    -0.226 NA
ATOM      8  C   UNL     1       4.472   0.690  -0.014  0.00  0.00    +0.167 A 
ATOM      9  N   UNL     1       3.724   1.836  -0.010  0.00  0.00    -0.319 N 
ENDROOT
BRANCH   8  10
ATOM     10  C   UNL     1       5.950   0.639   0.002  0.00  0.00    +0.190 A 
ATOM     11  C   UNL     1       6.769  -0.575   0.111  0.00  0.00    +0.191 A 
ATOM     12  N   UNL     1       8.025  -0.226   0.090  0.00  0.00    -0.033 NA
ATOM     13  O   UNL     1       8.084   1.184  -0.029  0.00  0.00    -0.240 OA
ATOM     14  N   UNL     1       6.754   1.667  -0.085  0.00  0.00    -0.044 NA
ATOM     15  N   UNL     1       6.287  -1.873   0.218  0.00  0.00    -0.339 N 
ATOM     16  H   UNL     1       5.331  -2.037   0.226  0.00  0.00    +0.144 HD
ATOM     17  H   UNL     1       6.907  -2.617   0.286  0.00  0.00    +0.144 HD
ENDBRANCH   8  10
BRANCH   9  18
ATOM     18  C   UNL     1       4.236   3.208   0.010  0.00  0.00    +0.089 C 
ATOM     19  C   UNL     1       3.487   4.131   0.986  0.00  0.00    +0.025 C 
ATOM     20  C   UNL     1       3.592   5.224  -0.090  0.00  0.00    +0.004 C 
ATOM     21  C   UNL     1       3.683   4.089  -1.123  0.00  0.00    +0.025 C 
ENDBRANCH   9  18
BRANCH   6  22
ATOM     22  N   UNL     1      -1.236  -0.606  -0.090  0.00  0.00    -0.358 N 
ATOM     23  H   UNL     1      -2.069  -0.109  -0.093  0.00  0.00    +0.142 HD
ATOM     24  H   UNL     1      -1.249  -1.576  -0.100  0.00  0.00    +0.142 HD
ENDBRANCH   6  22
TORSDOF 3
