REMARK  Name = CHEMBL1079295
REMARK  2 active torsions:
REMARK  status: ('A' for Active; 'I' for Inactive)
REMARK    1  A    between atoms: C_8  and  C_15
REMARK    2  A    between atoms: N_9  and  C_10
REMARK                            x       y       z     vdW  Elec       q    Type
REMARK                         _______ _______ _______ _____ _____    ______ ____
ROOT
ATOM      1  C   UNL     1      -0.036   1.315   0.346  0.00  0.00    +0.002 A 
ATOM      2  C   UNL     1       1.141   2.048   0.405  0.00  0.00    +0.002 A 
ATOM      3  C   UNL     1       2.363   1.419   0.291  0.00  0.00    +0.028 A 
ATOM      4  C   UNL     1       2.415   0.042   0.116  0.00  0.00    +0.069 A 
ATOM      5  C   UNL     1       1.221  -0.700   0.056  0.00  0.00    +0.090 A 
ATOM      6  C   UNL     1      -0.006  -0.040   0.174  0.00  0.00    +0.030 A 
ATOM      7  N   UNL     1       1.567  -1.998  -0.118  0.00  0.00    -0.226 NA
ATOM      8  C   UNL     1       2.872  -2.104  -0.168  0.00  0.00    +0.167 A 
ATOM      9  N   UNL     1       3.442  -0.868  -0.028  0.00  0.00    -0.319 N 
ENDROOT
BRANCH   8  10
ATOM     10  C   UNL     1       3.616  -3.369  -0.349  0.00  0.00    +0.190 A 
ATOM     11  C   UNL     1       3.030  -4.715  -0.389  0.00  0.00    +0.191 A 
ATOM     12  N   UNL     1       3.994  -5.577  -0.562  0.00  0.00    -0.033 NA
ATOM     13  O   UNL     1       5.213  -4.859  -0.640  0.00  0.00    -0.240 OA
ATOM     14  N   UNL     1       4.910  -3.482  -0.505  0.00  0.00    -0.044 NA
ATOM     15  N   UNL     1       1.681  -5.018  -0.264  0.00  0.00    -0.339 N 
ATOM     16  H   UNL     1       1.034  -4.307  -0.137  0.00  0.00    +0.144 HD
ATOM     17  H   UNL     1       1.385  -5.941  -0.303  0.00  0.00    +0.144 HD
ENDBRANCH   8  10
BRANCH   9  18
ATOM     18  C   UNL     1       4.876  -0.567  -0.031  0.00  0.00    +0.089 C 
ATOM     19  C   UNL     1       5.260   0.187   1.259  0.00  0.00    +0.025 C 
ATOM     20  C   UNL     1       6.327   1.211   0.798  0.00  0.00    +0.002 C 
ATOM     21  C   UNL     1       5.795   1.659  -0.586  0.00  0.00    +0.002 C 
ATOM     22  C   UNL     1       5.216   0.369  -1.204  0.00  0.00    +0.025 C 
ENDBRANCH   9  18
TORSDOF 2
