REMARK  Name = CHEMBL224696
REMARK  4 active torsions:
REMARK  status: ('A' for Active; 'I' for Inactive)
REMARK    1  A    between atoms: C_5  and  C_7
REMARK    2  A    between atoms: C_7  and  N_8
REMARK    3  A    between atoms: C_12  and  N_14
REMARK    4  A    between atoms: N_14  and  C_15
REMARK                            x       y       z     vdW  Elec       q    Type
REMARK                         _______ _______ _______ _____ _____    ______ ____
ROOT
ATOM      1  N   UNL     1       1.368  -2.646  -1.407  0.00  0.00    +0.385 N 
ATOM      2  C   UNL     1       0.164  -2.271  -2.157  0.00  0.00    -0.078 C 
ATOM      3  C   UNL     1       0.315  -2.696  -3.619  0.00  0.00    -0.017 C 
ATOM      4  C   UNL     1       0.508  -4.213  -3.687  0.00  0.00    +0.018 C 
ATOM      5  C   UNL     1       1.724  -4.602  -2.840  0.00  0.00    +0.054 C 
ATOM      6  C   UNL     1       1.520  -4.106  -1.407  0.00  0.00    -0.056 C 
ATOM      7  H   UNL     1       2.176  -2.225  -1.840  0.00  0.00    -0.081 HD
ENDROOT
BRANCH   5   8
ATOM      8  N   UNL     1       2.929  -3.987  -3.403  0.00  0.00    -0.343 N 
ATOM      9  H   UNL     1       3.248  -3.140  -3.056  0.00  0.00    +0.146 HD
BRANCH   8  10
ATOM     10  C   UNL     1       3.618  -4.622  -4.442  0.00  0.00    +0.028 A 
ATOM     11  C   UNL     1       3.151  -5.839  -4.943  0.00  0.00    +0.025 A 
ATOM     12  C   UNL     1       3.809  -6.475  -5.956  0.00  0.00    +0.029 A 
ATOM     13  C   UNL     1       4.960  -5.912  -6.503  0.00  0.00    +0.066 A 
ATOM     14  C   UNL     1       5.439  -4.686  -6.006  0.00  0.00    +0.021 A 
ATOM     15  C   UNL     1       4.753  -4.040  -4.971  0.00  0.00    +0.034 A 
ATOM     16  C   UNL     1       6.639  -4.371  -6.774  0.00  0.00    +0.142 A 
ATOM     17  N   UNL     1       6.826  -5.333  -7.633  0.00  0.00    -0.181 NA
ATOM     18  N   UNL     1       5.821  -6.297  -7.500  0.00  0.00    -0.277 N 
ATOM     19  H   UNL     1       5.745  -7.107  -8.028  0.00  0.00    +0.189 HD
ENDBRANCH   8  10
ENDBRANCH   5   8
BRANCH   1  20
ATOM     20  C   UNL     1       1.250  -2.168  -0.023  0.00  0.00    -0.022 C 
BRANCH  20  25
ATOM     21  C   UNL     1      -0.017   1.382   0.010  0.00  0.00    +0.003 A 
ATOM     22  C   UNL     1       1.194   2.059   0.002  0.00  0.00    +0.020 A 
ATOM     23  C   UNL     1       2.370   1.334  -0.013  0.00  0.00    +0.111 A 
ATOM     24  N   UNL     1       2.350   0.015  -0.021  0.00  0.00    -0.262 NA
ATOM     25  C   UNL     1       1.218  -0.661  -0.014  0.00  0.00    +0.025 A 
ATOM     26  C   UNL     1       0.002  -0.004   0.002  0.00  0.00    +0.021 A 
ENDBRANCH  20  25
ENDBRANCH   1  20
TORSDOF 4
