REMARK  Name = CHEMBL570126
REMARK  5 active torsions:
REMARK  status: ('A' for Active; 'I' for Inactive)
REMARK    1  A    between atoms: C_1  and  C_2
REMARK    2  A    between atoms: C_8  and  N_12
REMARK    3  A    between atoms: C_16  and  C_19
REMARK    4  A    between atoms: N_21  and  C_22
REMARK    5  A    between atoms: N_24  and  C_25
REMARK                            x       y       z     vdW  Elec       q    Type
REMARK                         _______ _______ _______ _____ _____    ______ ____
ROOT
ATOM      1  N   UNL     1       0.059   0.589   3.088  0.00  0.00    -0.311 N 
ATOM      2  C   UNL     1      -0.540   1.761   2.435  0.00  0.00    +0.125 C 
ATOM      3  C   UNL     1       0.531   2.850   2.304  0.00  0.00    +0.127 C 
ATOM      4  N   UNL     1       1.186   3.023   3.609  0.00  0.00    -0.297 N 
ATOM      5  C   UNL     1       1.786   1.851   4.261  0.00  0.00    +0.090 C 
ATOM      6  C   UNL     1       0.709   0.760   4.394  0.00  0.00    +0.128 C 
ATOM      7  C   UNL     1       2.297   2.241   5.649  0.00  0.00    +0.029 C 
ATOM      8  C   UNL     1       1.238   4.252   4.203  0.00  0.00    +0.199 C 
ATOM      9  N   UNL     1       0.239   4.659   4.968  0.00  0.00    -0.142 NA
ATOM     10  N   UNL     1       2.322   5.062   4.007  0.00  0.00    -0.286 N 
ATOM     11  H   UNL     1       2.305   5.981   4.319  0.00  0.00    +0.155 HD
ENDROOT
BRANCH   1  19
ATOM     12  C   UNL     1      -2.857  -0.219   4.191  0.00  0.00    +0.046 C 
ATOM     13  C   UNL     1      -2.386  -1.383   3.357  0.00  0.00    -0.021 A 
ATOM     14  C   UNL     1      -3.056  -2.522   3.121  0.00  0.00    +0.088 A 
ATOM     15  N   UNL     1      -2.307  -3.344   2.319  0.00  0.00    -0.345 N 
ATOM     16  H   UNL     1      -2.581  -4.223   2.013  0.00  0.00    +0.167 HD
ATOM     17  C   UNL     1      -1.116  -2.744   2.015  0.00  0.00    +0.143 A 
ATOM     18  C   UNL     1      -1.113  -1.486   2.646  0.00  0.00    +0.061 A 
ATOM     19  C   UNL     1       0.007  -0.656   2.486  0.00  0.00    +0.134 A 
ATOM     20  N   UNL     1       1.016  -1.095   1.740  0.00  0.00    -0.220 NA
ATOM     21  C   UNL     1       0.971  -2.282   1.163  0.00  0.00    +0.225 A 
ATOM     22  N   UNL     1      -0.054  -3.096   1.292  0.00  0.00    -0.218 NA
ENDBRANCH   1  19
BRANCH  10  23
ATOM     23  C   UNL     1       3.457   4.566   3.357  0.00  0.00    +0.034 A 
ATOM     24  C   UNL     1       3.384   3.380   2.639  0.00  0.00    +0.023 A 
ATOM     25  C   UNL     1       4.506   2.892   1.997  0.00  0.00    +0.003 A 
ATOM     26  C   UNL     1       5.701   3.584   2.069  0.00  0.00    +0.015 A 
ATOM     27  C   UNL     1       5.777   4.766   2.784  0.00  0.00    +0.020 A 
ATOM     28  C   UNL     1       4.657   5.262   3.423  0.00  0.00    +0.038 A 
ATOM     29 BR   UNL     1       7.415   5.707   2.881  0.00  0.00    -0.050 Br
ENDBRANCH  10  23
BRANCH   9  30
ATOM     30  C   UNL     1       0.229   5.924   5.452  0.00  0.00    +0.208 C 
ATOM     31  N   UNL     1       0.220   6.985   5.859  0.00  0.00    -0.169 NA
ENDBRANCH   9  30
TORSDOF 3
