REMARK  Name = CHEMBL415061
REMARK  4 active torsions:
REMARK  status: ('A' for Active; 'I' for Inactive)
REMARK    1  A    between atoms: C_4  and  C_7
REMARK    2  A    between atoms: C_7  and  N_8
REMARK    3  A    between atoms: C_12  and  C_14
REMARK    4  A    between atoms: N_16  and  C_17
REMARK                            x       y       z     vdW  Elec       q    Type
REMARK                         _______ _______ _______ _____ _____    ______ ____
ROOT
ATOM      1  N   UNL     1       4.160  -0.946   1.345  0.00  0.00    +0.383 N 
ATOM      2  C   UNL     1       4.443   0.334   2.006  0.00  0.00    -0.078 C 
ATOM      3  C   UNL     1       4.827   0.084   3.466  0.00  0.00    -0.018 C 
ATOM      4  C   UNL     1       6.074  -0.804   3.515  0.00  0.00    +0.009 C 
ATOM      5  C   UNL     1       5.793  -2.105   2.758  0.00  0.00    +0.059 C 
ATOM      6  C   UNL     1       5.372  -1.774   1.325  0.00  0.00    -0.066 C 
ATOM      7  H   UNL     1       3.432  -1.429   1.849  0.00  0.00    -0.081 HD
ENDROOT
BRANCH   5   8
ATOM      8  C   UNL     1       4.683  -2.858   3.447  0.00  0.00    +0.219 C 
ATOM      9  O   UNL     1       3.658  -3.109   2.849  0.00  0.00    -0.275 OA
ATOM     10  N   UNL     1       4.830  -3.252   4.727  0.00  0.00    -0.285 N 
ATOM     11  H   UNL     1       5.674  -3.111   5.184  0.00  0.00    +0.155 HD
BRANCH  10  12
ATOM     12  C   UNL     1       3.764  -3.866   5.398  0.00  0.00    +0.034 A 
ATOM     13  C   UNL     1       2.901  -4.713   4.702  0.00  0.00    +0.025 A 
ATOM     14  C   UNL     1       1.857  -5.321   5.337  0.00  0.00    +0.029 A 
ATOM     15  C   UNL     1       1.641  -5.100   6.695  0.00  0.00    +0.066 A 
ATOM     16  C   UNL     1       2.505  -4.246   7.407  0.00  0.00    +0.021 A 
ATOM     17  C   UNL     1       3.575  -3.633   6.745  0.00  0.00    +0.035 A 
ATOM     18  C   UNL     1       2.018  -4.223   8.783  0.00  0.00    +0.142 A 
ATOM     19  N   UNL     1       0.971  -4.995   8.847  0.00  0.00    -0.181 NA
ATOM     20  N   UNL     1       0.706  -5.551   7.591  0.00  0.00    -0.277 N 
ATOM     21  H   UNL     1      -0.023  -6.158   7.387  0.00  0.00    +0.189 HD
ENDBRANCH  10  12
ENDBRANCH   5   8
BRANCH   1  22
ATOM     22  C   UNL     1       3.716  -0.696  -0.033  0.00  0.00    -0.043 C 
BRANCH  22  26
ATOM     23  C   UNL     1       0.004   1.416   0.026  0.00  0.00    +0.000 A 
ATOM     24  C   UNL     1       1.197   2.115   0.016  0.00  0.00    +0.000 A 
ATOM     25  C   UNL     1       2.398   1.432  -0.003  0.00  0.00    +0.002 A 
ATOM     26  C   UNL     1       2.407   0.049  -0.011  0.00  0.00    -0.064 A 
ATOM     27  C   UNL     1       1.214  -0.649   0.000  0.00  0.00    +0.002 A 
ATOM     28  C   UNL     1       0.013   0.034   0.018  0.00  0.00    +0.000 A 
ENDBRANCH  22  26
ENDBRANCH   1  22
TORSDOF 4
