REMARK  Name = CHEMBL225168
REMARK  4 active torsions:
REMARK  status: ('A' for Active; 'I' for Inactive)
REMARK    1  A    between atoms: C_6  and  N_7
REMARK    2  A    between atoms: N_7  and  C_8
REMARK    3  A    between atoms: N_12  and  C_14
REMARK    4  A    between atoms: C_14  and  C_15
REMARK                            x       y       z     vdW  Elec       q    Type
REMARK                         _______ _______ _______ _____ _____    ______ ____
ROOT
ATOM      1  C   UNL     1      -2.479   0.002   0.026  0.00  0.00    +0.054 C 
ATOM      2  C   UNL     1      -2.879   0.365  -1.407  0.00  0.00    +0.018 C 
ATOM      3  C   UNL     1      -4.251   1.046  -1.386  0.00  0.00    -0.017 C 
ATOM      4  C   UNL     1      -5.266   0.116  -0.719  0.00  0.00    -0.078 C 
ATOM      5  N   UNL     1      -4.840  -0.173   0.656  0.00  0.00    +0.384 N 
ATOM      6  C   UNL     1      -3.559  -0.890   0.641  0.00  0.00    -0.056 C 
ATOM      7  H   UNL     1      -4.734   0.693   1.163  0.00  0.00    -0.081 HD
ENDROOT
BRANCH   1   8
ATOM      8  N   UNL     1      -1.202  -0.717   0.010  0.00  0.00    -0.343 N 
ATOM      9  H   UNL     1      -1.192  -1.687   0.004  0.00  0.00    +0.146 HD
BRANCH   8  15
ATOM     10  C   UNL     1      -0.017   1.391   0.010  0.00  0.00    +0.025 A 
ATOM     11  C   UNL     1       1.147   2.105   0.002  0.00  0.00    +0.029 A 
ATOM     12  C   UNL     1       2.372   1.443  -0.013  0.00  0.00    +0.066 A 
ATOM     13  C   UNL     1       2.403   0.035  -0.021  0.00  0.00    +0.021 A 
ATOM     14  C   UNL     1       1.203  -0.685  -0.013  0.00  0.00    +0.034 A 
ATOM     15  C   UNL     1       0.002  -0.004   0.002  0.00  0.00    +0.028 A 
ATOM     16  C   UNL     1       3.812  -0.344  -0.037  0.00  0.00    +0.142 A 
ATOM     17  N   UNL     1       4.519   0.749  -0.038  0.00  0.00    -0.181 NA
ATOM     18  N   UNL     1       3.678   1.866  -0.024  0.00  0.00    -0.277 N 
ATOM     19  H   UNL     1       3.970   2.791  -0.022  0.00  0.00    +0.189 HD
ENDBRANCH   8  15
ENDBRANCH   1   8
BRANCH   5  20
ATOM     20  C   UNL     1      -5.856  -1.002   1.318  0.00  0.00    -0.040 C 
BRANCH  20  21
ATOM     21  C   UNL     1      -7.136  -0.217   1.452  0.00  0.00    -0.026 A 
ATOM     22  C   UNL     1      -7.506   0.612   2.536  0.00  0.00    +0.043 A 
ATOM     23  C   UNL     1      -8.718   1.116   2.244  0.00  0.00    +0.195 A 
ATOM     24  O   UNL     1      -9.101   0.638   1.049  0.00  0.00    -0.471 OA
ATOM     25  C   UNL     1      -8.143  -0.167   0.561  0.00  0.00    +0.196 A 
ENDBRANCH  20  21
ENDBRANCH   5  20
TORSDOF 4
