REMARK  Name = CHEMBL1084106
REMARK  5 active torsions:
REMARK  status: ('A' for Active; 'I' for Inactive)
REMARK    1  A    between atoms: C_4  and  C_7
REMARK    2  A    between atoms: C_7  and  C_8
REMARK    3  A    between atoms: C_7  and  N_24
REMARK    4  A    between atoms: N_10  and  C_11
REMARK    5  A    between atoms: N_24  and  C_25
REMARK                            x       y       z     vdW  Elec       q    Type
REMARK                         _______ _______ _______ _____ _____    ______ ____
ROOT
ATOM      1  C   UNL     1       4.047  -1.176   1.355  0.00  0.00    +0.207 C 
ATOM      2  O   UNL     1       3.831  -2.325   1.677  0.00  0.00    -0.277 OA
ATOM      3  N   UNL     1       4.575  -0.314   2.247  0.00  0.00    -0.285 N 
ATOM      4  H   UNL     1       4.809   0.586   1.971  0.00  0.00    +0.155 HD
ENDROOT
BRANCH   3   5
ATOM      5  C   UNL     1       4.787  -0.717   3.566  0.00  0.00    +0.052 A 
ATOM      6  C   UNL     1       5.161  -2.023   3.834  0.00  0.00    +0.033 A 
ATOM      7  C   UNL     1       5.370  -2.418   5.154  0.00  0.00    -0.010 A 
ATOM      8  C   UNL     1       5.767  -3.784   5.500  0.00  0.00    +0.026 A 
ATOM      9  C   UNL     1       5.955  -4.109   6.789  0.00  0.00    +0.086 A 
ATOM     10  N   UNL     1       5.790  -3.207   7.802  0.00  0.00    -0.329 N 
ATOM     11  H   UNL     1       5.941  -3.497   8.716  0.00  0.00    +0.168 HD
ATOM     12  C   UNL     1       5.427  -1.929   7.577  0.00  0.00    +0.257 A 
ATOM     13  O   UNL     1       5.290  -1.155   8.508  0.00  0.00    -0.267 OA
ATOM     14  C   UNL     1       5.198  -1.481   6.201  0.00  0.00    +0.048 A 
ATOM     15  C   UNL     1       4.821  -0.170   5.905  0.00  0.00    +0.035 A 
ATOM     16  C   UNL     1       4.625   0.202   4.606  0.00  0.00    +0.063 A 
ATOM     17 CL   UNL     1       4.162   1.835   4.242  0.00  0.00    -0.082 Cl
ENDBRANCH   3   5
BRANCH   1  18
ATOM     18  C   UNL     1       3.724  -0.711  -0.042  0.00  0.00    +0.047 C 
BRANCH  18  22
ATOM     19  C   UNL     1       0.001   1.384  -0.022  0.00  0.00    +0.000 A 
ATOM     20  C   UNL     1       1.190   2.088  -0.024  0.00  0.00    +0.000 A 
ATOM     21  C   UNL     1       2.395   1.410  -0.030  0.00  0.00    +0.002 A 
ATOM     22  C   UNL     1       2.410   0.028  -0.034  0.00  0.00    -0.053 A 
ATOM     23  C   UNL     1       1.221  -0.676  -0.030  0.00  0.00    +0.002 A 
ATOM     24  C   UNL     1       0.016   0.002  -0.026  0.00  0.00    +0.000 A 
ENDBRANCH  18  22
BRANCH  18  25
ATOM     25  N   UNL     1       3.626  -1.874  -0.934  0.00  0.00    +0.391 N 
ATOM     26  H   UNL     1       4.476  -2.414  -0.876  0.00  0.00    -0.084 HD
ATOM     27  H   UNL     1       2.844  -2.447  -0.656  0.00  0.00    -0.084 HD
BRANCH  25  28
ATOM     28  C   UNL     1       3.430  -1.415  -2.316  0.00  0.00    -0.070 C 
ATOM     29  C   UNL     1       4.526  -1.744  -3.331  0.00  0.00    -0.017 C 
ATOM     30  C   UNL     1       3.187  -2.481  -3.386  0.00  0.00    -0.017 C 
ENDBRANCH  25  28
ENDBRANCH  18  25
ENDBRANCH   1  18
TORSDOF 5
