REMARK  Name = CHEMBL373512
REMARK  4 active torsions:
REMARK  status: ('A' for Active; 'I' for Inactive)
REMARK    1  A    between atoms: C_3  and  C_6
REMARK    2  A    between atoms: C_6  and  N_7
REMARK    3  A    between atoms: C_11  and  N_13
REMARK    4  A    between atoms: N_13  and  C_14
REMARK                            x       y       z     vdW  Elec       q    Type
REMARK                         _______ _______ _______ _____ _____    ______ ____
ROOT
ATOM      1  N   UNL     1       4.235   2.004   1.357  0.00  0.00    -0.296 NA
ATOM      2  C   UNL     1       3.485   3.057   2.053  0.00  0.00    +0.085 C 
ATOM      3  C   UNL     1       3.904   3.095   3.525  0.00  0.00    +0.017 C 
ATOM      4  C   UNL     1       5.407   3.368   3.616  0.00  0.00    +0.025 C 
ATOM      5  C   UNL     1       6.163   2.284   2.842  0.00  0.00    +0.084 C 
ATOM      6  C   UNL     1       5.679   2.269   1.390  0.00  0.00    +0.107 C 
ENDROOT
BRANCH   5   7
ATOM      7  N   UNL     1       5.908   0.978   3.456  0.00  0.00    -0.340 N 
ATOM      8  H   UNL     1       5.204   0.409   3.109  0.00  0.00    +0.146 HD
BRANCH   7   9
ATOM      9  C   UNL     1       6.682   0.553   4.542  0.00  0.00    +0.028 A 
ATOM     10  C   UNL     1       7.691   1.378   5.041  0.00  0.00    +0.025 A 
ATOM     11  C   UNL     1       8.457   0.981   6.099  0.00  0.00    +0.029 A 
ATOM     12  C   UNL     1       8.237  -0.259   6.694  0.00  0.00    +0.066 A 
ATOM     13  C   UNL     1       7.221  -1.099   6.199  0.00  0.00    +0.021 A 
ATOM     14  C   UNL     1       6.439  -0.678   5.117  0.00  0.00    +0.034 A 
ATOM     15  C   UNL     1       7.246  -2.303   7.024  0.00  0.00    +0.142 A 
ATOM     16  N   UNL     1       8.191  -2.160   7.909  0.00  0.00    -0.181 NA
ATOM     17  N   UNL     1       8.822  -0.923   7.743  0.00  0.00    -0.277 N 
ATOM     18  H   UNL     1       9.556  -0.590   8.282  0.00  0.00    +0.189 HD
ENDBRANCH   7   9
ENDBRANCH   5   7
BRANCH   1  19
ATOM     19  C   UNL     1       3.761   1.845  -0.024  0.00  0.00    +0.126 C 
BRANCH  19  22
ATOM     20  C   UNL     1      -0.016   1.351   0.009  0.00  0.00    +0.008 A 
ATOM     21  C   UNL     1       1.183   2.038   0.002  0.00  0.00    +0.012 A 
ATOM     22  C   UNL     1       2.343   1.336  -0.013  0.00  0.00    +0.004 A 
ATOM     23  S   UNL     1       1.754  -0.349  -0.017  0.00  0.00    -0.100 S 
ATOM     24  C   UNL     1       0.002  -0.004   0.002  0.00  0.00    +0.045 A 
ENDBRANCH  19  22
ENDBRANCH   1  19
TORSDOF 4
