REMARK  Name = CHEMBL225167
REMARK  4 active torsions:
REMARK  status: ('A' for Active; 'I' for Inactive)
REMARK    1  A    between atoms: C_3  and  C_6
REMARK    2  A    between atoms: C_6  and  N_7
REMARK    3  A    between atoms: C_11  and  N_13
REMARK    4  A    between atoms: N_13  and  C_14
REMARK                            x       y       z     vdW  Elec       q    Type
REMARK                         _______ _______ _______ _____ _____    ______ ____
ROOT
ATOM      1  N   UNL     1       4.102   0.606   1.351  0.00  0.00    +0.386 N 
ATOM      2  C   UNL     1       3.741   1.863   2.018  0.00  0.00    -0.078 C 
ATOM      3  C   UNL     1       4.192   1.816   3.480  0.00  0.00    -0.017 C 
ATOM      4  C   UNL     1       5.710   1.625   3.534  0.00  0.00    +0.018 C 
ATOM      5  C   UNL     1       6.082   0.351   2.771  0.00  0.00    +0.054 C 
ATOM      6  C   UNL     1       5.562   0.452   1.336  0.00  0.00    -0.056 C 
ATOM      7  H   UNL     1       3.688  -0.168   1.848  0.00  0.00    -0.081 HD
ENDROOT
BRANCH   5   8
ATOM      8  N   UNL     1       5.477  -0.809   3.430  0.00  0.00    -0.343 N 
ATOM      9  H   UNL     1       4.623  -1.151   3.122  0.00  0.00    +0.146 HD
BRANCH   8  10
ATOM     10  C   UNL     1       6.130  -1.423   4.505  0.00  0.00    +0.028 A 
ATOM     11  C   UNL     1       7.361  -0.911   4.940  0.00  0.00    +0.025 A 
ATOM     12  C   UNL     1       8.037  -1.465   5.976  0.00  0.00    +0.032 A 
ATOM     13  C   UNL     1       7.500  -2.587   6.642  0.00  0.00    +0.093 A 
ATOM     14  C   UNL     1       6.209  -3.127   6.188  0.00  0.00    +0.021 A 
ATOM     15  C   UNL     1       5.553  -2.500   5.106  0.00  0.00    +0.034 A 
ATOM     16  C   UNL     1       5.926  -4.206   7.004  0.00  0.00    +0.113 A 
ATOM     17  N   UNL     1       6.933  -4.334   7.881  0.00  0.00    -0.284 N 
ATOM     18  N   UNL     1       7.893  -3.340   7.655  0.00  0.00    -0.174 NA
ATOM     19  H   UNL     1       6.988  -5.014   8.571  0.00  0.00    +0.188 HD
ENDBRANCH   8  10
ENDBRANCH   5   8
BRANCH   1  20
ATOM     20  C   UNL     1       3.599   0.625  -0.029  0.00  0.00    -0.003 C 
BRANCH  20  23
ATOM     21  C   UNL     1      -0.016   1.341   0.009  0.00  0.00    +0.041 A 
ATOM     22  C   UNL     1       1.331   1.769  -0.001  0.00  0.00    +0.042 A 
ATOM     23  C   UNL     1       2.092   0.660  -0.014  0.00  0.00    +0.089 A 
ATOM     24  O   UNL     1       1.282  -0.411  -0.012  0.00  0.00    -0.470 OA
ATOM     25  C   UNL     1       0.002  -0.004   0.002  0.00  0.00    +0.195 A 
ENDBRANCH  20  23
ENDBRANCH   1  20
TORSDOF 4
