REMARK  Name = CHEMBL224505
REMARK  4 active torsions:
REMARK  status: ('A' for Active; 'I' for Inactive)
REMARK    1  A    between atoms: C_4  and  C_7
REMARK    2  A    between atoms: C_7  and  N_8
REMARK    3  A    between atoms: C_11  and  N_14
REMARK    4  A    between atoms: N_14  and  C_15
REMARK                            x       y       z     vdW  Elec       q    Type
REMARK                         _______ _______ _______ _____ _____    ______ ____
ROOT
ATOM      1  N   UNL     1       4.153  -0.953   1.342  0.00  0.00    +0.382 N 
ATOM      2  C   UNL     1       4.424   0.329   2.003  0.00  0.00    -0.077 C 
ATOM      3  C   UNL     1       4.807   0.083   3.464  0.00  0.00    +0.003 C 
ATOM      4  C   UNL     1       6.060  -0.796   3.517  0.00  0.00    +0.067 C 
ATOM      5  C   UNL     1       5.790  -2.099   2.760  0.00  0.00    +0.003 C 
ATOM      6  C   UNL     1       5.371  -1.772   1.325  0.00  0.00    -0.077 C 
ATOM      7  H   UNL     1       3.427  -1.441   1.844  0.00  0.00    -0.081 HD
ENDROOT
BRANCH   4   8
ATOM      8  N   UNL     1       6.388  -1.099   4.912  0.00  0.00    -0.341 N 
ATOM      9  H   UNL     1       5.692  -1.082   5.588  0.00  0.00    +0.146 HD
BRANCH   8  10
ATOM     10  C   UNL     1       7.698  -1.411   5.268  0.00  0.00    +0.035 A 
ATOM     11  C   UNL     1       8.695  -1.431   4.314  0.00  0.00    +0.023 A 
ATOM     12  C   UNL     1      10.006  -1.741   4.660  0.00  0.00    +0.002 A 
ATOM     13  C   UNL     1      10.346  -2.033   5.947  0.00  0.00    +0.010 A 
ATOM     14  C   UNL     1       9.362  -2.023   6.948  0.00  0.00    +0.002 A 
ATOM     15  C   UNL     1       8.023  -1.703   6.607  0.00  0.00    +0.006 A 
ATOM     16  C   UNL     1       7.059  -1.695   7.630  0.00  0.00    +0.030 A 
ATOM     17  C   UNL     1       7.452  -1.988   8.901  0.00  0.00    +0.111 A 
ATOM     18  N   UNL     1       8.712  -2.279   9.194  0.00  0.00    -0.263 NA
ATOM     19  C   UNL     1       9.661  -2.317   8.289  0.00  0.00    +0.119 A 
ENDBRANCH   8  10
ENDBRANCH   4   8
BRANCH   1  20
ATOM     20  C   UNL     1       3.711  -0.707  -0.038  0.00  0.00    -0.043 C 
BRANCH  20  24
ATOM     21  C   UNL     1      -0.017   1.378   0.010  0.00  0.00    +0.000 A 
ATOM     22  C   UNL     1       1.171   2.086   0.002  0.00  0.00    +0.000 A 
ATOM     23  C   UNL     1       2.377   1.411  -0.013  0.00  0.00    +0.002 A 
ATOM     24  C   UNL     1       2.396   0.029  -0.020  0.00  0.00    -0.064 A 
ATOM     25  C   UNL     1       1.208  -0.679  -0.012  0.00  0.00    +0.002 A 
ATOM     26  C   UNL     1       0.002  -0.004   0.002  0.00  0.00    +0.000 A 
ENDBRANCH  20  24
ENDBRANCH   1  20
TORSDOF 4
