REMARK  Name = CHEMBL610785
REMARK  2 active torsions:
REMARK  status: ('A' for Active; 'I' for Inactive)
REMARK    1  A    between atoms: N_6  and  S_8
REMARK    2  A    between atoms: S_8  and  C_11
REMARK                            x       y       z     vdW  Elec       q    Type
REMARK                         _______ _______ _______ _____ _____    ______ ____
ROOT
ATOM      1  S   UNL     1       0.036  -1.212   2.470  0.00  0.00    +0.061 S 
ATOM      2  O   UNL     1      -1.167  -1.867   2.095  0.00  0.00    -0.153 OA
ATOM      3  O   UNL     1       1.152  -1.913   3.001  0.00  0.00    -0.153 OA
ENDROOT
BRANCH   1   4
ATOM      4  C   UNL     1      -0.406   0.008   3.662  0.00  0.00    +0.110 C 
ATOM      5  C   UNL     1      -1.714   0.262   3.938  0.00  0.00    +0.028 C 
ATOM      6  C   UNL     1      -2.079   1.225   4.907  0.00  0.00    -0.001 C 
ATOM      7  C   UNL     1      -1.185   2.078   5.415  0.00  0.00    -0.010 C 
ATOM      8  C   UNL     1       0.238   2.051   4.965  0.00  0.00    +0.131 C 
ATOM      9  C   UNL     1       0.586   0.727   4.344  0.00  0.00    -0.004 C 
ATOM     10  C   UNL     1       1.871   0.245   4.450  0.00  0.00    +0.024 C 
ATOM     11  C   UNL     1       2.777   0.863   5.309  0.00  0.00    +0.101 C 
ATOM     12  N   UNL     1       2.423   1.865   6.088  0.00  0.00    -0.188 NA
ATOM     13  C   UNL     1       1.220   2.437   6.019  0.00  0.00    +0.247 C 
ATOM     14  O   UNL     1       0.913   3.278   6.840  0.00  0.00    -0.273 OA
ENDBRANCH   1   4
BRANCH   1  20
ATOM     15  C   UNL     1      -0.523   1.335  -0.061  0.00  0.00    -0.002 C 
ATOM     16  C   UNL     1       0.775   2.115  -0.226  0.00  0.00    -0.081 C 
ATOM     17  N   UNL     1       1.204   2.409   1.117  0.00  0.00    +0.380 N 
ATOM     18  C   UNL     1       2.256   1.448   1.543  0.00  0.00    -0.065 C 
ATOM     19  C   UNL     1       1.944   0.024   1.032  0.00  0.00    +0.090 C 
ATOM     20  N   UNL     1       0.577  -0.410   1.126  0.00  0.00    -0.178 NA
ATOM     21  C   UNL     1      -0.353  -0.121  -0.022  0.00  0.00    +0.107 C 
ATOM     22  H   UNL     1       1.575   3.346   1.151  0.00  0.00    -0.086 HD
ATOM     23  H   UNL     1       0.416   2.340   1.742  0.00  0.00    -0.086 HD
ENDBRANCH   1  20
TORSDOF 2
