REMARK  Name = CHEMBL598963
REMARK  3 active torsions:
REMARK  status: ('A' for Active; 'I' for Inactive)
REMARK    1  A    between atoms: C_7  and  C_11
REMARK    2  A    between atoms: C_14  and  N_24
REMARK    3  A    between atoms: C_15  and  N_17
REMARK                            x       y       z     vdW  Elec       q    Type
REMARK                         _______ _______ _______ _____ _____    ______ ____
ROOT
ATOM      1  C   UNL     1      -2.417  -0.604   0.015  0.00  0.00    +0.092 A 
ATOM      2  C   UNL     1      -2.852   0.710   0.157  0.00  0.00    +0.141 A 
ATOM      3  N   UNL     1      -4.146   0.982   0.177  0.00  0.00    -0.235 NA
ATOM      4  C   UNL     1      -5.033   0.004   0.062  0.00  0.00    +0.162 A 
ATOM      5  C   UNL     1      -4.598  -1.323  -0.082  0.00  0.00    +0.162 A 
ATOM      6  N   UNL     1      -3.304  -1.593  -0.106  0.00  0.00    -0.227 NA
ENDROOT
BRANCH   1  13
ATOM      7  C   UNL     1      -1.147  -3.542  -0.074  0.00  0.00    +0.029 A 
ATOM      8  C   UNL     1      -0.167  -4.460  -0.108  0.00  0.00    +0.085 A 
ATOM      9  N   UNL     1       1.053  -3.839  -0.104  0.00  0.00    -0.346 N 
ATOM     10  H   UNL     1       1.909  -4.294  -0.125  0.00  0.00    +0.167 HD
ATOM     11  C   UNL     1       0.885  -2.475  -0.067  0.00  0.00    +0.139 A 
ATOM     12  C   UNL     1      -0.500  -2.232  -0.046  0.00  0.00    +0.028 A 
ATOM     13  C   UNL     1      -0.967  -0.905  -0.006  0.00  0.00    +0.014 A 
ATOM     14  C   UNL     1      -0.018   0.118   0.011  0.00  0.00    +0.030 A 
ATOM     15  C   UNL     1       1.326  -0.206  -0.011  0.00  0.00    +0.114 A 
ATOM     16  N   UNL     1       1.736  -1.457  -0.048  0.00  0.00    -0.237 NA
ENDBRANCH   1  13
BRANCH   5  17
ATOM     17  N   UNL     1      -5.527  -2.352  -0.203  0.00  0.00    -0.314 N 
ATOM     18  C   UNL     1      -5.900  -2.819  -1.553  0.00  0.00    +0.104 C 
ATOM     19  C   UNL     1      -6.006  -4.354  -1.598  0.00  0.00    -0.000 C 
ATOM     20  C   UNL     1      -4.891  -4.960  -0.776  0.00  0.00    -0.081 C 
ATOM     21  N   UNL     1      -5.371  -5.206   0.582  0.00  0.00    +0.380 N 
ATOM     22  C   UNL     1      -5.228  -4.117   1.471  0.00  0.00    -0.063 C 
ATOM     23  C   UNL     1      -6.090  -2.929   1.000  0.00  0.00    +0.087 C 
ATOM     24  H   UNL     1      -6.348  -5.452   0.535  0.00  0.00    -0.086 HD
ATOM     25  H   UNL     1      -4.866  -5.994   0.961  0.00  0.00    -0.086 HD
ENDBRANCH   5  17
BRANCH   4  26
ATOM     26  N   UNL     1      -6.393   0.292   0.084  0.00  0.00    -0.312 N 
ATOM     27  C   UNL     1      -7.478  -0.700   0.101  0.00  0.00    +0.106 C 
ATOM     28  C   UNL     1      -8.810   0.080   0.096  0.00  0.00    +0.020 C 
ATOM     29  C   UNL     1      -8.406   1.456  -0.495  0.00  0.00    +0.020 C 
ATOM     30  C   UNL     1      -6.985   1.642   0.099  0.00  0.00    +0.106 C 
ENDBRANCH   4  26
TORSDOF 3
