REMARK  Name = ZINC43265391
REMARK  7 active torsions:
REMARK  status: ('A' for Active; 'I' for Inactive)
REMARK    1  A    between atoms: C_1  and  C_2
REMARK    2  A    between atoms: C_2  and  C_4
REMARK    3  A    between atoms: C_2  and  N_22
REMARK    4  A    between atoms: C_4  and  C_6
REMARK    5  A    between atoms: C_4  and  O_12
REMARK    6  A    between atoms: O_12  and  C_13
REMARK    7  A    between atoms: C_18  and  C_19
REMARK                            x       y       z     vdW  Elec       q    Type
REMARK                         _______ _______ _______ _____ _____    ______ ____
ROOT
ATOM      1  C   UNL     1       0.760  -0.527   1.259  0.00  0.00    +0.196 C 
ENDROOT
BRANCH   1   2
ATOM      2  C   UNL     1       2.238  -0.231   1.280  0.00  0.00    +0.029 A 
ATOM      3  C   UNL     1       3.268  -0.998   0.849  0.00  0.00    +0.016 A 
ATOM      4  C   UNL     1       4.559  -0.516   0.969  0.00  0.00    +0.023 A 
ATOM      5  C   UNL     1       4.754   0.710   1.515  0.00  0.00    +0.055 A 
ATOM      6  S   UNL     1       3.083   1.226   1.872  0.00  0.00    -0.083 S 
ATOM      7 BR   UNL     1       6.376   1.636   1.813  0.00  0.00    -0.043 Br
ENDBRANCH   1   2
BRANCH   1   9
ATOM      8  C   UNL     1       0.243   1.599   0.054  0.00  0.00    -0.010 C 
ATOM      9  C   UNL     1       0.137   0.074  -0.002  0.00  0.00    -0.032 C 
BRANCH   9  10
ATOM     10  N   UNL     1      -1.277  -0.317  -0.084  0.00  0.00    +0.382 N 
ATOM     11  H   UNL     1      -1.346  -1.323  -0.121  0.00  0.00    -0.089 HD
ATOM     12  H   UNL     1      -1.767   0.025   0.729  0.00  0.00    -0.089 HD
ATOM     13  H   UNL     1      -1.688   0.080  -0.916  0.00  0.00    -0.089 HD
ENDBRANCH   9  10
ENDBRANCH   1   9
BRANCH   1  14
ATOM     14  O   UNL     1       0.143   0.044   2.414  0.00  0.00    -0.484 OA
BRANCH  14  15
ATOM     15  C   UNL     1      -0.934  -0.606   2.922  0.00  0.00    +0.141 A 
ATOM     16  C   UNL     1      -1.345  -1.809   2.371  0.00  0.00    +0.047 A 
ATOM     17  C   UNL     1      -2.442  -2.471   2.888  0.00  0.00    +0.006 A 
ATOM     18  C   UNL     1      -3.140  -1.940   3.958  0.00  0.00    +0.040 A 
ATOM     19  C   UNL     1      -2.746  -0.742   4.522  0.00  0.00    +0.144 A 
ATOM     20  C   UNL     1      -1.633  -0.065   4.011  0.00  0.00    +0.128 A 
ATOM     21  F   UNL     1      -3.431  -0.228   5.567  0.00  0.00    -0.204 F 
BRANCH  20  22
ATOM     22  C   UNL     1      -1.214   1.174   4.593  0.00  0.00    +0.106 C 
ATOM     23  N   UNL     1      -0.881   2.157   5.055  0.00  0.00    -0.191 NA
ENDBRANCH  20  22
ENDBRANCH  14  15
ENDBRANCH   1  14
TORSDOF 6
