REMARK  Name = ZINC58846868
REMARK  10 active torsions:
REMARK  status: ('A' for Active; 'I' for Inactive)
REMARK    1  A    between atoms: C_1  and  C_2
REMARK    2  A    between atoms: C_2  and  C_3
REMARK    3  A    between atoms: C_2  and  C_4
REMARK    4  A    between atoms: C_7  and  N_10
REMARK    5  A    between atoms: N_10  and  S_11
REMARK    6  A    between atoms: S_11  and  C_14
REMARK    7  A    between atoms: C_27  and  C_30
REMARK    8  A    between atoms: C_33  and  O_39
REMARK    9  A    between atoms: C_34  and  N_36
REMARK   10  A    between atoms: O_39  and  C_40
REMARK                            x       y       z     vdW  Elec       q    Type
REMARK                         _______ _______ _______ _____ _____    ______ ____
ROOT
ATOM      1  C   UNL     1       0.588  -3.030   5.863  0.00  0.00    +0.109 A 
ATOM      2  C   UNL     1      -0.602  -2.650   5.270  0.00  0.00    +0.030 A 
ATOM      3  C   UNL     1      -1.631  -3.562   5.154  0.00  0.00    +0.025 A 
ATOM      4  C   UNL     1      -1.472  -4.859   5.630  0.00  0.00    +0.031 A 
ATOM      5  C   UNL     1      -0.275  -5.245   6.213  0.00  0.00    -0.018 A 
ATOM      6  C   UNL     1       0.752  -4.319   6.327  0.00  0.00    +0.034 A 
ATOM      7  C   UNL     1      -0.053  -6.638   6.699  0.00  0.00    +0.049 C 
ATOM      8  C   UNL     1      -0.135  -6.734   8.201  0.00  0.00    -0.023 C 
ATOM      9  C   UNL     1      -0.687  -7.869   8.553  0.00  0.00    -0.030 C 
ATOM     10  C   UNL     1      -1.058  -8.688   7.336  0.00  0.00    +0.033 C 
ATOM     11  C   UNL     1      -1.066  -7.658   6.184  0.00  0.00    +0.029 C 
ATOM     12  C   UNL     1      -2.471  -7.109   6.050  0.00  0.00    +0.105 C 
ATOM     13  N   UNL     1      -2.524  -5.761   5.523  0.00  0.00    -0.336 N 
ATOM     14  H   UNL     1      -3.342  -5.465   5.095  0.00  0.00    +0.147 HD
ENDROOT
BRANCH  12  15
ATOM     15  C   UNL     1      -3.132  -7.150   7.404  0.00  0.00    -0.025 A 
ATOM     16  C   UNL     1      -2.863  -6.162   8.333  0.00  0.00    +0.009 A 
ATOM     17  C   UNL     1      -3.468  -6.197   9.575  0.00  0.00    +0.048 A 
ATOM     18  C   UNL     1      -4.345  -7.225   9.889  0.00  0.00    +0.150 A 
ATOM     19  C   UNL     1      -4.613  -8.215   8.955  0.00  0.00    +0.168 A 
ATOM     20  C   UNL     1      -4.010  -8.172   7.713  0.00  0.00    +0.042 A 
BRANCH  19  21
ATOM     21  N   UNL     1      -5.548  -9.313   9.287  0.00  0.00    +0.060 N 
ATOM     22  O   UNL     1      -5.781 -10.175   8.473  0.00  0.00    -0.126 OA
ATOM     23  O   UNL     1      -6.078  -9.348  10.373  0.00  0.00    -0.126 OA
ENDBRANCH  19  21
BRANCH  18  24
ATOM     24  O   UNL     1      -4.940  -7.262  11.110  0.00  0.00    -0.493 OA
ATOM     25  C   UNL     1      -4.617  -6.210  12.022  0.00  0.00    +0.277 C 
ENDBRANCH  18  24
ENDBRANCH  12  15
BRANCH   1  26
ATOM     26  S   UNL     1       1.902  -1.866   6.021  0.00  0.00    +0.072 S 
ATOM     27  O   UNL     1       2.780  -2.377   7.015  0.00  0.00    -0.150 OA
ATOM     28  O   UNL     1       1.298  -0.584   6.125  0.00  0.00    -0.150 OA
BRANCH  26  29
ATOM     29  N   UNL     1       2.743  -1.880   4.595  0.00  0.00    -0.216 N 
ATOM     30  H   UNL     1       2.797  -1.075   4.056  0.00  0.00    +0.174 HD
BRANCH  29  34
ATOM     31  C   UNL     1       4.622  -5.369   3.319  0.00  0.00    -0.045 A 
ATOM     32  C   UNL     1       3.862  -4.631   2.430  0.00  0.00    +0.006 A 
ATOM     33  C   UNL     1       3.237  -3.473   2.850  0.00  0.00    +0.025 A 
ATOM     34  C   UNL     1       3.373  -3.051   4.167  0.00  0.00    +0.048 A 
ATOM     35  C   UNL     1       4.138  -3.795   5.056  0.00  0.00    +0.025 A 
ATOM     36  C   UNL     1       4.755  -4.954   4.631  0.00  0.00    +0.006 A 
BRANCH  31  38
ATOM     37  C   UNL     1       4.252  -7.621   2.349  0.00  0.00    +0.012 C 
ATOM     38  C   UNL     1       5.303  -6.632   2.857  0.00  0.00    +0.013 C 
ATOM     39  C   UNL     1       6.280  -6.301   1.727  0.00  0.00    +0.012 C 
ENDBRANCH  31  38
ENDBRANCH  29  34
ENDBRANCH  26  29
ENDBRANCH   1  26
TORSDOF 7
