REMARK  Name = ZINC23157447
REMARK  8 active torsions:
REMARK  status: ('A' for Active; 'I' for Inactive)
REMARK    1  A    between atoms: C_1  and  C_2
REMARK    2  A    between atoms: C_3  and  C_23
REMARK    3  A    between atoms: C_4  and  C_22
REMARK    4  A    between atoms: C_7  and  C_8
REMARK    5  A    between atoms: N_10  and  C_11
REMARK    6  A    between atoms: C_16  and  C_21
REMARK    7  A    between atoms: C_18  and  C_20
REMARK    8  A    between atoms: C_23  and  C_25
REMARK                            x       y       z     vdW  Elec       q    Type
REMARK                         _______ _______ _______ _____ _____    ______ ____
ROOT
ATOM      1  C   UNL     1       1.003   1.297  -0.412  0.00  0.00    +0.261 C 
ATOM      2  O   UNL     1       0.821   2.492  -0.545  0.00  0.00    -0.269 OA
ATOM      3  N   UNL     1      -0.042   0.447  -0.454  0.00  0.00    -0.307 N 
ATOM      4  H   UNL     1       0.122  -0.633  -0.329  0.00  0.00    +0.149 HD
ENDROOT
BRANCH   1  11
ATOM      5  C   UNL     1       3.594   3.026  -0.275  0.00  0.00    +0.047 C 
ATOM      6  C   UNL     1       3.499   1.528  -0.144  0.00  0.00    -0.010 A 
ATOM      7  C   UNL     1       4.573   0.630   0.065  0.00  0.00    +0.041 A 
ATOM      8  C   UNL     1       4.031  -0.644   0.122  0.00  0.00    +0.024 A 
ATOM      9  N   UNL     1       2.703  -0.545  -0.037  0.00  0.00    -0.354 N 
ATOM     10  H   UNL     1       2.078  -1.450  -0.017  0.00  0.00    +0.166 HD
ATOM     11  C   UNL     1       2.362   0.779  -0.206  0.00  0.00    +0.106 A 
ATOM     12  C   UNL     1       4.802  -1.922   0.332  0.00  0.00    +0.064 C 
BRANCH   7  13
ATOM     13  C   UNL     1       5.991   0.982   0.196  0.00  0.00    +0.162 C 
ATOM     14  O   UNL     1       6.687   1.076  -0.793  0.00  0.00    -0.292 OA
ATOM     15  C   UNL     1       6.583   1.228   1.560  0.00  0.00    +0.091 C 
ENDBRANCH   7  13
ENDBRANCH   1  11
BRANCH   3  16
ATOM     16  C   UNL     1      -1.397   0.963  -0.666  0.00  0.00    +0.076 C 
ATOM     17  C   UNL     1      -1.652   1.127  -2.165  0.00  0.00    +0.022 C 
ATOM     18  C   UNL     1      -1.508  -0.229  -2.859  0.00  0.00    +0.002 C 
ATOM     19  C   UNL     1      -2.525  -1.211  -2.274  0.00  0.00    +0.003 C 
ATOM     20  C   UNL     1      -2.270  -1.376  -0.775  0.00  0.00    -0.009 C 
ATOM     21  C   UNL     1      -2.414  -0.020  -0.081  0.00  0.00    +0.009 C 
ATOM     22  C   UNL     1      -2.159  -0.185   1.419  0.00  0.00    +0.009 C 
ATOM     23  C   UNL     1      -3.287  -2.358  -0.190  0.00  0.00    +0.008 C 
ENDBRANCH   3  16
TORSDOF 3
