REMARK  Name = ZINC12555070
REMARK  6 active torsions:
REMARK  status: ('A' for Active; 'I' for Inactive)
REMARK    1  A    between atoms: C_9  and  N_11
REMARK    2  A    between atoms: N_11  and  N_12
REMARK    3  A    between atoms: C_13  and  C_14
REMARK    4  A    between atoms: C_15  and  N_29
REMARK    5  A    between atoms: C_17  and  C_18
REMARK    6  A    between atoms: C_21  and  N_24
REMARK                            x       y       z     vdW  Elec       q    Type
REMARK                         _______ _______ _______ _____ _____    ______ ____
ROOT
ATOM      1  C   UNL     1       8.368  -1.614  -0.680  0.00  0.00    -0.006 C 
ATOM      2  C   UNL     1       9.667  -2.152  -0.268  0.00  0.00    +0.038 C 
ATOM      3  C   UNL     1      10.644  -1.162  -0.284  0.00  0.00    -0.025 C 
ATOM      4  C   UNL     1      11.971  -1.347   0.052  0.00  0.00    +0.013 C 
ATOM      5  C   UNL     1      10.034   0.145  -0.724  0.00  0.00    +0.042 C 
ATOM      6  C   UNL     1       8.549  -0.146  -0.990  0.00  0.00    +0.043 C 
ENDROOT
BRANCH   4   7
ATOM      7  C   UNL     1      12.871  -0.198   0.139  0.00  0.00    -0.025 A 
ATOM      8  C   UNL     1      12.414   1.020   0.668  0.00  0.00    +0.010 A 
ATOM      9  C   UNL     1      13.269   2.096   0.745  0.00  0.00    +0.033 A 
ATOM     10  C   UNL     1      14.577   1.981   0.304  0.00  0.00    +0.126 A 
ATOM     11  C   UNL     1      15.039   0.784  -0.220  0.00  0.00    +0.033 A 
ATOM     12  C   UNL     1      14.201  -0.306  -0.300  0.00  0.00    +0.010 A 
BRANCH  10  13
ATOM     13  N   UNL     1      15.488   3.145   0.391  0.00  0.00    +0.056 N 
ATOM     14  O   UNL     1      15.054   4.285   0.887  0.00  0.00    -0.126 OA
ATOM     15  O   UNL     1      16.732   3.040  -0.028  0.00  0.00    -0.126 OA
ENDBRANCH  10  13
ENDBRANCH   4   7
BRANCH   2  16
ATOM     16  N   UNL     1       9.888  -3.451   0.085  0.00  0.00    -0.325 N 
ATOM     17  C   UNL     1      10.287  -3.805   1.457  0.00  0.00    +0.133 C 
ATOM     18  C   UNL     1       9.362  -4.921   1.956  0.00  0.00    +0.178 C 
ATOM     19  O   UNL     1       9.351  -5.986   1.002  0.00  0.00    -0.377 OA
ATOM     20  C   UNL     1       8.837  -5.619  -0.280  0.00  0.00    +0.178 C 
ATOM     21  C   UNL     1       9.730  -4.539  -0.892  0.00  0.00    +0.133 C 
ENDBRANCH   2  16
BRANCH   1  23
ATOM     22  N   UNL     1       6.065  -1.683  -1.073  0.00  0.00    -0.189 NA
ATOM     23  C   UNL     1       7.203  -2.315  -0.774  0.00  0.00    +0.135 C 
BRANCH  22  24
ATOM     24  N   UNL     1       4.963  -2.347  -1.162  0.00  0.00    -0.221 N 
ATOM     25  H   UNL     1       4.960  -3.305  -1.011  0.00  0.00    +0.176 HD
BRANCH  24  34
ATOM     26  C   UNL     1       0.358   1.656  -2.598  0.00  0.00    +0.001 A 
ATOM     27  C   UNL     1       1.570   2.335  -2.492  0.00  0.00    +0.002 A 
ATOM     28  C   UNL     1       2.720   1.675  -2.187  0.00  0.00    +0.028 A 
ATOM     29  C   UNL     1       2.691   0.284  -1.974  0.00  0.00    +0.073 A 
ATOM     30  C   UNL     1       1.455  -0.405  -2.082  0.00  0.00    +0.001 A 
ATOM     31  C   UNL     1       0.290   0.310  -2.398  0.00  0.00    +0.010 A 
ATOM     32  C   UNL     1       1.425  -1.797  -1.868  0.00  0.00    +0.013 A 
ATOM     33  C   UNL     1       2.593  -2.429  -1.564  0.00  0.00    +0.046 A 
ATOM     34  C   UNL     1       3.783  -1.692  -1.472  0.00  0.00    +0.139 A 
ATOM     35  N   UNL     1       3.804  -0.389  -1.673  0.00  0.00    -0.231 NA
ENDBRANCH  24  34
ENDBRANCH  22  24
ENDBRANCH   1  23
TORSDOF 6
