REMARK  Name = ZINC67610153
REMARK  10 active torsions:
REMARK  status: ('A' for Active; 'I' for Inactive)
REMARK    1  A    between atoms: C_1  and  C_2
REMARK    2  A    between atoms: C_2  and  C_4
REMARK    3  A    between atoms: C_2  and  N_14
REMARK    4  A    between atoms: C_8  and  S_10
REMARK    5  A    between atoms: S_10  and  N_13
REMARK    6  A    between atoms: N_17  and  C_18
REMARK    7  A    between atoms: N_17  and  C_19
REMARK    8  A    between atoms: C_19  and  C_21
REMARK    9  A    between atoms: C_19  and  C_22
REMARK   10  A    between atoms: C_26  and  O_28
REMARK                            x       y       z     vdW  Elec       q    Type
REMARK                         _______ _______ _______ _____ _____    ______ ____
ROOT
ATOM      1  N   UNL     1       0.620  -0.566   1.563  0.00  0.00    -0.293 N 
ATOM      2  C   UNL     1       1.947  -0.631   1.338  0.00  0.00    +0.303 C 
ATOM      3  O   UNL     1       2.395  -0.326   0.250  0.00  0.00    -0.253 OA
ATOM      4  N   UNL     1       2.777  -1.036   2.319  0.00  0.00    -0.282 N 
ATOM      5  C   UNL     1       2.237  -1.404   3.631  0.00  0.00    +0.134 C 
ATOM      6  H   UNL     1       0.262  -0.809   2.431  0.00  0.00    +0.151 HD
ENDROOT
BRANCH   1   8
ATOM      7  C   UNL     1      -0.357   1.402   0.488  0.00  0.00    +0.033 C 
ATOM      8  C   UNL     1      -0.283  -0.126   0.496  0.00  0.00    +0.102 C 
BRANCH   8   9
ATOM      9  C   UNL     1      -1.658  -0.694   0.735  0.00  0.00    -0.026 A 
ATOM     10  C   UNL     1      -2.173  -0.742   2.018  0.00  0.00    +0.005 A 
ATOM     11  C   UNL     1      -3.434  -1.263   2.237  0.00  0.00    +0.002 A 
ATOM     12  C   UNL     1      -4.181  -1.736   1.175  0.00  0.00    +0.028 A 
ATOM     13  C   UNL     1      -3.667  -1.688  -0.107  0.00  0.00    +0.105 A 
ATOM     14  C   UNL     1      -2.407  -1.163  -0.328  0.00  0.00    +0.034 A 
BRANCH  13  15
ATOM     15  S   UNL     1      -4.618  -2.292  -1.462  0.00  0.00    +0.056 S 
ATOM     16  O   UNL     1      -3.695  -2.635  -2.486  0.00  0.00    -0.153 OA
ATOM     17  O   UNL     1      -5.542  -3.228  -0.924  0.00  0.00    -0.153 OA
BRANCH  15  18
ATOM     18  N   UNL     1      -5.513  -1.022  -2.037  0.00  0.00    -0.204 NA
ATOM     19  H   UNL     1      -5.440  -0.149  -1.619  0.00  0.00    +0.144 HD
ATOM     20  H   UNL     1      -6.109  -1.151  -2.791  0.00  0.00    +0.144 HD
ENDBRANCH  15  18
ENDBRANCH  13  15
ENDBRANCH   8   9
ENDBRANCH   1   8
BRANCH   4  21
ATOM     21  C   UNL     1       4.220  -1.107   2.075  0.00  0.00    +0.104 C 
ATOM     22  C   UNL     1       4.685  -2.561   2.185  0.00  0.00    +0.033 C 
BRANCH  21  23
ATOM     23  C   UNL     1       4.945  -0.270   3.097  0.00  0.00    -0.024 A 
ATOM     24  C   UNL     1       6.218  -0.624   3.503  0.00  0.00    +0.006 A 
ATOM     25  C   UNL     1       6.886   0.142   4.441  0.00  0.00    +0.004 A 
ATOM     26  C   UNL     1       6.281   1.264   4.975  0.00  0.00    +0.045 A 
ATOM     27  C   UNL     1       5.004   1.621   4.569  0.00  0.00    +0.117 A 
ATOM     28  C   UNL     1       4.339   0.854   3.623  0.00  0.00    +0.050 A 
BRANCH  27  29
ATOM     29  O   UNL     1       4.407   2.724   5.093  0.00  0.00    -0.507 OA
ATOM     30  H   UNL     1       4.579   3.537   4.597  0.00  0.00    +0.292 HD
ENDBRANCH  27  29
ENDBRANCH  21  23
ENDBRANCH   4  21
TORSDOF 7
