REMARK  Name = ZINC01373752
REMARK  16 active torsions:
REMARK  status: ('A' for Active; 'I' for Inactive)
REMARK    1  A    between atoms: C_1  and  C_2
REMARK    2  A    between atoms: C_2  and  C_3
REMARK    3  A    between atoms: C_3  and  C_4
REMARK    4  A    between atoms: C_3  and  C_5
REMARK    5  A    between atoms: C_3  and  N_6
REMARK    6  A    between atoms: C_7  and  C_11
REMARK    7  A    between atoms: C_11  and  N_12
REMARK    8  A    between atoms: N_12  and  C_13
REMARK    9  A    between atoms: N_12  and  C_25
REMARK   10  A    between atoms: C_13  and  C_14
REMARK   11  A    between atoms: C_14  and  C_15
REMARK   12  A    between atoms: C_18  and  O_23
REMARK   13  A    between atoms: C_19  and  O_21
REMARK   14  A    between atoms: O_21  and  C_22
REMARK   15  A    between atoms: O_23  and  C_24
REMARK   16  A    between atoms: C_25  and  C_26
REMARK                            x       y       z     vdW  Elec       q    Type
REMARK                         _______ _______ _______ _____ _____    ______ ____
ROOT
ATOM      1  N   UNL     1       3.785  -2.086  -2.417  0.00  0.00    +0.387 N 
ATOM      2  H   UNL     1       3.605  -1.583  -1.561  0.00  0.00    -0.081 HD
ENDROOT
BRANCH   1   3
ATOM      3  C   UNL     1       2.510  -2.503  -3.016  0.00  0.00    +0.001 C 
BRANCH   3   5
ATOM      4  N   UNL     1       0.779  -2.815  -1.169  0.00  0.00    -0.226 N 
ATOM      5  C   UNL     1       1.716  -3.294  -2.008  0.00  0.00    +0.136 A 
ATOM      6  N   UNL     1       1.804  -4.581  -1.778  0.00  0.00    -0.115 NA
ATOM      7  N   UNL     1       0.965  -4.878  -0.846  0.00  0.00    -0.023 NA
ATOM      8  N   UNL     1       0.348  -3.811  -0.472  0.00  0.00    -0.043 NA
BRANCH   4   9
ATOM      9  C   UNL     1       0.337  -1.422  -1.062  0.00  0.00    +0.061 C 
ATOM     10  C   UNL     1      -0.364  -1.009  -2.358  0.00  0.00    +0.036 C 
ATOM     11  C   UNL     1       1.549  -0.519  -0.827  0.00  0.00    +0.036 C 
BRANCH   9  13
ATOM     12  C   UNL     1      -1.099   0.169   0.222  0.00  0.00    +0.006 C 
ATOM     13  C   UNL     1      -0.637  -1.285   0.111  0.00  0.00    +0.026 C 
ENDBRANCH   9  13
ENDBRANCH   4   9
ENDBRANCH   3   5
ENDBRANCH   1   3
BRANCH   1  14
ATOM     14  C   UNL     1       4.503  -1.213  -3.355  0.00  0.00    -0.073 C 
BRANCH  14  15
ATOM     15  C   UNL     1       3.710   0.079  -3.560  0.00  0.00    +0.017 C 
BRANCH  15  16
ATOM     16  C   UNL     1       4.447   0.974  -4.522  0.00  0.00    -0.045 A 
ATOM     17  C   UNL     1       5.373   1.884  -4.046  0.00  0.00    +0.007 A 
ATOM     18  C   UNL     1       6.052   2.708  -4.925  0.00  0.00    +0.049 A 
ATOM     19  C   UNL     1       5.806   2.622  -6.286  0.00  0.00    +0.161 A 
ATOM     20  C   UNL     1       4.874   1.706  -6.765  0.00  0.00    +0.162 A 
ATOM     21  C   UNL     1       4.201   0.880  -5.879  0.00  0.00    +0.053 A 
BRANCH  20  22
ATOM     22  O   UNL     1       4.629   1.618  -8.100  0.00  0.00    -0.491 OA
ATOM     23  C   UNL     1       3.660   0.655  -8.519  0.00  0.00    +0.277 C 
ENDBRANCH  20  22
BRANCH  19  24
ATOM     24  O   UNL     1       6.472   3.432  -7.151  0.00  0.00    -0.491 OA
ATOM     25  C   UNL     1       7.413   4.348  -6.588  0.00  0.00    +0.277 C 
ENDBRANCH  19  24
ENDBRANCH  15  16
ENDBRANCH  14  15
ENDBRANCH   1  14
BRANCH   1  26
ATOM     26  C   UNL     1       4.602  -3.272  -2.128  0.00  0.00    -0.037 C 
BRANCH  26  27
ATOM     27  C   UNL     1       5.833  -2.859  -1.363  0.00  0.00    +0.001 A 
ATOM     28  C   UNL     1       5.835  -2.908  -0.007  0.00  0.00    +0.017 A 
ATOM     29  C   UNL     1       7.045  -2.501   0.706  0.00  0.00    +0.002 A 
ATOM     30  C   UNL     1       7.104  -2.529   2.104  0.00  0.00    +0.059 A 
ATOM     31  C   UNL     1       8.260  -2.142   2.749  0.00  0.00    +0.163 A 
ATOM     32  C   UNL     1       9.371  -1.722   2.011  0.00  0.00    +0.164 A 
ATOM     33  C   UNL     1       9.320  -1.688   0.628  0.00  0.00    +0.075 A 
ATOM     34  C   UNL     1       8.164  -2.075  -0.036  0.00  0.00    +0.053 A 
ATOM     35  N   UNL     1       8.097  -2.049  -1.415  0.00  0.00    -0.322 N 
ATOM     36  H   UNL     1       8.868  -1.755  -1.925  0.00  0.00    +0.169 HD
ATOM     37  C   UNL     1       6.981  -2.429  -2.060  0.00  0.00    +0.251 A 
ATOM     38  O   UNL     1       6.959  -2.397  -3.279  0.00  0.00    -0.268 OA
ATOM     39  O   UNL     1      10.517  -1.345   2.640  0.00  0.00    -0.485 OA
ATOM     40  C   UNL     1      10.415  -1.032   4.033  0.00  0.00    +0.270 C 
ATOM     41  C   UNL     1       9.597  -2.136   4.716  0.00  0.00    +0.270 C 
ATOM     42  O   UNL     1       8.300  -2.172   4.111  0.00  0.00    -0.485 OA
ENDBRANCH  26  27
ENDBRANCH   1  26
TORSDOF 11
