REMARK  Name = ZINC36013999
REMARK  13 active torsions:
REMARK  status: ('A' for Active; 'I' for Inactive)
REMARK    1  A    between atoms: C_1  and  C_2
REMARK    2  A    between atoms: C_2  and  C_3
REMARK    3  A    between atoms: C_3  and  N_4
REMARK    4  A    between atoms: N_10  and  C_15
REMARK    5  A    between atoms: C_12  and  C_14
REMARK    6  A    between atoms: C_15  and  C_16
REMARK    7  A    between atoms: C_17  and  C_33
REMARK    8  A    between atoms: C_18  and  C_26
REMARK    9  A    between atoms: N_23  and  C_24
REMARK   10  A    between atoms: C_24  and  C_25
REMARK   11  A    between atoms: C_33  and  O_35
REMARK   12  A    between atoms: O_35  and  C_36
REMARK   13  A    between atoms: C_36  and  C_37
REMARK                            x       y       z     vdW  Elec       q    Type
REMARK                         _______ _______ _______ _____ _____    ______ ____
ROOT
ATOM      1  C   UNL     1      -1.175  -8.481  -1.623  0.00  0.00    +0.041 C 
ATOM      2  C   UNL     1      -1.514  -9.775  -1.439  0.00  0.00    +0.080 C 
ATOM      3  C   UNL     1      -0.397 -10.770  -1.202  0.00  0.00    +0.144 C 
ATOM      4  N   UNL     1       0.978 -10.240  -1.190  0.00  0.00    -0.288 N 
ATOM      5  C   UNL     1       1.157  -8.919  -1.389  0.00  0.00    +0.307 C 
ATOM      6  O   UNL     1       2.288  -8.472  -1.382  0.00  0.00    -0.252 OA
ATOM      7  N   UNL     1       0.132  -8.085  -1.601  0.00  0.00    -0.258 N 
ATOM      8  H   UNL     1       1.735 -10.828  -1.043  0.00  0.00    +0.151 HD
ENDROOT
BRANCH   3   9
ATOM      9  C   UNL     1      -0.646 -11.441   0.125  0.00  0.00    -0.022 A 
ATOM     10  C   UNL     1      -0.308 -10.795   1.300  0.00  0.00    +0.007 A 
ATOM     11  C   UNL     1      -0.536 -11.410   2.517  0.00  0.00    +0.020 A 
ATOM     12  C   UNL     1      -1.103 -12.671   2.558  0.00  0.00    +0.041 A 
ATOM     13  C   UNL     1      -1.442 -13.316   1.382  0.00  0.00    +0.020 A 
ATOM     14  C   UNL     1      -1.218 -12.699   0.166  0.00  0.00    +0.007 A 
ATOM     15 CL   UNL     1      -1.390 -13.444   4.086  0.00  0.00    -0.084 Cl
ENDBRANCH   3   9
BRANCH   7  16
ATOM     16  C   UNL     1       0.428  -6.666  -1.813  0.00  0.00    +0.111 C 
ATOM     17  C   UNL     1       0.537  -5.959  -0.461  0.00  0.00    +0.025 C 
ENDBRANCH   7  16
BRANCH   2  18
ATOM     18  C   UNL     1      -2.867 -10.187  -1.467  0.00  0.00    +0.339 C 
ATOM     19  O   UNL     1      -3.737  -9.397  -1.781  0.00  0.00    -0.245 OA
BRANCH  18  20
ATOM     20  O   UNL     1      -3.192 -11.457  -1.147  0.00  0.00    -0.462 OA
BRANCH  20  21
ATOM     21  C   UNL     1      -4.577 -11.805  -1.196  0.00  0.00    +0.229 C 
ATOM     22  C   UNL     1      -4.749 -13.273  -0.804  0.00  0.00    +0.048 C 
ENDBRANCH  20  21
ENDBRANCH  18  20
ENDBRANCH   2  18
BRANCH   1  23
ATOM     23  C   UNL     1      -2.255  -7.458  -1.863  0.00  0.00    +0.136 C 
BRANCH  23  30
ATOM     24  N   UNL     1      -5.072  -7.908  -7.288  0.00  0.00    -0.299 N 
ATOM     25  C   UNL     1      -4.571  -6.791  -6.724  0.00  0.00    +0.303 C 
ATOM     26  O   UNL     1      -4.997  -5.701  -7.052  0.00  0.00    -0.253 OA
ATOM     27  N   UNL     1      -3.596  -6.883  -5.798  0.00  0.00    -0.280 N 
ATOM     28  C   UNL     1      -2.968  -8.176  -5.489  0.00  0.00    +0.125 C 
ATOM     29  C   UNL     1      -3.004  -8.384  -3.971  0.00  0.00    +0.104 C 
ATOM     30  N   UNL     1      -2.396  -7.224  -3.306  0.00  0.00    -0.294 NA
ATOM     31  C   UNL     1      -3.163  -5.998  -3.568  0.00  0.00    +0.107 C 
ATOM     32  C   UNL     1      -3.129  -5.691  -5.073  0.00  0.00    +0.088 C 
ATOM     33  C   UNL     1      -4.051  -4.509  -5.380  0.00  0.00    +0.029 C 
ATOM     34  H   UNL     1      -4.681  -8.772  -7.082  0.00  0.00    +0.150 HD
BRANCH  24  35
ATOM     35  C   UNL     1      -6.206  -7.817  -8.210  0.00  0.00    +0.105 C 
BRANCH  35  37
ATOM     36  C   UNL     1      -7.760  -9.123  -9.667  0.00  0.00    +0.005 C 
ATOM     37  C   UNL     1      -6.575  -9.218  -8.704  0.00  0.00    +0.015 C 
ENDBRANCH  35  37
ENDBRANCH  24  35
ENDBRANCH  23  30
ENDBRANCH   1  23
TORSDOF 9
