REMARK  Name = ZINC16978524
REMARK  6 active torsions:
REMARK  status: ('A' for Active; 'I' for Inactive)
REMARK    1  A    between atoms: C_1  and  C_2
REMARK    2  A    between atoms: C_3  and  C_10
REMARK    3  A    between atoms: C_4  and  N_9
REMARK    4  A    between atoms: C_13  and  C_16
REMARK    5  A    between atoms: C_17  and  C_18
REMARK    6  A    between atoms: C_19  and  C_20
REMARK                            x       y       z     vdW  Elec       q    Type
REMARK                         _______ _______ _______ _____ _____    ______ ____
ROOT
ATOM      1  C   UNL     1       7.154   4.218   0.052  0.00  0.00    -0.013 A 
ATOM      2  C   UNL     1       7.133   5.597   0.268  0.00  0.00    +0.009 A 
ATOM      3  C   UNL     1       5.945   6.270   0.280  0.00  0.00    +0.008 A 
ATOM      4  C   UNL     1       4.746   5.575   0.076  0.00  0.00    -0.025 A 
ATOM      5  C   UNL     1       4.769   4.191  -0.135  0.00  0.00    +0.008 A 
ATOM      6  C   UNL     1       5.960   3.523  -0.151  0.00  0.00    +0.009 A 
ENDROOT
BRANCH   1   9
ATOM      7  C   UNL     1       8.092   2.925  -2.390  0.00  0.00    +0.066 C 
ATOM      8  C   UNL     1       8.903   2.869  -1.121  0.00  0.00    +0.053 A 
ATOM      9  C   UNL     1       8.444   3.490   0.039  0.00  0.00    +0.043 A 
ATOM     10  C   UNL     1       9.237   3.404   1.200  0.00  0.00    +0.129 A 
ATOM     11  N   UNL     1      10.386   2.741   1.143  0.00  0.00    -0.199 NA
ATOM     12  C   UNL     1      10.784   2.170   0.016  0.00  0.00    +0.214 A 
ATOM     13  N   UNL     1      10.063   2.233  -1.095  0.00  0.00    -0.219 NA
ATOM     14  N   UNL     1      11.988   1.489  -0.003  0.00  0.00    -0.327 N 
ATOM     15  H   UNL     1      12.527   1.435   0.802  0.00  0.00    +0.145 HD
ATOM     16  H   UNL     1      12.293   1.066  -0.820  0.00  0.00    +0.145 HD
BRANCH  10  17
ATOM     17  N   UNL     1       8.825   3.998   2.379  0.00  0.00    -0.343 N 
ATOM     18  H   UNL     1       7.984   4.481   2.411  0.00  0.00    +0.144 HD
ATOM     19  H   UNL     1       9.378   3.933   3.174  0.00  0.00    +0.144 HD
ENDBRANCH  10  17
ENDBRANCH   1   9
BRANCH   4  20
ATOM     20  C   UNL     1       3.466   6.297   0.089  0.00  0.00    +0.008 C 
ATOM     21  C   UNL     1       2.449   5.884  -0.699  0.00  0.00    +0.001 C 
BRANCH  21  22
ATOM     22  C   UNL     1       2.665   4.861  -1.654  0.00  0.00    +0.001 C 
ATOM     23  C   UNL     1       1.626   4.368  -2.361  0.00  0.00    +0.008 C 
BRANCH  23  24
ATOM     24  C   UNL     1       1.850   3.305  -3.354  0.00  0.00    -0.025 A 
ATOM     25  C   UNL     1       0.776   2.791  -4.088  0.00  0.00    +0.008 A 
ATOM     26  C   UNL     1       0.994   1.796  -5.016  0.00  0.00    +0.001 A 
ATOM     27  C   UNL     1       2.272   1.305  -5.223  0.00  0.00    +0.000 A 
ATOM     28  C   UNL     1       3.339   1.808  -4.501  0.00  0.00    +0.001 A 
ATOM     29  C   UNL     1       3.138   2.804  -3.568  0.00  0.00    +0.008 A 
ENDBRANCH  23  24
ENDBRANCH  21  22
ENDBRANCH   4  20
TORSDOF 5
