REMARK  Name = ZINC13947219
REMARK  8 active torsions:
REMARK  status: ('A' for Active; 'I' for Inactive)
REMARK    1  A    between atoms: C_1  and  C_2
REMARK    2  A    between atoms: C_2  and  C_3
REMARK    3  A    between atoms: N_9  and  S_10
REMARK    4  A    between atoms: S_10  and  C_13
REMARK    5  A    between atoms: C_16  and  C_19
REMARK    6  A    between atoms: C_19  and  C_20
REMARK    7  A    between atoms: C_19  and  C_21
REMARK    8  A    between atoms: C_19  and  C_22
REMARK                            x       y       z     vdW  Elec       q    Type
REMARK                         _______ _______ _______ _____ _____    ______ ____
ROOT
ATOM      1  S   UNL     1       1.182  -2.139  -0.061  0.00  0.00    +0.061 S 
ATOM      2  O   UNL     1       2.548  -2.278   0.304  0.00  0.00    -0.153 OA
ATOM      3  O   UNL     1       0.135  -2.797   0.638  0.00  0.00    -0.153 OA
ENDROOT
BRANCH   1   9
ATOM      4  C   UNL     1      -0.244  -2.905  -2.243  0.00  0.00    +0.080 C 
ATOM      5  C   UNL     1      -0.205  -4.300  -2.866  0.00  0.00    +0.021 C 
ATOM      6  C   UNL     1       0.968  -4.385  -3.845  0.00  0.00    +0.003 C 
ATOM      7  C   UNL     1       2.280  -4.153  -3.093  0.00  0.00    +0.017 C 
ATOM      8  C   UNL     1       2.269  -2.752  -2.474  0.00  0.00    +0.110 C 
ATOM      9  N   UNL     1       1.065  -2.612  -1.644  0.00  0.00    -0.174 NA
BRANCH   4  11
ATOM     10  C   UNL     1      -2.703  -3.003  -1.810  0.00  0.00    +0.005 C 
ATOM     11  C   UNL     1      -1.325  -2.860  -1.161  0.00  0.00    +0.017 C 
ENDBRANCH   4  11
ENDBRANCH   1   9
BRANCH   1  12
ATOM     12  C   UNL     1       0.819  -0.415  -0.005  0.00  0.00    +0.106 A 
ATOM     13  C   UNL     1      -0.455   0.012   0.320  0.00  0.00    +0.029 A 
ATOM     14  C   UNL     1      -0.740   1.364   0.365  0.00  0.00    +0.006 A 
ATOM     15  C   UNL     1       0.249   2.289   0.086  0.00  0.00    -0.042 A 
ATOM     16  C   UNL     1       1.523   1.861  -0.240  0.00  0.00    +0.006 A 
ATOM     17  C   UNL     1       1.808   0.509  -0.284  0.00  0.00    +0.029 A 
BRANCH  15  18
ATOM     18  C   UNL     1      -0.061   3.763   0.135  0.00  0.00    -0.013 C 
ATOM     19  C   UNL     1      -0.532   4.138   1.542  0.00  0.00    +0.015 C 
ATOM     20  C   UNL     1       1.197   4.561  -0.212  0.00  0.00    +0.015 C 
ATOM     21  C   UNL     1      -1.165   4.085  -0.875  0.00  0.00    +0.015 C 
ENDBRANCH  15  18
ENDBRANCH   1  12
TORSDOF 4
