REMARK  Name = ZINC08809810
REMARK  8 active torsions:
REMARK  status: ('A' for Active; 'I' for Inactive)
REMARK    1  A    between atoms: C_1  and  C_2
REMARK    2  A    between atoms: C_2  and  O_3
REMARK    3  A    between atoms: O_3  and  C_4
REMARK    4  A    between atoms: C_7  and  N_10
REMARK    5  A    between atoms: C_13  and  C_38
REMARK    6  A    between atoms: N_23  and  C_26
REMARK    7  A    between atoms: C_26  and  N_70
REMARK    8  A    between atoms: N_29  and  C_32
REMARK                            x       y       z     vdW  Elec       q    Type
REMARK                         _______ _______ _______ _____ _____    ______ ____
ROOT
ATOM      1  N   UNL     1      -8.704  -1.256  -4.972  0.00  0.00    -0.243 N 
ATOM      2  C   UNL     1      -9.241  -0.201  -5.584  0.00  0.00    +0.234 C 
ATOM      3  O   UNL     1     -10.441  -0.023  -5.595  0.00  0.00    -0.274 OA
ATOM      4  C   UNL     1      -8.291   0.771  -6.268  0.00  0.00    +0.132 C 
ATOM      5  S   UNL     1      -6.745  -0.239  -6.306  0.00  0.00    -0.108 S 
ATOM      6  C   UNL     1      -7.255  -1.425  -5.003  0.00  0.00    +0.193 C 
ATOM      7  C   UNL     1      -6.825  -2.817  -5.346  0.00  0.00    +0.017 A 
ATOM      8  C   UNL     1      -7.085  -3.666  -6.399  0.00  0.00    +0.009 A 
ATOM      9  C   UNL     1      -6.522  -4.930  -6.427  0.00  0.00    +0.000 A 
ATOM     10  C   UNL     1      -5.698  -5.339  -5.394  0.00  0.00    +0.002 A 
ATOM     11  C   UNL     1      -5.434  -4.493  -4.338  0.00  0.00    +0.024 A 
ATOM     12  C   UNL     1      -5.995  -3.219  -4.301  0.00  0.00    +0.041 A 
ATOM     13  N   UNL     1      -5.878  -2.197  -3.356  0.00  0.00    -0.285 N 
ATOM     14  C   UNL     1      -6.596  -1.106  -3.695  0.00  0.00    +0.257 C 
ATOM     15  O   UNL     1      -6.688  -0.072  -3.068  0.00  0.00    -0.272 OA
ATOM     16  C   UNL     1      -8.768   1.107  -7.683  0.00  0.00    +0.029 C 
ENDROOT
BRANCH   1  20
ATOM     17  C   UNL     1     -11.123  -4.027  -3.007  0.00  0.00    +0.121 A 
ATOM     18  C   UNL     1     -10.916  -4.134  -4.374  0.00  0.00    +0.047 A 
ATOM     19  C   UNL     1     -10.116  -3.216  -5.026  0.00  0.00    +0.027 A 
ATOM     20  C   UNL     1      -9.517  -2.187  -4.312  0.00  0.00    +0.039 A 
ATOM     21  C   UNL     1      -9.720  -2.084  -2.942  0.00  0.00    +0.027 A 
ATOM     22  C   UNL     1     -10.525  -2.999  -2.293  0.00  0.00    +0.047 A 
BRANCH  17  23
ATOM     23  O   UNL     1     -11.911  -4.930  -2.366  0.00  0.00    -0.492 OA
BRANCH  23  25
ATOM     24  C   UNL     1     -12.992  -5.863  -0.416  0.00  0.00    +0.048 C 
ATOM     25  C   UNL     1     -12.080  -4.760  -0.957  0.00  0.00    +0.225 C 
ENDBRANCH  23  25
ENDBRANCH  17  23
ENDBRANCH   1  20
BRANCH  13  26
ATOM     26  C   UNL     1      -5.074  -2.300  -2.135  0.00  0.00    +0.038 C 
BRANCH  26  32
ATOM     27  C   UNL     1      -3.061  -1.357  -1.176  0.00  0.00    -0.057 C 
ATOM     28  C   UNL     1      -1.674  -0.804  -1.514  0.00  0.00    +0.086 C 
ATOM     29  N   UNL     1      -0.873  -1.856  -2.156  0.00  0.00    -0.333 N 
ATOM     30  C   UNL     1      -1.522  -2.330  -3.386  0.00  0.00    +0.086 C 
ATOM     31  C   UNL     1      -2.909  -2.883  -3.049  0.00  0.00    -0.057 C 
ATOM     32  N   UNL     1      -3.710  -1.809  -2.424  0.00  0.00    +0.392 N 
ATOM     33  H   UNL     1      -3.771  -1.017  -3.075  0.00  0.00    -0.079 HD
BRANCH  29  34
ATOM     34  C   UNL     1       0.425  -1.410  -2.414  0.00  0.00    +0.030 A 
ATOM     35  C   UNL     1       1.344  -2.257  -3.020  0.00  0.00    +0.023 A 
ATOM     36  C   UNL     1       2.625  -1.811  -3.279  0.00  0.00    +0.002 A 
ATOM     37  C   UNL     1       2.995  -0.525  -2.931  0.00  0.00    +0.000 A 
ATOM     38  C   UNL     1       2.084   0.319  -2.322  0.00  0.00    +0.002 A 
ATOM     39  C   UNL     1       0.801  -0.121  -2.061  0.00  0.00    +0.023 A 
ENDBRANCH  29  34
ENDBRANCH  26  32
ENDBRANCH  13  26
TORSDOF 6
