REMARK  Name = ZINC39911995
REMARK  16 active torsions:
REMARK  status: ('A' for Active; 'I' for Inactive)
REMARK    1  A    between atoms: C_1  and  C_2
REMARK    2  A    between atoms: C_2  and  C_3
REMARK    3  A    between atoms: C_3  and  C_4
REMARK    4  A    between atoms: C_4  and  C_5
REMARK    5  A    between atoms: C_5  and  N_6
REMARK    6  A    between atoms: C_7  and  C_26
REMARK    7  A    between atoms: C_10  and  C_17
REMARK    8  A    between atoms: C_19  and  C_25
REMARK    9  A    between atoms: C_21  and  C_24
REMARK   10  A    between atoms: C_22  and  O_23
REMARK   11  A    between atoms: C_28  and  O_36
REMARK   12  A    between atoms: C_29  and  O_34
REMARK   13  A    between atoms: C_30  and  O_32
REMARK   14  A    between atoms: O_32  and  C_33
REMARK   15  A    between atoms: O_34  and  C_35
REMARK   16  A    between atoms: O_36  and  C_37
REMARK                            x       y       z     vdW  Elec       q    Type
REMARK                         _______ _______ _______ _____ _____    ______ ____
ROOT
ATOM      1  N   UNL     1      -2.063  -4.918  -0.179  0.00  0.00    -0.285 N 
ATOM      2  C   UNL     1      -2.076  -5.724  -1.406  0.00  0.00    +0.141 C 
ATOM      3  C   UNL     1      -2.075  -7.161  -0.960  0.00  0.00    +0.035 A 
ATOM      4  C   UNL     1      -2.083  -8.510  -1.329  0.00  0.00    +0.102 A 
ATOM      5  N   UNL     1      -2.074  -9.223  -0.220  0.00  0.00    -0.173 NA
ATOM      6  N   UNL     1      -2.062  -8.457   0.812  0.00  0.00    -0.272 N 
ATOM      7  H   UNL     1      -2.054  -8.763   1.733  0.00  0.00    +0.189 HD
ATOM      8  C   UNL     1      -2.062  -7.149   0.421  0.00  0.00    +0.126 A 
ATOM      9  C   UNL     1      -2.050  -5.753   0.875  0.00  0.00    +0.265 C 
ATOM     10  O   UNL     1      -2.032  -5.402   2.040  0.00  0.00    -0.268 OA
ENDROOT
BRANCH   4  11
ATOM     11  C   UNL     1      -2.098  -9.042  -2.715  0.00  0.00    +0.044 A 
ATOM     12  C   UNL     1      -2.213  -8.172  -3.797  0.00  0.00    +0.017 A 
ATOM     13  C   UNL     1      -2.226  -8.671  -5.083  0.00  0.00    -0.049 A 
ATOM     14  C   UNL     1      -2.126 -10.034  -5.303  0.00  0.00    +0.010 A 
ATOM     15  C   UNL     1      -2.011 -10.905  -4.237  0.00  0.00    -0.008 A 
ATOM     16  C   UNL     1      -1.991 -10.417  -2.940  0.00  0.00    +0.129 A 
ATOM     17  C   UNL     1      -1.902 -12.388  -4.485  0.00  0.00    +0.047 C 
ATOM     18  C   UNL     1      -2.351  -7.729  -6.253  0.00  0.00    +0.044 C 
BRANCH  16  19
ATOM     19  O   UNL     1      -1.873 -11.273  -1.891  0.00  0.00    -0.506 OA
ATOM     20  H   UNL     1      -2.718 -11.595  -1.550  0.00  0.00    +0.292 HD
ENDBRANCH  16  19
ENDBRANCH   4  11
BRANCH   2  21
ATOM     21  C   UNL     1      -0.848  -5.435  -2.230  0.00  0.00    -0.015 A 
ATOM     22  C   UNL     1       0.406  -5.544  -1.660  0.00  0.00    +0.055 A 
ATOM     23  C   UNL     1       1.538  -5.278  -2.415  0.00  0.00    +0.165 A 
ATOM     24  C   UNL     1       1.411  -4.902  -3.747  0.00  0.00    +0.204 A 
ATOM     25  C   UNL     1       0.148  -4.793  -4.317  0.00  0.00    +0.165 A 
ATOM     26  C   UNL     1      -0.979  -5.066  -3.556  0.00  0.00    +0.055 A 
BRANCH  25  27
ATOM     27  O   UNL     1       0.018  -4.425  -5.619  0.00  0.00    -0.491 OA
ATOM     28  C   UNL     1      -1.310  -4.219  -6.106  0.00  0.00    +0.277 C 
ENDBRANCH  25  27
BRANCH  24  29
ATOM     29  O   UNL     1       2.520  -4.640  -4.491  0.00  0.00    -0.488 OA
ATOM     30  C   UNL     1       3.102  -5.737  -5.197  0.00  0.00    +0.277 C 
ENDBRANCH  24  29
BRANCH  23  31
ATOM     31  O   UNL     1       2.772  -5.386  -1.853  0.00  0.00    -0.491 OA
ATOM     32  C   UNL     1       2.828  -5.777  -0.480  0.00  0.00    +0.277 C 
ENDBRANCH  23  31
ENDBRANCH   2  21
BRANCH   1  33
ATOM     33  C   UNL     1      -2.058  -3.454  -0.114  0.00  0.00    +0.109 C 
BRANCH  33  34
ATOM     34  C   UNL     1      -0.614  -2.949  -0.111  0.00  0.00    +0.019 C 
BRANCH  34  35
ATOM     35  C   UNL     1      -0.609  -1.420  -0.043  0.00  0.00    +0.001 C 
BRANCH  35  37
ATOM     36  C   UNL     1       0.841   0.614   0.027  0.00  0.00    +0.004 C 
ATOM     37  C   UNL     1       0.835  -0.914  -0.041  0.00  0.00    -0.003 C 
ENDBRANCH  35  37
ENDBRANCH  34  35
ENDBRANCH  33  34
ENDBRANCH   1  33
TORSDOF 10
