REMARK  Name = ZINC17145443
REMARK  11 active torsions:
REMARK  status: ('A' for Active; 'I' for Inactive)
REMARK    1  A    between atoms: C_1  and  C_2
REMARK    2  A    between atoms: C_5  and  C_8
REMARK    3  A    between atoms: C_8  and  C_9
REMARK    4  A    between atoms: C_8  and  C_16
REMARK    5  A    between atoms: C_8  and  O_39
REMARK    6  A    between atoms: C_12  and  C_15
REMARK    7  A    between atoms: N_18  and  N_19
REMARK    8  A    between atoms: N_19  and  C_20
REMARK    9  A    between atoms: C_26  and  C_28
REMARK   10  A    between atoms: C_30  and  C_31
REMARK   11  A    between atoms: C_31  and  C_32
REMARK                            x       y       z     vdW  Elec       q    Type
REMARK                         _______ _______ _______ _____ _____    ______ ____
ROOT
ATOM      1  C   UNL     1      -1.341  -5.475   0.235  0.00  0.00    +0.270 C 
ATOM      2  O   UNL     1      -1.897  -6.112   1.105  0.00  0.00    -0.270 OA
ATOM      3  N   UNL     1      -1.958  -5.267  -0.946  0.00  0.00    -0.224 N 
ATOM      4  H   UNL     1      -1.513  -4.758  -1.641  0.00  0.00    +0.174 HD
ENDROOT
BRANCH   3   5
ATOM      5  N   UNL     1      -3.240  -5.785  -1.168  0.00  0.00    -0.181 N 
ATOM      6  C   UNL     1      -3.403  -6.865  -1.957  0.00  0.00    +0.307 C 
ATOM      7  O   UNL     1      -4.502  -7.370  -2.078  0.00  0.00    -0.265 OA
BRANCH   5   8
ATOM      8  C   UNL     1      -4.351  -5.182  -0.571  0.00  0.00    +0.056 A 
ATOM      9  C   UNL     1      -4.528  -3.807  -0.659  0.00  0.00    +0.025 A 
ATOM     10  C   UNL     1      -5.627  -3.215  -0.069  0.00  0.00    +0.002 A 
ATOM     11  C   UNL     1      -6.550  -3.989   0.611  0.00  0.00    +0.000 A 
ATOM     12  C   UNL     1      -6.376  -5.358   0.701  0.00  0.00    +0.002 A 
ATOM     13  C   UNL     1      -5.283  -5.957   0.108  0.00  0.00    +0.025 A 
ENDBRANCH   5   8
BRANCH   6  14
ATOM     14  C   UNL     1      -2.242  -7.438  -2.677  0.00  0.00    +0.246 C 
ATOM     15  O   UNL     1      -1.018  -6.877  -2.543  0.00  0.00    -0.282 OA
ATOM     16  C   UNL     1      -2.405  -8.523  -3.470  0.00  0.00    +0.107 C 
BRANCH  16  17
ATOM     17  C   UNL     1      -1.257  -9.090  -4.183  0.00  0.00    +0.190 C 
ATOM     18  O   UNL     1      -0.157  -8.585  -4.062  0.00  0.00    -0.287 OA
BRANCH  17  19
ATOM     19  C   UNL     1      -1.436 -10.275  -5.049  0.00  0.00    +0.022 A 
ATOM     20  C   UNL     1      -2.698 -10.853  -5.194  0.00  0.00    +0.012 A 
ATOM     21  C   UNL     1      -2.858 -11.959  -6.004  0.00  0.00    +0.001 A 
ATOM     22  C   UNL     1      -1.770 -12.495  -6.670  0.00  0.00    +0.000 A 
ATOM     23  C   UNL     1      -0.516 -11.927  -6.530  0.00  0.00    +0.001 A 
ATOM     24  C   UNL     1      -0.344 -10.818  -5.729  0.00  0.00    +0.012 A 
ENDBRANCH  17  19
ENDBRANCH  16  17
ENDBRANCH   6  14
ENDBRANCH   3   5
BRANCH   1  25
ATOM     25  C   UNL     1       0.038  -4.918   0.474  0.00  0.00    +0.194 C 
BRANCH  25  30
ATOM     26  C   UNL     1      -0.386   0.552   2.288  0.00  0.00    +0.044 C 
ATOM     27  C   UNL     1      -0.275  -0.874   1.815  0.00  0.00    -0.050 A 
ATOM     28  C   UNL     1       0.708  -1.228   0.910  0.00  0.00    +0.004 A 
ATOM     29  C   UNL     1       0.810  -2.537   0.476  0.00  0.00    +0.007 A 
ATOM     30  C   UNL     1      -0.072  -3.491   0.947  0.00  0.00    -0.003 A 
ATOM     31  C   UNL     1      -1.055  -3.138   1.853  0.00  0.00    +0.007 A 
ATOM     32  C   UNL     1      -1.154  -1.830   2.290  0.00  0.00    +0.004 A 
ENDBRANCH  25  30
BRANCH  25  33
ATOM     33  C   UNL     1       0.739  -5.743   1.522  0.00  0.00    -0.003 A 
ATOM     34  C   UNL     1       1.876  -6.457   1.194  0.00  0.00    +0.007 A 
ATOM     35  C   UNL     1       2.518  -7.214   2.155  0.00  0.00    +0.004 A 
ATOM     36  C   UNL     1       2.025  -7.256   3.446  0.00  0.00    -0.050 A 
ATOM     37  C   UNL     1       0.888  -6.541   3.775  0.00  0.00    +0.004 A 
ATOM     38  C   UNL     1       0.248  -5.780   2.814  0.00  0.00    +0.007 A 
ATOM     39  C   UNL     1       2.725  -8.082   4.494  0.00  0.00    +0.044 C 
ENDBRANCH  25  33
BRANCH  25  40
ATOM     40  O   UNL     1       0.786  -4.959  -0.743  0.00  0.00    -0.371 OA
ATOM     41  H   UNL     1       0.896  -5.848  -1.107  0.00  0.00    +0.212 HD
ENDBRANCH  25  40
ENDBRANCH   1  25
TORSDOF 9
