REMARK  Name = ZINC08655619
REMARK  9 active torsions:
REMARK  status: ('A' for Active; 'I' for Inactive)
REMARK    1  A    between atoms: C_1  and  C_2
REMARK    2  A    between atoms: C_2  and  C_34
REMARK    3  A    between atoms: N_7  and  N_8
REMARK    4  A    between atoms: C_9  and  C_10
REMARK    5  A    between atoms: C_9  and  C_22
REMARK    6  A    between atoms: C_11  and  C_12
REMARK    7  A    between atoms: C_15  and  C_18
REMARK    8  A    between atoms: C_23  and  C_24
REMARK    9  A    between atoms: C_27  and  C_30
REMARK                            x       y       z     vdW  Elec       q    Type
REMARK                         _______ _______ _______ _____ _____    ______ ____
ROOT
ATOM      1  N   UNL     1      -1.745   2.352  -3.548  0.00  0.00    -0.181 NA
ATOM      2  C   UNL     1      -2.305   2.659  -4.696  0.00  0.00    +0.082 C 
ENDROOT
BRANCH   1   9
ATOM      3  C   UNL     1      -0.160   0.801   2.488  0.00  0.00    +0.014 C 
ATOM      4  C   UNL     1      -0.733   1.533   1.272  0.00  0.00    -0.002 C 
ATOM      5  C   UNL     1      -2.230   1.218   1.139  0.00  0.00    +0.112 C 
ATOM      6  N   UNL     1      -2.723   1.927  -0.052  0.00  0.00    -0.317 N 
ATOM      7  C   UNL     1      -1.950   1.924  -1.190  0.00  0.00    +0.174 C 
ATOM      8  C   UNL     1      -0.022   1.056   0.003  0.00  0.00    +0.123 C 
ATOM      9  N   UNL     1      -2.510   2.345  -2.375  0.00  0.00    -0.210 N 
ATOM     10  C   UNL     1      -0.536   3.041   1.435  0.00  0.00    +0.014 C 
ATOM     11  H   UNL     1      -3.577   2.387  -0.035  0.00  0.00    +0.149 HD
ATOM     12  H   UNL     1      -3.435   2.637  -2.397  0.00  0.00    +0.177 HD
ATOM     13  N   UNL     1      -0.669   1.545  -1.270  0.00  0.00    -0.359 N 
ATOM     14  H   UNL     1      -0.150   1.585  -2.155  0.00  0.00    +0.162 HD
ENDBRANCH   1   9
BRANCH   2  15
ATOM     15  C   UNL     1      -1.532   2.553  -5.943  0.00  0.00    +0.030 C 
ATOM     16  C   UNL     1      -0.253   2.142  -5.908  0.00  0.00    +0.010 C 
BRANCH  16  17
ATOM     17  C   UNL     1       0.521   2.035  -7.157  0.00  0.00    -0.025 A 
ATOM     18  C   UNL     1      -0.073   2.356  -8.381  0.00  0.00    +0.008 A 
ATOM     19  C   UNL     1       0.659   2.259  -9.545  0.00  0.00    +0.013 A 
ATOM     20  C   UNL     1       1.976   1.835  -9.505  0.00  0.00    +0.055 A 
ATOM     21  C   UNL     1       2.570   1.511  -8.298  0.00  0.00    +0.013 A 
ATOM     22  C   UNL     1       1.852   1.608  -7.125  0.00  0.00    +0.008 A 
BRANCH  20  23
ATOM     23  C   UNL     1       2.768   1.726 -10.783  0.00  0.00    +0.417 C 
ATOM     24  F   UNL     1       2.614   0.443 -11.319  0.00  0.00    -0.166 F 
ATOM     25  F   UNL     1       2.303   2.673 -11.702  0.00  0.00    -0.166 F 
ATOM     26  F   UNL     1       4.120   1.961 -10.515  0.00  0.00    -0.166 F 
ENDBRANCH  20  23
ENDBRANCH  16  17
ENDBRANCH   2  15
BRANCH   2  27
ATOM     27  C   UNL     1      -3.705   3.109  -4.734  0.00  0.00    +0.030 C 
ATOM     28  C   UNL     1      -4.311   3.320  -5.916  0.00  0.00    +0.010 C 
BRANCH  28  29
ATOM     29  C   UNL     1      -5.744   3.661  -5.958  0.00  0.00    -0.025 A 
ATOM     30  C   UNL     1      -6.477   3.759  -4.772  0.00  0.00    +0.008 A 
ATOM     31  C   UNL     1      -7.817   4.083  -4.819  0.00  0.00    +0.013 A 
ATOM     32  C   UNL     1      -8.438   4.300  -6.037  0.00  0.00    +0.055 A 
ATOM     33  C   UNL     1      -7.719   4.198  -7.215  0.00  0.00    +0.013 A 
ATOM     34  C   UNL     1      -6.378   3.881  -7.184  0.00  0.00    +0.008 A 
BRANCH  32  35
ATOM     35  C   UNL     1      -9.903   4.647  -6.080  0.00  0.00    +0.417 C 
ATOM     36  F   UNL     1     -10.659   3.473  -6.167  0.00  0.00    -0.166 F 
ATOM     37  F   UNL     1     -10.253   5.341  -4.917  0.00  0.00    -0.166 F 
ATOM     38  F   UNL     1     -10.160   5.450  -7.197  0.00  0.00    -0.166 F 
ENDBRANCH  32  35
ENDBRANCH  28  29
ENDBRANCH   2  27
TORSDOF 7
