REMARK  Name = ZINC34750030
REMARK  9 active torsions:
REMARK  status: ('A' for Active; 'I' for Inactive)
REMARK    1  A    between atoms: C_1  and  C_2
REMARK    2  A    between atoms: C_2  and  C_4
REMARK    3  A    between atoms: C_4  and  S_5
REMARK    4  A    between atoms: S_5  and  C_6
REMARK    5  A    between atoms: C_17  and  C_19
REMARK    6  A    between atoms: C_17  and  C_20
REMARK    7  A    between atoms: N_24  and  C_27
REMARK    8  A    between atoms: C_27  and  C_28
REMARK    9  A    between atoms: N_30  and  C_31
REMARK                            x       y       z     vdW  Elec       q    Type
REMARK                         _______ _______ _______ _____ _____    ______ ____
ROOT
ATOM      1  C   UNL     1      -2.124  -1.203  -2.487  0.00  0.00    +0.191 A 
ATOM      2  N   UNL     1      -3.050  -1.430  -3.411  0.00  0.00    -0.206 NA
ATOM      3  C   UNL     1      -2.835  -2.232  -4.440  0.00  0.00    +0.134 A 
ATOM      4  C   UNL     1      -1.572  -2.877  -4.568  0.00  0.00    +0.051 A 
ATOM      5  C   UNL     1      -1.114  -3.796  -5.608  0.00  0.00    -0.020 A 
ATOM      6  C   UNL     1       0.144  -4.273  -5.496  0.00  0.00    +0.021 A 
ATOM      7  S   UNL     1       0.787  -3.537  -4.020  0.00  0.00    -0.071 S 
ATOM      8  C   UNL     1      -0.638  -2.589  -3.552  0.00  0.00    +0.115 A 
ATOM      9  N   UNL     1      -0.928  -1.771  -2.558  0.00  0.00    -0.215 NA
ATOM     10  C   UNL     1       0.820  -5.222  -6.438  0.00  0.00    +0.203 C 
ATOM     11  O   UNL     1      -0.187  -5.785  -7.294  0.00  0.00    -0.368 OA
ATOM     12  C   UNL     1      -1.060  -4.808  -7.867  0.00  0.00    +0.068 C 
ATOM     13  C   UNL     1      -1.980  -4.228  -6.789  0.00  0.00    +0.071 C 
ATOM     14  C   UNL     1      -0.227  -3.683  -8.482  0.00  0.00    +0.041 C 
ATOM     15  C   UNL     1      -1.908  -5.464  -8.959  0.00  0.00    +0.041 C 
ATOM     16  N   UNL     1      -3.826  -2.443  -5.381  0.00  0.00    -0.318 N 
ATOM     17  C   UNL     1      -4.010  -1.514  -6.507  0.00  0.00    +0.088 C 
ATOM     18  C   UNL     1      -5.488  -1.117  -6.574  0.00  0.00    -0.059 C 
ATOM     19  N   UNL     1      -6.316  -2.328  -6.645  0.00  0.00    +0.387 N 
ATOM     20  C   UNL     1      -6.171  -3.107  -5.409  0.00  0.00    -0.059 C 
ATOM     21  C   UNL     1      -4.723  -3.605  -5.288  0.00  0.00    +0.088 C 
ATOM     22  H   UNL     1      -6.022  -2.889  -7.431  0.00  0.00    -0.081 HD
ENDROOT
BRANCH   1  23
ATOM     23  S   UNL     1      -2.488  -0.120  -1.146  0.00  0.00    -0.082 S 
BRANCH  23  24
ATOM     24  C   UNL     1      -0.962  -0.107  -0.165  0.00  0.00    +0.107 C 
BRANCH  24  26
ATOM     25  C   UNL     1      -1.119   2.290   0.855  0.00  0.00    +0.039 C 
ATOM     26  C   UNL     1      -1.140   0.794   1.030  0.00  0.00    -0.069 C 
ATOM     27  C   UNL     1      -1.312   0.276   2.220  0.00  0.00    +0.008 C 
ENDBRANCH  24  26
ENDBRANCH  23  24
ENDBRANCH   1  23
BRANCH  19  28
ATOM     28  C   UNL     1      -7.724  -1.947  -6.819  0.00  0.00    +0.019 C 
BRANCH  28  29
ATOM     29  C   UNL     1      -8.559  -3.186  -7.016  0.00  0.00    +0.201 C 
ATOM     30  O   UNL     1      -8.033  -4.279  -7.011  0.00  0.00    -0.278 OA
ATOM     31  N   UNL     1      -9.890  -3.079  -7.197  0.00  0.00    -0.287 N 
ATOM     32  H   UNL     1     -10.302  -2.204  -7.266  0.00  0.00    +0.155 HD
BRANCH  31  33
ATOM     33  C   UNL     1     -10.679  -4.232  -7.285  0.00  0.00    +0.033 A 
ATOM     34  C   UNL     1     -11.962  -4.240  -6.753  0.00  0.00    +0.023 A 
ATOM     35  C   UNL     1     -12.738  -5.379  -6.841  0.00  0.00    +0.002 A 
ATOM     36  C   UNL     1     -12.238  -6.511  -7.458  0.00  0.00    +0.000 A 
ATOM     37  C   UNL     1     -10.961  -6.507  -7.989  0.00  0.00    +0.002 A 
ATOM     38  C   UNL     1     -10.183  -5.369  -7.909  0.00  0.00    +0.023 A 
ENDBRANCH  31  33
ENDBRANCH  28  29
ENDBRANCH  19  28
TORSDOF 6
