REMARK  Name = ZINC38984424
REMARK  5 active torsions:
REMARK  status: ('A' for Active; 'I' for Inactive)
REMARK    1  A    between atoms: C_4  and  C_7
REMARK    2  A    between atoms: C_9  and  C_13
REMARK    3  A    between atoms: C_17  and  S_30
REMARK    4  A    between atoms: N_19  and  N_20
REMARK    5  A    between atoms: C_21  and  C_22
REMARK                            x       y       z     vdW  Elec       q    Type
REMARK                         _______ _______ _______ _____ _____    ______ ____
ROOT
ATOM      1  C   UNL     1       5.790  -3.029   0.985  0.00  0.00    +0.206 C 
ATOM      2  N   UNL     1       5.158  -4.359   1.136  0.00  0.00    -0.231 NA
ATOM      3  N   UNL     1       6.117  -5.130   1.943  0.00  0.00    -0.225 NA
ATOM      4  C   UNL     1       7.433  -4.668   1.429  0.00  0.00    +0.231 C 
ATOM      5  N   UNL     1       7.238  -3.226   1.172  0.00  0.00    -0.207 N 
ATOM      6  H   UNL     1       5.011  -4.793   0.238  0.00  0.00    +0.143 HD
ATOM      7  H   UNL     1       6.018  -4.917   2.925  0.00  0.00    +0.143 HD
ENDROOT
BRANCH   1  10
ATOM      8  C   UNL     1       3.895  -0.955  -0.840  0.00  0.00    +0.091 C 
ATOM      9  C   UNL     1       4.021  -2.279  -0.627  0.00  0.00    +0.034 C 
ATOM     10  C   UNL     1       5.512  -2.472  -0.413  0.00  0.00    +0.190 C 
ATOM     11  N   UNL     1       6.050  -1.109  -0.549  0.00  0.00    -0.176 NA
ATOM     12  N   UNL     1       5.109  -0.348  -0.786  0.00  0.00    -0.154 NA
BRANCH   8  16
ATOM     13  C   UNL     1       0.216   1.039  -1.596  0.00  0.00    +0.000 A 
ATOM     14  C   UNL     1       1.396   1.760  -1.562  0.00  0.00    +0.001 A 
ATOM     15  C   UNL     1       2.593   1.117  -1.317  0.00  0.00    +0.010 A 
ATOM     16  C   UNL     1       2.611  -0.260  -1.103  0.00  0.00    +0.002 A 
ATOM     17  C   UNL     1       1.419  -0.981  -1.138  0.00  0.00    +0.010 A 
ATOM     18  C   UNL     1       0.228  -0.328  -1.384  0.00  0.00    +0.001 A 
ENDBRANCH   8  16
ENDBRANCH   1  10
BRANCH   5  19
ATOM     19  N   UNL     1       8.233  -2.241   1.116  0.00  0.00    -0.188 NA
ATOM     20  C   UNL     1       9.484  -2.577   1.184  0.00  0.00    +0.141 C 
BRANCH  20  21
ATOM     21  C   UNL     1      10.524  -1.535   1.264  0.00  0.00    +0.031 A 
ATOM     22  C   UNL     1      11.873  -1.894   1.332  0.00  0.00    +0.027 A 
ATOM     23  C   UNL     1      12.841  -0.914   1.407  0.00  0.00    +0.019 A 
ATOM     24  C   UNL     1      12.480   0.423   1.415  0.00  0.00    +0.018 A 
ATOM     25  C   UNL     1      11.147   0.787   1.349  0.00  0.00    +0.040 A 
ATOM     26  C   UNL     1      10.166  -0.183   1.267  0.00  0.00    +0.132 A 
ATOM     27  F   UNL     1       8.865   0.173   1.196  0.00  0.00    -0.205 F 
ATOM     28 BR   UNL     1      14.667  -1.398   1.498  0.00  0.00    -0.050 Br
ENDBRANCH  20  21
ENDBRANCH   5  19
BRANCH   4  29
ATOM     29  S   UNL     1       8.727  -4.924   2.674  0.00  0.00    -0.138 S 
ATOM     30  H   UNL     1       8.737  -6.256   2.864  0.00  0.00    +0.105 HD
ENDBRANCH   4  29
TORSDOF 5
