REMARK  Name = ZINC09871806
REMARK  6 active torsions:
REMARK  status: ('A' for Active; 'I' for Inactive)
REMARK    1  A    between atoms: C_1  and  C_2
REMARK    2  A    between atoms: C_2  and  C_19
REMARK    3  A    between atoms: N_5  and  C_9
REMARK    4  A    between atoms: C_9  and  C_10
REMARK    5  A    between atoms: C_10  and  O_11
REMARK    6  A    between atoms: O_11  and  C_12
REMARK                            x       y       z     vdW  Elec       q    Type
REMARK                         _______ _______ _______ _____ _____    ______ ____
ROOT
ATOM      1  C   UNL     1       2.045   7.158   2.312  0.00  0.00    +0.047 C 
ATOM      2  C   UNL     1       0.717   6.721   2.933  0.00  0.00    +0.135 C 
ATOM      3  C   UNL     1       0.792   6.772   4.446  0.00  0.00    +0.251 C 
ATOM      4  O   UNL     1       1.538   6.142   5.164  0.00  0.00    -0.272 OA
ATOM      5  N   UNL     1      -0.143   7.666   4.827  0.00  0.00    -0.221 N 
ATOM      6  C   UNL     1      -0.791   8.180   3.775  0.00  0.00    +0.310 C 
ATOM      7  O   UNL     1      -1.678   9.006   3.867  0.00  0.00    -0.252 OA
ATOM      8  N   UNL     1      -0.352   7.681   2.606  0.00  0.00    -0.281 N 
ATOM      9  H   UNL     1      -0.675   7.909   1.720  0.00  0.00    +0.152 HD
ENDROOT
BRANCH   2  10
ATOM     10  C   UNL     1       0.346   5.336   2.467  0.00  0.00    -0.012 A 
ATOM     11  C   UNL     1       0.716   4.235   3.217  0.00  0.00    +0.010 A 
ATOM     12  C   UNL     1       0.380   2.961   2.796  0.00  0.00    +0.050 A 
ATOM     13  C   UNL     1      -0.330   2.792   1.619  0.00  0.00    +0.162 A 
ATOM     14  C   UNL     1      -0.702   3.897   0.867  0.00  0.00    +0.162 A 
ATOM     15  C   UNL     1      -0.364   5.171   1.292  0.00  0.00    +0.055 A 
ATOM     16  O   UNL     1      -1.402   3.720  -0.291  0.00  0.00    -0.488 OA
ATOM     17  C   UNL     1      -0.690   3.098  -1.362  0.00  0.00    +0.232 C 
ATOM     18  C   UNL     1      -0.736   1.583  -1.234  0.00  0.00    +0.082 C 
ATOM     19  C   UNL     1      -0.013   1.086   0.008  0.00  0.00    +0.232 C 
ATOM     20  O   UNL     1      -0.670   1.541   1.193  0.00  0.00    -0.488 OA
ENDBRANCH   2  10
BRANCH   5  21
ATOM     21  C   UNL     1      -0.415   8.028   6.220  0.00  0.00    +0.159 C 
BRANCH  21  22
ATOM     22  C   UNL     1       0.467   9.212   6.620  0.00  0.00    +0.248 C 
BRANCH  22  23
ATOM     23  O   UNL     1       0.100  10.360   5.853  0.00  0.00    -0.490 OA
BRANCH  23  24
ATOM     24  C   UNL     1       0.792  11.506   6.088  0.00  0.00    +0.121 A 
ATOM     25  C   UNL     1       1.799  11.526   7.042  0.00  0.00    +0.047 A 
ATOM     26  C   UNL     1       2.505  12.691   7.276  0.00  0.00    +0.019 A 
ATOM     27  C   UNL     1       2.200  13.839   6.566  0.00  0.00    +0.018 A 
ATOM     28  C   UNL     1       1.193  13.822   5.618  0.00  0.00    +0.019 A 
ATOM     29  C   UNL     1       0.489  12.659   5.378  0.00  0.00    +0.047 A 
ATOM     30 BR   UNL     1       3.162  15.434   6.894  0.00  0.00    -0.050 Br
ENDBRANCH  23  24
ENDBRANCH  22  23
ENDBRANCH  21  22
ENDBRANCH   5  21
TORSDOF 5
