REMARK  Name = ZINC63619704
REMARK  6 active torsions:
REMARK  status: ('A' for Active; 'I' for Inactive)
REMARK    1  A    between atoms: C_6  and  C_10
REMARK    2  A    between atoms: C_10  and  S_11
REMARK    3  A    between atoms: S_11  and  C_12
REMARK    4  A    between atoms: C_15  and  C_24
REMARK    5  A    between atoms: N_17  and  C_18
REMARK    6  A    between atoms: C_18  and  C_19
REMARK                            x       y       z     vdW  Elec       q    Type
REMARK                         _______ _______ _______ _____ _____    ______ ____
ROOT
ATOM      1  C   UNL     1       3.527  -2.867  -4.119  0.00  0.00    +0.176 C 
ATOM      2  N   UNL     1       4.255  -3.925  -3.989  0.00  0.00    -0.162 NA
ATOM      3  N   UNL     1       4.600  -4.466  -5.233  0.00  0.00    -0.239 N 
ATOM      4  C   UNL     1       3.980  -3.593  -6.246  0.00  0.00    +0.244 C 
ATOM      5  N   UNL     1       3.286  -2.566  -5.451  0.00  0.00    -0.275 N 
ATOM      6  H   UNL     1       5.138  -5.256  -5.396  0.00  0.00    +0.171 HD
ENDROOT
BRANCH   4   7
ATOM      7  C   UNL     1       2.994  -4.369  -7.081  0.00  0.00    +0.144 A 
ATOM      8  C   UNL     1       3.081  -5.676  -7.389  0.00  0.00    +0.048 A 
ATOM      9  C   UNL     1       1.953  -5.985  -8.183  0.00  0.00    +0.041 A 
ATOM     10  C   UNL     1       1.244  -4.849  -8.313  0.00  0.00    +0.195 A 
ATOM     11  O   UNL     1       1.877  -3.875  -7.638  0.00  0.00    -0.464 OA
ENDBRANCH   4   7
BRANCH   1  12
ATOM     12  S   UNL     1       2.908  -1.923  -2.766  0.00  0.00    -0.085 S 
BRANCH  12  13
ATOM     13  C   UNL     1       3.542  -2.787  -1.302  0.00  0.00    +0.124 C 
BRANCH  13  19
ATOM     14  C   UNL     1      -0.016   1.344   0.009  0.00  0.00    +0.002 A 
ATOM     15  C   UNL     1       1.158   2.118   0.002  0.00  0.00    +0.002 A 
ATOM     16  C   UNL     1       2.389   1.570  -0.013  0.00  0.00    +0.027 A 
ATOM     17  C   UNL     1       2.533   0.108  -0.022  0.00  0.00    +0.060 A 
ATOM     18  N   UNL     1       3.569  -0.680  -0.036  0.00  0.00    -0.363 N 
ATOM     19  C   UNL     1       3.071  -2.062  -0.039  0.00  0.00    +0.184 C 
ATOM     20  N   UNL     1       1.606  -1.974  -0.024  0.00  0.00    -0.363 N 
ATOM     21  C   UNL     1       1.290  -0.712  -0.014  0.00  0.00    +0.060 A 
ATOM     22  C   UNL     1       0.002  -0.004   0.002  0.00  0.00    +0.027 A 
ATOM     23  H   UNL     1       4.499  -0.405  -0.045  0.00  0.00    +0.162 HD
ATOM     24  H   UNL     1       0.987  -2.721  -0.022  0.00  0.00    +0.162 HD
ENDBRANCH  13  19
ENDBRANCH  12  13
ENDBRANCH   1  12
BRANCH   5  25
ATOM     25  C   UNL     1       2.498  -1.444  -5.967  0.00  0.00    +0.183 C 
BRANCH  25  26
ATOM     26  C   UNL     1       3.396  -0.252  -6.173  0.00  0.00    +0.122 A 
ATOM     27  C   UNL     1       4.062   0.045  -7.303  0.00  0.00    +0.046 A 
ATOM     28  C   UNL     1       4.776   1.240  -7.056  0.00  0.00    +0.041 A 
ATOM     29  C   UNL     1       4.504   1.602  -5.789  0.00  0.00    +0.195 A 
ATOM     30  O   UNL     1       3.663   0.697  -5.261  0.00  0.00    -0.466 OA
ENDBRANCH  25  26
ENDBRANCH   5  25
TORSDOF 6
