REMARK  Name = ZINC65591812
REMARK  7 active torsions:
REMARK  status: ('A' for Active; 'I' for Inactive)
REMARK    1  A    between atoms: C_1  and  C_2
REMARK    2  A    between atoms: C_2  and  C_3
REMARK    3  A    between atoms: C_3  and  C_4
REMARK    4  A    between atoms: C_4  and  C_5
REMARK    5  A    between atoms: C_5  and  C_6
REMARK    6  A    between atoms: C_5  and  N_25
REMARK    7  A    between atoms: C_11  and  C_14
REMARK                            x       y       z     vdW  Elec       q    Type
REMARK                         _______ _______ _______ _____ _____    ______ ____
ROOT
ATOM      1  C   UNL     1      -2.831  -4.094  -0.117  0.00  0.00    +0.236 C 
ATOM      2  O   UNL     1      -2.965  -4.791   0.867  0.00  0.00    -0.274 OA
ATOM      3  N   UNL     1      -2.666  -4.662  -1.328  0.00  0.00    -0.296 N 
ATOM      4  C   UNL     1      -2.650  -6.126  -1.492  0.00  0.00    +0.113 C 
ATOM      5  C   UNL     1      -3.830  -6.513  -2.387  0.00  0.00    +0.054 C 
ATOM      6  C   UNL     1      -3.905  -5.604  -3.577  0.00  0.00    -0.039 C 
ATOM      7  C   UNL     1      -3.327  -4.427  -3.647  0.00  0.00    -0.004 C 
ATOM      8  C   UNL     1      -2.501  -3.846  -2.539  0.00  0.00    +0.135 C 
ENDROOT
BRANCH   6   9
ATOM      9  C   UNL     1      -4.679  -6.062  -4.747  0.00  0.00    +0.003 A 
ATOM     10  C   UNL     1      -4.304  -7.005  -5.648  0.00  0.00    +0.091 A 
ATOM     11  N   UNL     1      -5.282  -7.158  -6.588  0.00  0.00    -0.360 N 
ATOM     12  H   UNL     1      -5.242  -7.776  -7.335  0.00  0.00    +0.165 HD
ATOM     13  C   UNL     1      -6.335  -6.309  -6.323  0.00  0.00    +0.050 A 
ATOM     14  C   UNL     1      -6.011  -5.589  -5.160  0.00  0.00    +0.007 A 
ATOM     15  C   UNL     1      -6.905  -4.650  -4.649  0.00  0.00    +0.013 A 
ATOM     16  C   UNL     1      -8.106  -4.433  -5.287  0.00  0.00    +0.039 A 
ATOM     17  C   UNL     1      -8.429  -5.146  -6.435  0.00  0.00    +0.125 A 
ATOM     18  C   UNL     1      -7.550  -6.073  -6.957  0.00  0.00    +0.064 A 
ATOM     19  F   UNL     1      -9.611  -4.923  -7.051  0.00  0.00    -0.205 F 
ENDBRANCH   6   9
BRANCH   1  20
ATOM     20  C   UNL     1      -2.848  -2.593   0.015  0.00  0.00    +0.161 C 
BRANCH  20  21
ATOM     21  N   UNL     1      -3.496  -2.221   1.275  0.00  0.00    -0.288 N 
ATOM     22  C   UNL     1      -2.984  -2.645   2.448  0.00  0.00    +0.298 C 
ATOM     23  O   UNL     1      -1.984  -3.337   2.459  0.00  0.00    -0.253 OA
ATOM     24  N   UNL     1      -3.580  -2.303   3.607  0.00  0.00    -0.313 N 
ATOM     25  H   UNL     1      -4.294  -1.670   1.266  0.00  0.00    +0.151 HD
ATOM     26  H   UNL     1      -4.378  -1.752   3.598  0.00  0.00    +0.146 HD
ATOM     27  H   UNL     1      -3.211  -2.608   4.450  0.00  0.00    +0.146 HD
ENDBRANCH  20  21
BRANCH  20  28
ATOM     28  C   UNL     1      -1.413  -2.063   0.004  0.00  0.00    +0.032 C 
BRANCH  28  29
ATOM     29  C   UNL     1      -1.433  -0.534   0.013  0.00  0.00    +0.002 C 
BRANCH  29  31
ATOM     30  C   UNL     1      -0.019   1.526   0.010  0.00  0.00    +0.004 C 
ATOM     31  C   UNL     1       0.002  -0.004   0.002  0.00  0.00    -0.003 C 
ENDBRANCH  29  31
ENDBRANCH  28  29
ENDBRANCH  20  28
ENDBRANCH   1  20
TORSDOF 6
