REMARK  Name = ZINC63890361
REMARK  5 active torsions:
REMARK  status: ('A' for Active; 'I' for Inactive)
REMARK    1  A    between atoms: C_1  and  C_2
REMARK    2  A    between atoms: C_9  and  C_13
REMARK    3  A    between atoms: C_13  and  N_14
REMARK    4  A    between atoms: N_14  and  C_15
REMARK    5  A    between atoms: C_22  and  C_24
REMARK                            x       y       z     vdW  Elec       q    Type
REMARK                         _______ _______ _______ _____ _____    ______ ____
ROOT
ATOM      1  C   UNL     1       0.048   0.089   4.816  0.00  0.00    +0.155 C 
ENDROOT
BRANCH   1  10
ATOM      2  C   UNL     1      -0.018   1.503   0.010  0.00  0.00    +0.047 C 
ATOM      3  C   UNL     1       0.002  -0.004   0.002  0.00  0.00    -0.009 A 
ATOM      4  C   UNL     1       0.006  -0.685  -1.179  0.00  0.00    +0.008 A 
ATOM      5  C   UNL     1       0.025  -2.086  -1.169  0.00  0.00    +0.019 A 
ATOM      6  C   UNL     1       0.039  -2.757   0.005  0.00  0.00    +0.096 A 
ATOM      7  N   UNL     1       0.035  -2.087   1.190  0.00  0.00    -0.269 N 
ATOM      8  C   UNL     1       0.023  -0.720   1.213  0.00  0.00    +0.121 A 
ATOM      9  N   UNL     1       0.025  -0.056   2.368  0.00  0.00    -0.343 N 
ATOM     10  C   UNL     1       0.045  -0.693   3.528  0.00  0.00    +0.040 A 
ATOM     11  C   UNL     1       0.064  -2.074   3.559  0.00  0.00    +0.093 A 
ATOM     12  C   UNL     1       0.050  -2.779   2.349  0.00  0.00    +0.258 A 
ATOM     13  O   UNL     1       0.066  -3.999   2.343  0.00  0.00    -0.267 OA
ATOM     14  H   UNL     1       0.012   0.913   2.358  0.00  0.00    +0.167 HD
ENDBRANCH   1  10
BRANCH   1  15
ATOM     15  N   UNL     1       1.291   0.858   4.918  0.00  0.00    -0.338 N 
ATOM     16  H   UNL     1       1.952   0.806   4.211  0.00  0.00    +0.146 HD
BRANCH  15  17
ATOM     17  C   UNL     1       1.523   1.666   6.035  0.00  0.00    +0.029 A 
ATOM     18  C   UNL     1       0.580   1.743   7.059  0.00  0.00    +0.025 A 
ATOM     19  C   UNL     1       0.780   2.521   8.155  0.00  0.00    +0.031 A 
ATOM     20  C   UNL     1       1.961   3.287   8.297  0.00  0.00    +0.079 A 
ATOM     21  C   UNL     1       2.900   3.191   7.244  0.00  0.00    +0.041 A 
ATOM     22  C   UNL     1       2.697   2.399   6.141  0.00  0.00    +0.040 A 
ATOM     23  S   UNL     1       4.197   4.272   7.798  0.00  0.00    -0.072 S 
ATOM     24  C   UNL     1       3.434   4.765   9.337  0.00  0.00    +0.083 A 
ATOM     25  N   UNL     1       2.309   4.104   9.315  0.00  0.00    -0.244 NA
BRANCH  24  26
ATOM     26  C   UNL     1       3.958   5.704  10.393  0.00  0.00    +0.045 C 
ATOM     27  C   UNL     1       3.183   5.790  11.709  0.00  0.00    +0.011 C 
ATOM     28  C   UNL     1       3.123   6.947  10.710  0.00  0.00    +0.011 C 
ENDBRANCH  24  26
ENDBRANCH  15  17
ENDBRANCH   1  15
TORSDOF 4
