REMARK  Name = ZINC43742971
REMARK  7 active torsions:
REMARK  status: ('A' for Active; 'I' for Inactive)
REMARK    1  A    between atoms: C_1  and  C_2
REMARK    2  A    between atoms: C_11  and  C_25
REMARK    3  A    between atoms: C_17  and  C_22
REMARK    4  A    between atoms: C_22  and  C_24
REMARK    5  A    between atoms: C_26  and  C_35
REMARK    6  A    between atoms: C_27  and  O_34
REMARK    7  A    between atoms: C_29  and  O_33
REMARK                            x       y       z     vdW  Elec       q    Type
REMARK                         _______ _______ _______ _____ _____    ______ ____
ROOT
ATOM      1  C   UNL     1       1.463   3.645   0.725  0.00  0.00    +0.010 C 
ATOM      2  C   UNL     1       1.044   2.191   0.890  0.00  0.00    +0.019 C 
ATOM      3  C   UNL     1       0.826   1.527  -0.464  0.00  0.00    +0.010 C 
ATOM      4  C   UNL     1       2.145   1.143  -1.133  0.00  0.00    -0.003 C 
ATOM      5  C   UNL     1       2.965   0.247  -0.215  0.00  0.00    +0.001 C 
ATOM      6  C   UNL     1       4.267  -0.146  -0.916  0.00  0.00    +0.005 C 
ATOM      7  C   UNL     1       3.930  -0.936  -2.182  0.00  0.00    +0.008 C 
ATOM      8  C   UNL     1       3.121  -0.083  -3.154  0.00  0.00    -0.016 C 
ATOM      9  C   UNL     1       1.854   0.477  -2.463  0.00  0.00    -0.000 C 
ATOM     10  C   UNL     1       0.897  -0.727  -2.324  0.00  0.00    +0.009 C 
ATOM     11  C   UNL     1       1.419  -1.760  -3.307  0.00  0.00    +0.003 C 
ATOM     12  C   UNL     1       2.458  -1.027  -4.184  0.00  0.00    +0.037 C 
ATOM     13  C   UNL     1       3.346  -2.091  -4.796  0.00  0.00    +0.015 C 
ATOM     14  C   UNL     1       2.468  -2.993  -5.678  0.00  0.00    +0.001 C 
ATOM     15  C   UNL     1       1.296  -3.598  -4.912  0.00  0.00    +0.000 C 
ATOM     16  C   UNL     1       0.462  -2.524  -4.185  0.00  0.00    +0.004 C 
ATOM     17  C   UNL     1       3.959   1.008  -3.828  0.00  0.00    +0.012 C 
ATOM     18  C   UNL     1       3.270   0.963   1.103  0.00  0.00    +0.000 C 
ATOM     19  C   UNL     1       1.967   1.376   1.776  0.00  0.00    +0.077 C 
ATOM     20  C   UNL     1       2.253   2.093   3.094  0.00  0.00    +0.067 C 
ATOM     21  C   UNL     1       3.027   1.177   4.041  0.00  0.00    +0.117 C 
ATOM     22  C   UNL     1       4.293   0.644   3.380  0.00  0.00    +0.032 C 
ATOM     23  C   UNL     1       3.994  -0.019   2.040  0.00  0.00    +0.012 C 
ATOM     24  C   UNL     1       4.198   2.150   0.856  0.00  0.00    +0.014 C 
ENDROOT
BRANCH  12  25
ATOM     25  C   UNL     1       1.810  -0.200  -5.265  0.00  0.00    +0.137 C 
ATOM     26  O   UNL     1       0.607  -0.161  -5.356  0.00  0.00    -0.297 OA
ATOM     27  C   UNL     1       2.664   0.580  -6.232  0.00  0.00    +0.086 C 
ENDBRANCH  12  25
BRANCH  21  28
ATOM     28  O   UNL     1       2.204   0.094   4.472  0.00  0.00    -0.392 OA
ATOM     29  H   UNL     1       2.645  -0.519   5.075  0.00  0.00    +0.210 HD
ENDBRANCH  21  28
BRANCH  19  30
ATOM     30  O   UNL     1       1.251   0.156   2.098  0.00  0.00    -0.388 OA
ATOM     31  H   UNL     1       0.417   0.301   2.565  0.00  0.00    +0.210 HD
ENDBRANCH  19  30
TORSDOF 3
