REMARK  Name = ZINC22011223
REMARK  3 active torsions:
REMARK  status: ('A' for Active; 'I' for Inactive)
REMARK    1  A    between atoms: C_3  and  C_6
REMARK    2  A    between atoms: N_11  and  C_12
REMARK    3  A    between atoms: C_12  and  C_13
REMARK                            x       y       z     vdW  Elec       q    Type
REMARK                         _______ _______ _______ _____ _____    ______ ____
ROOT
ATOM      1  C   UNL     1      -3.812  -1.591  -0.145  0.00  0.00    +0.116 A 
ATOM      2  N   UNL     1      -2.801  -2.437  -0.155  0.00  0.00    -0.219 NA
ATOM      3  C   UNL     1      -1.528  -2.078   0.003  0.00  0.00    +0.128 A 
ATOM      4  C   UNL     1      -1.295  -0.685   0.191  0.00  0.00    +0.051 A 
ATOM      5  C   UNL     1      -0.013  -0.028   0.385  0.00  0.00    -0.025 A 
ATOM      6  C   UNL     1      -0.037   1.315   0.541  0.00  0.00    -0.004 A 
ATOM      7  S   UNL     1      -1.752   1.766   0.446  0.00  0.00    -0.073 S 
ATOM      8  C   UNL     1      -2.433   0.160   0.188  0.00  0.00    +0.114 A 
ATOM      9  N   UNL     1      -3.664  -0.282   0.024  0.00  0.00    -0.227 NA
ATOM     10  C   UNL     1       1.134   2.224   0.755  0.00  0.00    +0.043 C 
ATOM     11  C   UNL     1       2.348   1.370   1.146  0.00  0.00    +0.005 C 
ATOM     12  C   UNL     1       2.454   0.195   0.170  0.00  0.00    +0.005 C 
ATOM     13  C   UNL     1       1.310  -0.789   0.417  0.00  0.00    +0.037 C 
ATOM     14  N   UNL     1      -0.497  -3.000  -0.014  0.00  0.00    -0.343 N 
ATOM     15  H   UNL     1       0.542  -2.666   0.121  0.00  0.00    +0.144 HD
ATOM     16  H   UNL     1      -0.717  -4.068  -0.162  0.00  0.00    +0.144 HD
ENDROOT
BRANCH   1  17
ATOM     17  C   UNL     1      -5.204  -2.135  -0.336  0.00  0.00    -0.000 C 
BRANCH  17  22
ATOM     18  C   UNL     1      -6.792  -2.896  -2.018  0.00  0.00    -0.030 C 
ATOM     19  C   UNL     1      -7.281  -2.385  -3.390  0.00  0.00    -0.012 C 
ATOM     20  C   UNL     1      -6.640  -0.991  -3.550  0.00  0.00    -0.020 C 
ATOM     21  C   UNL     1      -5.817  -0.777  -2.262  0.00  0.00    -0.077 C 
ATOM     22  N   UNL     1      -5.532  -2.149  -1.768  0.00  0.00    +0.389 N 
ATOM     23  H   UNL     1      -4.661  -2.606  -2.260  0.00  0.00    -0.080 HD
BRANCH  18  26
ATOM     24  C   UNL     1      -6.811  -6.696  -1.748  0.00  0.00    +0.008 A 
ATOM     25  C   UNL     1      -7.258  -5.399  -1.574  0.00  0.00    +0.009 A 
ATOM     26  C   UNL     1      -6.522  -4.378  -2.075  0.00  0.00    -0.024 A 
ATOM     27  S   UNL     1      -5.153  -5.243  -2.827  0.00  0.00    -0.103 S 
ATOM     28  C   UNL     1      -5.650  -6.907  -2.415  0.00  0.00    +0.045 A 
ENDBRANCH  18  26
ENDBRANCH  17  22
ENDBRANCH   1  17
TORSDOF 3
