REMARK  Name = ZINC13596353
REMARK  4 active torsions:
REMARK  status: ('A' for Active; 'I' for Inactive)
REMARK    1  A    between atoms: C_1  and  C_2
REMARK    2  A    between atoms: C_12  and  C_14
REMARK    3  A    between atoms: C_15  and  C_16
REMARK    4  A    between atoms: C_19  and  N_22
REMARK                            x       y       z     vdW  Elec       q    Type
REMARK                         _______ _______ _______ _____ _____    ______ ____
ROOT
ATOM      1  C   UNL     1       0.002   1.538   0.014  0.00  0.00    +0.029 C 
ATOM      2  C   UNL     1       0.010   0.008   0.001  0.00  0.00    +0.083 C 
ATOM      3  C   UNL     1       0.644  -0.511  -1.300  0.00  0.00    +0.059 C 
ATOM      4  C   UNL     1       1.848  -1.304  -0.846  0.00  0.00    -0.024 A 
ATOM      5  C   UNL     1       2.798  -2.002  -1.567  0.00  0.00    +0.005 A 
ATOM      6  C   UNL     1       3.822  -2.660  -0.912  0.00  0.00    +0.000 A 
ATOM      7  C   UNL     1       3.895  -2.618   0.469  0.00  0.00    +0.002 A 
ATOM      8  C   UNL     1       2.950  -1.923   1.193  0.00  0.00    +0.024 A 
ATOM      9  C   UNL     1       1.912  -1.256   0.538  0.00  0.00    +0.040 A 
ATOM     10  N   UNL     1       0.862  -0.504   1.077  0.00  0.00    -0.265 N 
ATOM     11  C   UNL     1       0.664  -0.283   2.392  0.00  0.00    +0.244 C 
ATOM     12  O   UNL     1       1.483  -0.669   3.205  0.00  0.00    -0.270 OA
ENDROOT
BRANCH  11  13
ATOM     13  C   UNL     1      -0.537   0.422   2.842  0.00  0.00    +0.068 C 
ATOM     14  C   UNL     1      -0.687   0.736   4.145  0.00  0.00    +0.013 C 
BRANCH  14  15
ATOM     15  C   UNL     1      -1.894   1.445   4.598  0.00  0.00    -0.025 A 
ATOM     16  C   UNL     1      -2.892   1.791   3.681  0.00  0.00    +0.010 A 
ATOM     17  C   UNL     1      -4.020   2.455   4.113  0.00  0.00    +0.033 A 
ATOM     18  C   UNL     1      -4.167   2.779   5.450  0.00  0.00    +0.126 A 
ATOM     19  C   UNL     1      -3.185   2.441   6.364  0.00  0.00    +0.033 A 
ATOM     20  C   UNL     1      -2.053   1.771   5.948  0.00  0.00    +0.010 A 
BRANCH  18  21
ATOM     21  N   UNL     1      -5.382   3.493   5.905  0.00  0.00    +0.056 N 
ATOM     22  O   UNL     1      -6.242   3.790   5.109  0.00  0.00    -0.126 OA
ATOM     23  O   UNL     1      -5.513   3.778   7.073  0.00  0.00    -0.126 OA
ENDBRANCH  18  21
ENDBRANCH  14  15
ENDBRANCH  11  13
TORSDOF 3
