REMARK  Name = ZINC22729220
REMARK  8 active torsions:
REMARK  status: ('A' for Active; 'I' for Inactive)
REMARK    1  A    between atoms: C_1  and  N_2
REMARK    2  A    between atoms: N_2  and  C_3
REMARK    3  A    between atoms: N_2  and  C_4
REMARK    4  A    between atoms: C_4  and  C_6
REMARK    5  A    between atoms: C_4  and  C_20
REMARK    6  A    between atoms: C_6  and  N_7
REMARK    7  A    between atoms: C_8  and  C_9
REMARK    8  A    between atoms: C_18  and  O_19
REMARK                            x       y       z     vdW  Elec       q    Type
REMARK                         _______ _______ _______ _____ _____    ______ ____
ROOT
ATOM      1  N   UNL     1      -3.032  -0.824  -0.578  0.00  0.00    -0.388 N 
ATOM      2  C   UNL     1      -1.991  -0.203  -1.039  0.00  0.00    +0.090 C 
ATOM      3  H   UNL     1      -3.005  -1.915  -0.439  0.00  0.00    +0.159 HD
ENDROOT
BRANCH   2   4
ATOM      4  C   UNL     1      -0.776  -0.957  -1.376  0.00  0.00    +0.040 A 
ATOM      5  C   UNL     1       0.407  -0.273  -1.897  0.00  0.00    -0.006 A 
ATOM      6  C   UNL     1       0.422   1.113  -2.092  0.00  0.00    +0.009 A 
ATOM      7  C   UNL     1       1.545   1.712  -2.581  0.00  0.00    +0.001 A 
ATOM      8  C   UNL     1       2.679   0.964  -2.888  0.00  0.00    +0.001 A 
ATOM      9  C   UNL     1       2.697  -0.386  -2.711  0.00  0.00    +0.008 A 
ATOM     10  C   UNL     1       1.557  -1.037  -2.210  0.00  0.00    -0.017 A 
ATOM     11  C   UNL     1       1.540  -2.430  -2.014  0.00  0.00    +0.012 A 
ATOM     12  C   UNL     1       0.433  -3.050  -1.528  0.00  0.00    +0.046 A 
ATOM     13  C   UNL     1      -0.725  -2.341  -1.206  0.00  0.00    +0.126 A 
BRANCH  13  14
ATOM     14  O   UNL     1      -1.807  -3.001  -0.725  0.00  0.00    -0.506 OA
ATOM     15  H   UNL     1      -1.771  -4.092  -0.589  0.00  0.00    +0.292 HD
ENDBRANCH  13  14
ENDBRANCH   2   4
BRANCH   1  16
ATOM     16  C   UNL     1      -4.243  -0.073  -0.241  0.00  0.00    +0.136 C 
BRANCH  16  17
ATOM     17  C   UNL     1      -5.380  -0.494  -1.174  0.00  0.00    +0.112 C 
BRANCH  17  18
ATOM     18  C   UNL     1      -6.591   0.364  -0.910  0.00  0.00    +0.009 A 
ATOM     19  C   UNL     1      -7.815  -0.003  -0.459  0.00  0.00    +0.013 A 
ATOM     20  C   UNL     1      -8.784   0.968  -0.286  0.00  0.00    +0.008 A 
ATOM     21  C   UNL     1      -8.485   2.256  -0.583  0.00  0.00    +0.045 A 
ATOM     22  S   UNL     1      -6.786   2.126  -1.118  0.00  0.00    -0.100 S 
ENDBRANCH  17  18
BRANCH  17  24
ATOM     23  C   UNL     1      -6.025  -0.724  -3.496  0.00  0.00    +0.105 C 
ATOM     24  N   UNL     1      -4.956  -0.327  -2.570  0.00  0.00    -0.299 NA
ATOM     25  C   UNL     1      -4.523   1.053  -2.827  0.00  0.00    +0.105 C 
ENDBRANCH  17  24
ENDBRANCH  16  17
ENDBRANCH   1  16
TORSDOF 6
