REMARK  Name = ZINC14798845
REMARK  10 active torsions:
REMARK  status: ('A' for Active; 'I' for Inactive)
REMARK    1  A    between atoms: C_1  and  C_2
REMARK    2  A    between atoms: C_2  and  O_3
REMARK    3  A    between atoms: O_3  and  C_4
REMARK    4  A    between atoms: C_4  and  C_6
REMARK    5  A    between atoms: C_9  and  S_12
REMARK    6  A    between atoms: S_12  and  N_15
REMARK    7  A    between atoms: C_18  and  C_21
REMARK    8  A    between atoms: N_23  and  C_24
REMARK    9  A    between atoms: C_29  and  C_34
REMARK   10  A    between atoms: C_31  and  C_33
REMARK                            x       y       z     vdW  Elec       q    Type
REMARK                         _______ _______ _______ _____ _____    ______ ____
ROOT
ATOM      1  N   UNL     1      -2.141   1.172   1.198  0.00  0.00    -0.177 NA
ATOM      2  C   UNL     1      -0.731   1.581   1.267  0.00  0.00    +0.110 C 
ATOM      3  C   UNL     1      -0.013   1.086   0.008  0.00  0.00    +0.030 C 
ATOM      4  C   UNL     1      -0.754   1.593  -1.231  0.00  0.00    +0.077 C 
ATOM      5  C   UNL     1      -2.180   1.036  -1.238  0.00  0.00    +0.030 C 
ATOM      6  C   UNL     1      -2.923   1.530   0.007  0.00  0.00    +0.110 C 
ENDROOT
BRANCH   4   7
ATOM      7  C   UNL     1      -0.030   1.137  -2.471  0.00  0.00    +0.216 C 
ATOM      8  O   UNL     1       0.979   0.471  -2.374  0.00  0.00    -0.276 OA
ATOM      9  N   UNL     1      -0.505   1.468  -3.689  0.00  0.00    -0.312 N 
ATOM     10  H   UNL     1      -1.312   2.001  -3.766  0.00  0.00    +0.149 HD
BRANCH   9  11
ATOM     11  C   UNL     1       0.199   1.024  -4.894  0.00  0.00    +0.076 C 
ATOM     12  C   UNL     1      -0.260  -0.388  -5.262  0.00  0.00    +0.022 C 
ATOM     13  C   UNL     1       0.475  -0.852  -6.521  0.00  0.00    +0.002 C 
ATOM     14  C   UNL     1       0.161   0.103  -7.675  0.00  0.00    +0.003 C 
ATOM     15  C   UNL     1       0.620   1.515  -7.308  0.00  0.00    -0.009 C 
ATOM     16  C   UNL     1      -0.115   1.979  -6.048  0.00  0.00    +0.009 C 
ATOM     17  C   UNL     1       0.344   3.391  -5.681  0.00  0.00    +0.009 C 
ATOM     18  C   UNL     1       2.127   1.510  -7.046  0.00  0.00    +0.008 C 
ENDBRANCH   9  11
ENDBRANCH   4   7
BRANCH   1  19
ATOM     19  S   UNL     1      -2.836   0.323   2.439  0.00  0.00    +0.061 S 
ATOM     20  O   UNL     1      -2.076   0.613   3.604  0.00  0.00    -0.153 OA
ATOM     21  O   UNL     1      -4.234   0.563   2.362  0.00  0.00    -0.153 OA
BRANCH  19  25
ATOM     22  C   UNL     1      -2.226  -4.080   1.556  0.00  0.00    +0.059 A 
ATOM     23  C   UNL     1      -1.274  -3.374   2.295  0.00  0.00    +0.017 A 
ATOM     24  C   UNL     1      -1.466  -2.034   2.560  0.00  0.00    +0.029 A 
ATOM     25  C   UNL     1      -2.599  -1.389   2.095  0.00  0.00    +0.106 A 
ATOM     26  C   UNL     1      -3.549  -2.083   1.368  0.00  0.00    +0.029 A 
ATOM     27  C   UNL     1      -3.367  -3.422   1.091  0.00  0.00    +0.017 A 
BRANCH  22  28
ATOM     28  C   UNL     1      -2.028  -5.515   1.269  0.00  0.00    +0.339 C 
ATOM     29  O   UNL     1      -1.035  -6.084   1.675  0.00  0.00    -0.245 OA
BRANCH  28  30
ATOM     30  O   UNL     1      -2.949  -6.193   0.556  0.00  0.00    -0.461 OA
BRANCH  30  32
ATOM     31  C   UNL     1      -3.834  -8.196  -0.507  0.00  0.00    +0.048 C 
ATOM     32  C   UNL     1      -2.688  -7.600   0.312  0.00  0.00    +0.229 C 
ENDBRANCH  30  32
ENDBRANCH  28  30
ENDBRANCH  22  28
ENDBRANCH  19  25
ENDBRANCH   1  19
TORSDOF 7
