REMARK  Name = ZINC06908508
REMARK  6 active torsions:
REMARK  status: ('A' for Active; 'I' for Inactive)
REMARK    1  A    between atoms: C_1  and  C_2
REMARK    2  A    between atoms: N_4  and  S_9
REMARK    3  A    between atoms: C_6  and  C_8
REMARK    4  A    between atoms: S_9  and  C_12
REMARK    5  A    between atoms: C_15  and  C_18
REMARK    6  A    between atoms: C_18  and  N_20
REMARK                            x       y       z     vdW  Elec       q    Type
REMARK                         _______ _______ _______ _____ _____    ______ ____
ROOT
ATOM      1  C   UNL     1      -1.178  -3.429  -2.159  0.00  0.00    +0.106 A 
ATOM      2  C   UNL     1      -1.173  -2.639  -3.295  0.00  0.00    +0.029 A 
ATOM      3  C   UNL     1      -0.335  -2.944  -4.347  0.00  0.00    +0.015 A 
ATOM      4  C   UNL     1       0.509  -4.052  -4.264  0.00  0.00    +0.039 A 
ATOM      5  C   UNL     1       0.499  -4.845  -3.117  0.00  0.00    +0.015 A 
ATOM      6  C   UNL     1      -0.340  -4.525  -2.069  0.00  0.00    +0.029 A 
ENDROOT
BRANCH   1   7
ATOM      7  S   UNL     1      -2.251  -3.032  -0.819  0.00  0.00    +0.061 S 
ATOM      8  O   UNL     1      -2.456  -4.236  -0.093  0.00  0.00    -0.153 OA
ATOM      9  O   UNL     1      -3.326  -2.281  -1.368  0.00  0.00    -0.153 OA
BRANCH   7  13
ATOM     10  C   UNL     1      -0.088   1.525  -0.019  0.00  0.00    +0.039 C 
ATOM     11  C   UNL     1      -0.052  -0.004  -0.021  0.00  0.00    +0.131 C 
ATOM     12  C   UNL     1      -1.485  -0.550  -0.002  0.00  0.00    +0.140 C 
ATOM     13  N   UNL     1      -1.423  -2.008   0.185  0.00  0.00    -0.172 NA
ATOM     14  C   UNL     1      -0.605  -2.530   1.291  0.00  0.00    +0.140 C 
ATOM     15  C   UNL     1       0.785  -1.888   1.208  0.00  0.00    +0.131 C 
ATOM     16  O   UNL     1       0.643  -0.467   1.139  0.00  0.00    -0.371 OA
ATOM     17  C   UNL     1       1.507  -2.391  -0.043  0.00  0.00    +0.039 C 
ENDBRANCH   7  13
ENDBRANCH   1   7
BRANCH   4  18
ATOM     18  C   UNL     1       1.411  -4.386  -5.391  0.00  0.00    +0.270 C 
ATOM     19  O   UNL     1       1.417  -3.692  -6.393  0.00  0.00    -0.268 OA
BRANCH  18  20
ATOM     20  N   UNL     1       2.219  -5.449  -5.309  0.00  0.00    -0.143 NA
ATOM     21  C   UNL     1       2.950  -5.809  -6.356  0.00  0.00    +0.199 A 
ATOM     22  N   UNL     1       3.053  -5.116  -7.522  0.00  0.00    -0.326 N 
ATOM     23  H   UNL     1       2.606  -4.280  -7.727  0.00  0.00    +0.169 HD
ATOM     24  C   UNL     1       3.909  -5.812  -8.369  0.00  0.00    +0.065 A 
ATOM     25  C   UNL     1       4.366  -5.574  -9.658  0.00  0.00    +0.028 A 
ATOM     26  C   UNL     1       5.233  -6.467 -10.256  0.00  0.00    +0.002 A 
ATOM     27  C   UNL     1       5.647  -7.600  -9.577  0.00  0.00    +0.002 A 
ATOM     28  C   UNL     1       5.198  -7.846  -8.295  0.00  0.00    +0.028 A 
ATOM     29  C   UNL     1       4.328  -6.955  -7.684  0.00  0.00    +0.065 A 
ATOM     30  N   UNL     1       3.721  -6.927  -6.432  0.00  0.00    -0.326 N 
ATOM     31  H   UNL     1       3.828  -7.592  -5.734  0.00  0.00    +0.169 HD
ENDBRANCH  18  20
ENDBRANCH   4  18
TORSDOF 4
