REMARK  Name = ZINC33812675
REMARK  12 active torsions:
REMARK  status: ('A' for Active; 'I' for Inactive)
REMARK    1  A    between atoms: C_1  and  C_2
REMARK    2  A    between atoms: C_2  and  C_3
REMARK    3  A    between atoms: C_3  and  C_4
REMARK    4  A    between atoms: C_4  and  N_5
REMARK    5  A    between atoms: C_6  and  N_29
REMARK    6  A    between atoms: C_7  and  C_15
REMARK    7  A    between atoms: C_8  and  C_14
REMARK    8  A    between atoms: C_9  and  C_12
REMARK    9  A    between atoms: N_19  and  C_23
REMARK   10  A    between atoms: C_23  and  C_24
REMARK   11  A    between atoms: N_32  and  C_35
REMARK   12  A    between atoms: C_35  and  C_36
REMARK                            x       y       z     vdW  Elec       q    Type
REMARK                         _______ _______ _______ _____ _____    ______ ____
ROOT
ATOM      1  N   UNL     1       1.279  -2.443   2.833  0.00  0.00    -0.295 N 
ATOM      2  C   UNL     1       2.598  -2.687   2.620  0.00  0.00    +0.112 A 
ATOM      3  C   UNL     1       3.320  -3.519   3.491  0.00  0.00    +0.019 A 
ATOM      4  C   UNL     1       2.667  -4.100   4.591  0.00  0.00    -0.017 A 
ATOM      5  C   UNL     1       1.315  -3.835   4.788  0.00  0.00    +0.120 A 
ATOM      6  C   UNL     1       0.632  -2.983   3.882  0.00  0.00    +0.270 A 
ATOM      7  O   UNL     1      -0.550  -2.743   4.052  0.00  0.00    -0.266 OA
ATOM      8  C   UNL     1       3.418  -4.997   5.541  0.00  0.00    +0.046 C 
ENDROOT
BRANCH   3   9
ATOM      9  C   UNL     1       4.741  -3.779   3.255  0.00  0.00    +0.032 C 
ATOM     10  C   UNL     1       5.670  -3.340   4.147  0.00  0.00    +0.077 C 
ATOM     11  C   UNL     1       7.087  -3.519   4.145  0.00  0.00    +0.259 C 
ATOM     12  O   UNL     1       7.639  -4.143   3.256  0.00  0.00    -0.269 OA
ATOM     13  N   UNL     1       7.781  -2.988   5.137  0.00  0.00    -0.248 N 
ATOM     14  C   UNL     1       7.168  -2.297   6.123  0.00  0.00    +0.121 C 
ATOM     15  S   UNL     1       7.862  -1.533   7.489  0.00  0.00    -0.027 S 
ATOM     16  S   UNL     1       5.451  -2.376   5.636  0.00  0.00    -0.061 S 
BRANCH  13  17
ATOM     17  C   UNL     1       9.237  -3.152   5.168  0.00  0.00    +0.189 C 
BRANCH  17  18
ATOM     18  C   UNL     1       9.886  -2.009   4.431  0.00  0.00    +0.122 A 
ATOM     19  C   UNL     1      10.275  -0.842   4.975  0.00  0.00    +0.046 A 
ATOM     20  C   UNL     1      10.831  -0.069   3.930  0.00  0.00    +0.041 A 
ATOM     21  C   UNL     1      10.749  -0.809   2.810  0.00  0.00    +0.195 A 
ATOM     22  O   UNL     1      10.181  -1.986   3.121  0.00  0.00    -0.466 OA
ENDBRANCH  17  18
ENDBRANCH  13  17
ENDBRANCH   3   9
BRANCH   2  23
ATOM     23  N   UNL     1       3.226  -2.119   1.550  0.00  0.00    -0.320 N 
ATOM     24  C   UNL     1       3.939  -0.839   1.683  0.00  0.00    +0.088 C 
ATOM     25  C   UNL     1       5.343  -1.001   1.091  0.00  0.00    -0.060 C 
ATOM     26  N   UNL     1       5.237  -1.496  -0.288  0.00  0.00    +0.382 N 
ATOM     27  C   UNL     1       4.648  -2.841  -0.293  0.00  0.00    -0.060 C 
ATOM     28  C   UNL     1       3.215  -2.773   0.232  0.00  0.00    +0.088 C 
ATOM     29  H   UNL     1       4.652  -0.872  -0.824  0.00  0.00    -0.082 HD
BRANCH  26  30
ATOM     30  C   UNL     1       6.575  -1.546  -0.892  0.00  0.00    -0.082 C 
ATOM     31  C   UNL     1       6.455  -1.942  -2.365  0.00  0.00    -0.017 C 
ENDBRANCH  26  30
ENDBRANCH   2  23
BRANCH   5  32
ATOM     32  C   UNL     1       0.620  -4.412   5.899  0.00  0.00    +0.105 C 
ATOM     33  N   UNL     1       0.069  -4.870   6.781  0.00  0.00    -0.191 NA
ENDBRANCH   5  32
BRANCH   1  34
ATOM     34  C   UNL     1       0.549  -1.572   1.909  0.00  0.00    +0.126 C 
BRANCH  34  35
ATOM     35  C   UNL     1       0.528  -0.145   2.462  0.00  0.00    +0.021 C 
BRANCH  35  37
ATOM     36  C   UNL     1      -0.254   2.191   2.049  0.00  0.00    +0.004 C 
ATOM     37  C   UNL     1      -0.234   0.764   1.496  0.00  0.00    -0.002 C 
ENDBRANCH  35  37
ENDBRANCH  34  35
ENDBRANCH   1  34
TORSDOF 9
