REMARK  Name = ZINC14472177
REMARK  4 active torsions:
REMARK  status: ('A' for Active; 'I' for Inactive)
REMARK    1  A    between atoms: C_1  and  N_2
REMARK    2  A    between atoms: C_3  and  C_5
REMARK    3  A    between atoms: C_12  and  C_21
REMARK    4  A    between atoms: C_25  and  N_27
REMARK                            x       y       z     vdW  Elec       q    Type
REMARK                         _______ _______ _______ _____ _____    ______ ____
ROOT
ATOM      1  C   UNL     1       0.796  -3.144  -0.931  0.00  0.00    +0.058 A 
ATOM      2  C   UNL     1       0.423  -4.153  -0.042  0.00  0.00    +0.015 A 
ATOM      3  C   UNL     1       0.514  -5.471  -0.431  0.00  0.00    +0.001 A 
ATOM      4  C   UNL     1       0.983  -5.794  -1.692  0.00  0.00    +0.006 A 
ATOM      5  C   UNL     1       1.363  -4.806  -2.588  0.00  0.00    -0.019 A 
ATOM      6  C   UNL     1       1.274  -3.477  -2.213  0.00  0.00    +0.044 A 
ATOM      7  N   UNL     1       1.643  -2.442  -3.059  0.00  0.00    -0.336 N 
ATOM      8  C   UNL     1       1.568  -2.806  -4.460  0.00  0.00    +0.105 C 
ATOM      9  C   UNL     1       2.429  -4.042  -4.735  0.00  0.00    +0.029 C 
ATOM     10  C   UNL     1       1.858  -5.235  -3.938  0.00  0.00    +0.049 C 
ATOM     11  C   UNL     1       0.716  -5.751  -4.784  0.00  0.00    -0.023 C 
ATOM     12  C   UNL     1       0.850  -5.357  -6.026  0.00  0.00    -0.030 C 
ATOM     13  C   UNL     1       2.108  -4.527  -6.187  0.00  0.00    +0.033 C 
ATOM     14  H   UNL     1       1.111  -1.607  -2.862  0.00  0.00    +0.147 HD
ENDROOT
BRANCH   8  15
ATOM     15  C   UNL     1       0.130  -3.111  -4.793  0.00  0.00    -0.025 A 
ATOM     16  C   UNL     1      -0.293  -3.095  -6.109  0.00  0.00    +0.005 A 
ATOM     17  C   UNL     1      -1.610  -3.379  -6.415  0.00  0.00    +0.003 A 
ATOM     18  C   UNL     1      -2.507  -3.670  -5.404  0.00  0.00    +0.033 A 
ATOM     19  C   UNL     1      -2.086  -3.681  -4.088  0.00  0.00    +0.127 A 
ATOM     20  C   UNL     1      -0.767  -3.402  -3.782  0.00  0.00    +0.038 A 
BRANCH  19  21
ATOM     21  N   UNL     1      -3.046  -3.992  -3.006  0.00  0.00    +0.056 N 
ATOM     22  O   UNL     1      -2.675  -4.002  -1.846  0.00  0.00    -0.126 OA
ATOM     23  O   UNL     1      -4.208  -4.238  -3.275  0.00  0.00    -0.126 OA
ENDBRANCH  19  21
ENDBRANCH   8  15
BRANCH   1  26
ATOM     24  C   UNL     1       0.032  -0.001   1.058  0.00  0.00    +0.128 C 
ATOM     25  N   UNL     1       0.131  -1.406   0.654  0.00  0.00    -0.314 N 
ATOM     26  C   UNL     1       0.697  -1.730  -0.525  0.00  0.00    +0.246 C 
ATOM     27  O   UNL     1       1.126  -0.857  -1.254  0.00  0.00    -0.270 OA
ATOM     28  H   UNL     1      -0.211  -2.103   1.236  0.00  0.00    +0.149 HD
ENDBRANCH   1  26
TORSDOF 3
