REMARK  Name = ZINC63440647
REMARK  10 active torsions:
REMARK  status: ('A' for Active; 'I' for Inactive)
REMARK    1  A    between atoms: C_1  and  C_2
REMARK    2  A    between atoms: C_2  and  O_3
REMARK    3  A    between atoms: O_3  and  C_4
REMARK    4  A    between atoms: C_4  and  C_6
REMARK    5  A    between atoms: C_8  and  N_18
REMARK    6  A    between atoms: C_11  and  O_16
REMARK    7  A    between atoms: O_16  and  C_17
REMARK    8  A    between atoms: N_18  and  C_19
REMARK    9  A    between atoms: C_19  and  N_21
REMARK   10  A    between atoms: N_24  and  C_27
REMARK                            x       y       z     vdW  Elec       q    Type
REMARK                         _______ _______ _______ _____ _____    ______ ____
ROOT
ATOM      1  C   UNL     1       0.167  -0.768  -1.792  0.00  0.00    +0.234 C 
ATOM      2  C   UNL     1      -0.595  -0.992  -3.079  0.00  0.00    +0.052 C 
ATOM      3  C   UNL     1      -1.933  -0.850  -2.753  0.00  0.00    +0.021 A 
ATOM      4  C   UNL     1      -3.119  -0.943  -3.522  0.00  0.00    +0.057 A 
ATOM      5  C   UNL     1      -4.325  -0.752  -2.925  0.00  0.00    +0.121 A 
ATOM      6  C   UNL     1      -4.428  -0.465  -1.558  0.00  0.00    +0.047 A 
ATOM      7  C   UNL     1      -3.335  -0.362  -0.764  0.00  0.00    +0.029 A 
ATOM      8  C   UNL     1      -2.041  -0.548  -1.316  0.00  0.00    +0.045 A 
ATOM      9  N   UNL     1      -0.843  -0.501  -0.763  0.00  0.00    -0.367 N 
ATOM     10  H   UNL     1      -0.659  -0.319   0.171  0.00  0.00    +0.161 HD
ENDROOT
BRANCH   1  11
ATOM     11  C   UNL     1       1.090   0.415  -1.934  0.00  0.00    +0.336 C 
ATOM     12  O   UNL     1       0.760   1.493  -1.500  0.00  0.00    -0.248 OA
BRANCH  11  13
ATOM     13  O   UNL     1       2.277   0.271  -2.543  0.00  0.00    -0.463 OA
BRANCH  13  15
ATOM     14  C   UNL     1       4.404   1.078  -3.360  0.00  0.00    +0.048 C 
ATOM     15  C   UNL     1       3.101   1.435  -2.642  0.00  0.00    +0.229 C 
ENDBRANCH  13  15
ENDBRANCH  11  13
ENDBRANCH   1  11
BRANCH   5  16
ATOM     16  O   UNL     1      -5.458  -0.843  -3.673  0.00  0.00    -0.495 OA
ATOM     17  C   UNL     1      -6.700  -0.634  -2.997  0.00  0.00    +0.277 C 
ENDBRANCH   5  16
BRANCH   2  18
ATOM     18  N   UNL     1      -0.074  -1.273  -4.305  0.00  0.00    -0.297 N 
ATOM     19  H   UNL     1       0.887  -1.282  -4.433  0.00  0.00    +0.154 HD
BRANCH  18  20
ATOM     20  C   UNL     1      -0.894  -1.538  -5.342  0.00  0.00    +0.137 C 
ATOM     21  S   UNL     1      -1.167  -3.158  -5.825  0.00  0.00    -0.018 S 
BRANCH  20  22
ATOM     22  N   UNL     1      -1.500  -0.528  -5.997  0.00  0.00    -0.316 N 
ATOM     23  C   UNL     1      -1.192   0.874  -5.677  0.00  0.00    +0.088 C 
ATOM     24  C   UNL     1      -0.872   1.611  -6.982  0.00  0.00    -0.059 C 
ATOM     25  N   UNL     1      -1.982   1.435  -7.927  0.00  0.00    +0.384 N 
ATOM     26  C   UNL     1      -2.107   0.018  -8.294  0.00  0.00    -0.059 C 
ATOM     27  C   UNL     1      -2.483  -0.797  -7.058  0.00  0.00    +0.088 C 
ATOM     28  H   UNL     1      -2.840   1.747  -7.498  0.00  0.00    -0.081 HD
BRANCH  25  29
ATOM     29  C   UNL     1      -1.726   2.231  -9.135  0.00  0.00    -0.068 C 
ATOM     30  C   UNL     1      -1.607   3.708  -8.756  0.00  0.00    -0.015 C 
ATOM     31  C   UNL     1      -1.339   4.537 -10.014  0.00  0.00    -0.002 C 
ATOM     32  C   UNL     1      -2.495   4.355 -11.000  0.00  0.00    -0.000 C 
ATOM     33  C   UNL     1      -2.614   2.877 -11.379  0.00  0.00    -0.002 C 
ATOM     34  C   UNL     1      -2.881   2.049 -10.121  0.00  0.00    -0.015 C 
ENDBRANCH  25  29
ENDBRANCH  20  22
ENDBRANCH  18  20
ENDBRANCH   2  18
TORSDOF 8
