REMARK  Name = ZINC06720439
REMARK  5 active torsions:
REMARK  status: ('A' for Active; 'I' for Inactive)
REMARK    1  A    between atoms: C_1  and  C_2
REMARK    2  A    between atoms: C_2  and  C_3
REMARK    3  A    between atoms: C_3  and  C_4
REMARK    4  A    between atoms: C_4  and  C_5
REMARK    5  A    between atoms: C_17  and  C_19
REMARK                            x       y       z     vdW  Elec       q    Type
REMARK                         _______ _______ _______ _____ _____    ______ ____
ROOT
ATOM      1  C   UNL     1      -0.694   1.558   3.746  0.00  0.00    +0.221 C 
ATOM      2  O   UNL     1      -1.691   2.243   3.648  0.00  0.00    -0.275 OA
ATOM      3  N   UNL     1      -0.218   1.232   4.964  0.00  0.00    -0.257 N 
ATOM      4  C   UNL     1       0.930   0.445   5.065  0.00  0.00    +0.058 A 
ATOM      5  C   UNL     1       0.950  -0.867   4.620  0.00  0.00    +0.025 A 
ATOM      6  C   UNL     1       2.096  -1.624   4.785  0.00  0.00    +0.002 A 
ATOM      7  C   UNL     1       3.214  -1.079   5.391  0.00  0.00    +0.002 A 
ATOM      8  C   UNL     1       3.203   0.236   5.821  0.00  0.00    +0.025 A 
ATOM      9  C   UNL     1       2.064   1.001   5.636  0.00  0.00    +0.053 A 
ATOM     10  N   UNL     1       2.023   2.356   5.939  0.00  0.00    -0.316 N 
ATOM     11  C   UNL     1       1.211   2.921   6.869  0.00  0.00    +0.017 C 
ATOM     12  C   UNL     1      -0.102   2.663   6.997  0.00  0.00    +0.038 C 
ATOM     13  C   UNL     1      -0.900   1.710   6.148  0.00  0.00    +0.153 C 
ATOM     14  C   UNL     1      -0.858   3.305   8.006  0.00  0.00    +0.163 C 
ATOM     15  O   UNL     1      -2.048   3.072   8.084  0.00  0.00    -0.292 OA
ATOM     16  C   UNL     1      -0.244   4.264   8.982  0.00  0.00    +0.080 C 
ATOM     17  C   UNL     1       1.233   3.894   9.166  0.00  0.00    +0.014 C 
ATOM     18  C   UNL     1       1.894   3.919   7.789  0.00  0.00    +0.051 C 
ATOM     19  H   UNL     1       2.619   2.943   5.448  0.00  0.00    +0.152 HD
ENDROOT
BRANCH  13  20
ATOM     20  C   UNL     1      -1.274   0.521   6.995  0.00  0.00    +0.015 A 
ATOM     21  C   UNL     1      -2.413   0.297   7.696  0.00  0.00    +0.013 A 
ATOM     22  C   UNL     1      -2.539  -0.880   8.410  0.00  0.00    +0.008 A 
ATOM     23  C   UNL     1      -1.521  -1.774   8.390  0.00  0.00    +0.045 A 
ATOM     24  S   UNL     1      -0.336  -0.960   7.331  0.00  0.00    -0.099 S 
ENDBRANCH  13  20
BRANCH   1  25
ATOM     25  C   UNL     1       0.011   1.072   2.506  0.00  0.00    +0.096 C 
BRANCH  25  26
ATOM     26  C   UNL     1      -0.729   1.579   1.267  0.00  0.00    +0.009 C 
BRANCH  26  28
ATOM     27  C   UNL     1      -0.753   1.593  -1.232  0.00  0.00    +0.004 C 
ATOM     28  C   UNL     1      -0.013   1.086   0.008  0.00  0.00    -0.003 C 
ENDBRANCH  26  28
ENDBRANCH  25  26
ENDBRANCH   1  25
TORSDOF 4
