REMARK  Name = ZINC02113684
REMARK  5 active torsions:
REMARK  status: ('A' for Active; 'I' for Inactive)
REMARK    1  A    between atoms: C_2  and  C_3
REMARK    2  A    between atoms: C_3  and  S_4
REMARK    3  A    between atoms: S_4  and  C_5
REMARK    4  A    between atoms: C_18  and  C_21
REMARK    5  A    between atoms: C_24  and  C_27
REMARK                            x       y       z     vdW  Elec       q    Type
REMARK                         _______ _______ _______ _____ _____    ______ ____
ROOT
ATOM      1  C   UNL     1       1.119  -0.664  -0.002  0.00  0.00    +0.213 A 
ATOM      2  N   UNL     1       2.295  -0.042  -0.002  0.00  0.00    -0.184 NA
ATOM      3  C   UNL     1       2.328   1.279  -0.008  0.00  0.00    +0.248 A 
ATOM      4  C   UNL     1       1.105   1.989  -0.018  0.00  0.00    +0.156 A 
ATOM      5  N   UNL     1      -0.031   1.310  -0.014  0.00  0.00    -0.141 NA
ATOM      6  N   UNL     1      -0.018   0.022  -0.006  0.00  0.00    -0.122 NA
ATOM      7  C   UNL     1       1.120   3.467  -0.038  0.00  0.00    +0.029 A 
ATOM      8  C   UNL     1       0.317   4.213   0.816  0.00  0.00    +0.027 A 
ATOM      9  C   UNL     1       0.335   5.593   0.744  0.00  0.00    +0.019 A 
ATOM     10  C   UNL     1       1.150   6.236  -0.174  0.00  0.00    +0.017 A 
ATOM     11  C   UNL     1       1.959   5.505  -1.024  0.00  0.00    +0.025 A 
ATOM     12  C   UNL     1       1.955   4.124  -0.960  0.00  0.00    +0.040 A 
ATOM     13  N   UNL     1       2.772   3.353  -1.794  0.00  0.00    -0.305 N 
ATOM     14  C   UNL     1       3.883   2.615  -1.203  0.00  0.00    +0.294 C 
ATOM     15  O   UNL     1       3.500   1.956  -0.001  0.00  0.00    -0.449 OA
ATOM     16 BR   UNL     1      -0.757   6.610   1.905  0.00  0.00    -0.050 Br
ATOM     17  H   UNL     1       2.603   3.311  -2.749  0.00  0.00    +0.150 HD
ENDROOT
BRANCH  14  18
ATOM     18  C   UNL     1       5.005   3.574  -0.901  0.00  0.00    +0.011 A 
ATOM     19  C   UNL     1       5.268   4.621  -1.767  0.00  0.00    +0.010 A 
ATOM     20  C   UNL     1       6.290   5.507  -1.494  0.00  0.00    +0.015 A 
ATOM     21  C   UNL     1       7.067   5.338  -0.346  0.00  0.00    +0.063 A 
ATOM     22  C   UNL     1       6.801   4.276   0.520  0.00  0.00    +0.015 A 
ATOM     23  C   UNL     1       5.772   3.401   0.238  0.00  0.00    +0.010 A 
BRANCH  21  24
ATOM     24  C   UNL     1       8.168   6.278  -0.051  0.00  0.00    +0.387 C 
ATOM     25  O   UNL     1       8.842   6.129   0.948  0.00  0.00    -0.241 OA
ATOM     26  O   UNL     1       8.422   7.302  -0.889  0.00  0.00    -0.241 OA
ENDBRANCH  21  24
ENDBRANCH  14  18
BRANCH   1  27
ATOM     27  S   UNL     1       1.069  -2.425   0.004  0.00  0.00    -0.080 S 
BRANCH  27  28
ATOM     28  C   UNL     1      -0.722  -2.689   0.002  0.00  0.00    +0.104 C 
BRANCH  28  30
ATOM     29  C   UNL     1      -1.610  -4.715   1.035  0.00  0.00    +0.005 C 
ATOM     30  C   UNL     1      -1.012  -4.168   0.006  0.00  0.00    -0.023 C 
ENDBRANCH  28  30
ENDBRANCH  27  28
ENDBRANCH   1  27
TORSDOF 5
