REMARK  Name = ZINC08837256
REMARK  6 active torsions:
REMARK  status: ('A' for Active; 'I' for Inactive)
REMARK    1  A    between atoms: C_1  and  O_2
REMARK    2  A    between atoms: O_2  and  C_3
REMARK    3  A    between atoms: C_6  and  C_19
REMARK    4  A    between atoms: C_8  and  C_9
REMARK    5  A    between atoms: C_9  and  N_10
REMARK    6  A    between atoms: CA_32  and  C_34
REMARK                            x       y       z     vdW  Elec       q    Type
REMARK                         _______ _______ _______ _____ _____    ______ ____
ROOT
ATOM      1  C   UNL     1       1.527   0.036   6.140  0.00  0.00    +0.008 C 
ATOM      2  C   UNL     1       0.481   0.165   7.222  0.00  0.00    +0.010 A 
ATOM      3  C   UNL     1      -0.174  -0.897   7.745  0.00  0.00    -0.021 A 
ATOM      4  C   UNL     1      -1.086  -0.387   8.744  0.00  0.00    +0.003 A 
ATOM      5  C   UNL     1      -2.005  -1.006   9.597  0.00  0.00    +0.010 A 
ATOM      6  C   UNL     1      -2.722  -0.189  10.436  0.00  0.00    +0.001 A 
ATOM      7  C   UNL     1      -2.554   1.186  10.446  0.00  0.00    +0.002 A 
ATOM      8  C   UNL     1      -1.651   1.825   9.614  0.00  0.00    +0.026 A 
ATOM      9  C   UNL     1      -0.909   1.022   8.751  0.00  0.00    +0.047 A 
ATOM     10  N   UNL     1       0.046   1.317   7.820  0.00  0.00    -0.359 N 
ATOM     11  H   UNL     1       0.367   2.208   7.613  0.00  0.00    +0.166 HD
ATOM     12  C   UNL     1       0.065  -2.319   7.306  0.00  0.00    +0.033 C 
ATOM     13  CA  UNL     1       0.820  -2.283   5.970  0.00  0.00    +0.049 C 
ATOM     14  N   UNL     1       1.977  -1.372   6.080  0.00  0.00    +0.396 N 
ATOM     15  H1  UNL     1       2.503  -1.595   6.933  0.00  0.00    -0.083 HD
ATOM     16  H2  UNL     1       2.584  -1.497   5.261  0.00  0.00    -0.083 HD
ENDROOT
BRANCH   1  20
ATOM     17  C   UNL     1      -0.149   1.182   2.380  0.00  0.00    +0.125 A 
ATOM     18  C   UNL     1       0.974   0.368   2.421  0.00  0.00    +0.046 A 
ATOM     19  C   UNL     1       1.517   0.004   3.638  0.00  0.00    +0.006 A 
ATOM     20  C   UNL     1       0.936   0.440   4.814  0.00  0.00    -0.055 A 
ATOM     21  C   UNL     1      -0.186   1.246   4.776  0.00  0.00    +0.011 A 
ATOM     22  C   UNL     1      -0.730   1.619   3.561  0.00  0.00    +0.016 A 
BRANCH  17  24
ATOM     23  C   UNL     1      -0.031   1.060   0.008  0.00  0.00    +0.277 C 
ATOM     24  O   UNL     1      -0.682   1.547   1.184  0.00  0.00    -0.495 OA
ENDBRANCH  17  24
BRANCH  22  25
ATOM     25  C   UNL     1      -1.954   2.497   3.520  0.00  0.00    +0.184 C 
BRANCH  25  26
ATOM     26  N   UNL     1      -1.553   3.880   3.249  0.00  0.00    -0.239 N 
ATOM     27  C   UNL     1      -1.424   4.473   2.016  0.00  0.00    +0.089 A 
ATOM     28  C   UNL     1      -1.603   4.033   0.709  0.00  0.00    +0.029 A 
ATOM     29  C   UNL     1      -1.388   4.891  -0.333  0.00  0.00    +0.002 A 
ATOM     30  C   UNL     1      -0.991   6.201  -0.098  0.00  0.00    +0.002 A 
ATOM     31  C   UNL     1      -0.807   6.657   1.175  0.00  0.00    +0.032 A 
ATOM     32  C   UNL     1      -1.022   5.797   2.260  0.00  0.00    +0.113 A 
ATOM     33  N   UNL     1      -0.924   5.956   3.595  0.00  0.00    -0.129 NA
ATOM     34  N   UNL     1      -1.232   4.862   4.198  0.00  0.00    -0.064 NA
ENDBRANCH  25  26
ENDBRANCH  22  25
ENDBRANCH   1  20
BRANCH  13  35
ATOM     35  C   UNL     1       1.312  -3.667   5.633  0.00  0.00    +0.343 C 
ATOM     36  O   UNL     1       2.463  -3.966   5.846  0.00  0.00    -0.248 OA
ATOM     37  OXT UNL     1       0.473  -4.566   5.097  0.00  0.00    -0.248 OA
ENDBRANCH  13  35
TORSDOF 5
