REMARK  Name = ZINC36609494
REMARK  14 active torsions:
REMARK  status: ('A' for Active; 'I' for Inactive)
REMARK    1  A    between atoms: C_1  and  C_2
REMARK    2  A    between atoms: C_2  and  C_3
REMARK    3  A    between atoms: C_2  and  C_4
REMARK    4  A    between atoms: C_2  and  N_5
REMARK    5  A    between atoms: C_6  and  C_8
REMARK    6  A    between atoms: C_8  and  C_10
REMARK    7  A    between atoms: C_8  and  N_19
REMARK    8  A    between atoms: C_13  and  O_18
REMARK    9  A    between atoms: C_14  and  O_16
REMARK   10  A    between atoms: O_16  and  C_17
REMARK   11  A    between atoms: N_19  and  C_20
REMARK   12  A    between atoms: C_26  and  C_28
REMARK   13  A    between atoms: C_30  and  N_35
REMARK   14  A    between atoms: C_33  and  O_34
REMARK                            x       y       z     vdW  Elec       q    Type
REMARK                         _______ _______ _______ _____ _____    ______ ____
ROOT
ATOM      1  N   UNL     1       3.566  -0.289  -2.839  0.00  0.00    -0.251 N 
ATOM      2  C   UNL     1       4.129  -1.403  -2.332  0.00  0.00    +0.255 C 
ATOM      3  O   UNL     1       5.031  -1.956  -2.931  0.00  0.00    -0.269 OA
ENDROOT
BRANCH   1   4
ATOM      4  C   UNL     1       4.132   0.334  -3.956  0.00  0.00    +0.038 A 
ATOM      5  C   UNL     1       5.301   1.073  -3.822  0.00  0.00    +0.023 A 
ATOM      6  C   UNL     1       5.858   1.687  -4.927  0.00  0.00    +0.002 A 
ATOM      7  C   UNL     1       5.253   1.567  -6.165  0.00  0.00    +0.000 A 
ATOM      8  C   UNL     1       4.089   0.833  -6.301  0.00  0.00    +0.002 A 
ATOM      9  C   UNL     1       3.530   0.211  -5.202  0.00  0.00    +0.023 A 
ENDBRANCH   1   4
BRANCH   2  10
ATOM     10  C   UNL     1       3.651  -1.953  -1.049  0.00  0.00    +0.081 A 
ATOM     11  C   UNL     1       2.382  -1.617  -0.570  0.00  0.00    +0.049 A 
ATOM     12  C   UNL     1       1.942  -2.134   0.629  0.00  0.00    +0.127 A 
ATOM     13  C   UNL     1       2.752  -2.985   1.363  0.00  0.00    +0.036 A 
ATOM     14  C   UNL     1       4.008  -3.324   0.902  0.00  0.00    +0.048 A 
ATOM     15  C   UNL     1       4.465  -2.818  -0.306  0.00  0.00    +0.129 A 
BRANCH  12  16
ATOM     16  N   UNL     1       0.597  -1.778   1.135  0.00  0.00    +0.056 N 
ATOM     17  O   UNL     1      -0.141  -1.096   0.462  0.00  0.00    -0.126 OA
ATOM     18  O   UNL     1       0.237  -2.168   2.221  0.00  0.00    -0.126 OA
ENDBRANCH  12  16
BRANCH  15  19
ATOM     19  O   UNL     1       5.697  -3.155  -0.763  0.00  0.00    -0.506 OA
ATOM     20  H   UNL     1       6.402  -2.561  -0.470  0.00  0.00    +0.292 HD
ENDBRANCH  15  19
ENDBRANCH   2  10
BRANCH   1  21
ATOM     21  C   UNL     1       2.360   0.269  -2.222  0.00  0.00    +0.198 C 
BRANCH  21  22
ATOM     22  C   UNL     1       1.964   1.530  -2.944  0.00  0.00    -0.014 A 
ATOM     23  C   UNL     1       2.748   2.664  -2.834  0.00  0.00    +0.010 A 
ATOM     24  C   UNL     1       2.388   3.824  -3.495  0.00  0.00    +0.049 A 
ATOM     25  C   UNL     1       1.240   3.852  -4.270  0.00  0.00    +0.158 A 
ATOM     26  C   UNL     1       0.451   2.711  -4.381  0.00  0.00    +0.162 A 
ATOM     27  C   UNL     1       0.820   1.550  -3.720  0.00  0.00    +0.055 A 
BRANCH  26  28
ATOM     28  O   UNL     1      -0.677   2.734  -5.140  0.00  0.00    -0.491 OA
ATOM     29  C   UNL     1      -1.438   1.526  -5.208  0.00  0.00    +0.277 C 
ENDBRANCH  26  28
BRANCH  25  30
ATOM     30  O   UNL     1       0.885   4.992  -4.920  0.00  0.00    -0.503 OA
ATOM     31  H   UNL     1       1.251   5.067  -5.812  0.00  0.00    +0.292 HD
ENDBRANCH  25  30
ENDBRANCH  21  22
BRANCH  21  33
ATOM     32  N   UNL     1       1.667   1.111  -0.002  0.00  0.00    -0.309 N 
ATOM     33  C   UNL     1       2.638   0.585  -0.774  0.00  0.00    +0.239 C 
ATOM     34  O   UNL     1       3.734   0.365  -0.305  0.00  0.00    -0.273 OA
ATOM     35  H   UNL     1       0.790   1.287  -0.377  0.00  0.00    +0.149 HD
BRANCH  32  37
ATOM     36  C   UNL     1       3.075   2.437   1.496  0.00  0.00    +0.031 C 
ATOM     37  C   UNL     1       1.937   1.418   1.405  0.00  0.00    +0.026 C 
ATOM     38  C   UNL     1       2.340   0.137   2.139  0.00  0.00    +0.031 C 
ATOM     39  C   UNL     1       0.678   2.001   2.050  0.00  0.00    +0.031 C 
ENDBRANCH  32  37
ENDBRANCH  21  33
ENDBRANCH   1  21
TORSDOF 10
