REMARK  Name = ZINC64138763
REMARK  9 active torsions:
REMARK  status: ('A' for Active; 'I' for Inactive)
REMARK    1  A    between atoms: C_1  and  C_2
REMARK    2  A    between atoms: C_2  and  C_4
REMARK    3  A    between atoms: C_2  and  N_7
REMARK    4  A    between atoms: C_8  and  C_10
REMARK    5  A    between atoms: C_10  and  S_11
REMARK    6  A    between atoms: S_11  and  C_12
REMARK    7  A    between atoms: C_16  and  C_24
REMARK    8  A    between atoms: N_17  and  C_18
REMARK    9  A    between atoms: C_18  and  C_19
REMARK                            x       y       z     vdW  Elec       q    Type
REMARK                         _______ _______ _______ _____ _____    ______ ____
ROOT
ATOM      1  C   UNL     1       0.216  -1.790   6.496  0.00  0.00    +0.237 C 
ATOM      2  N   UNL     1       1.243  -0.736   6.508  0.00  0.00    -0.237 N 
ATOM      3  N   UNL     1       2.469  -1.372   6.282  0.00  0.00    -0.169 NA
ATOM      4  C   UNL     1       2.315  -2.662   6.137  0.00  0.00    +0.147 C 
ATOM      5  N   UNL     1       0.969  -3.031   6.251  0.00  0.00    -0.278 N 
ATOM      6  H   UNL     1       1.099   0.214   6.645  0.00  0.00    +0.171 HD
ENDROOT
BRANCH   4   7
ATOM      7  C   UNL     1       3.364  -3.562   5.898  0.00  0.00    +0.022 C 
ATOM      8  C   UNL     1       4.730  -3.280   5.878  0.00  0.00    +0.006 A 
ATOM      9  C   UNL     1       5.460  -2.088   6.077  0.00  0.00    +0.010 A 
ATOM     10  C   UNL     1       6.816  -2.108   5.998  0.00  0.00    +0.001 A 
ATOM     11  C   UNL     1       7.515  -3.284   5.723  0.00  0.00    +0.002 A 
ATOM     12  C   UNL     1       6.879  -4.465   5.521  0.00  0.00    +0.026 A 
ATOM     13  C   UNL     1       5.463  -4.523   5.588  0.00  0.00    +0.043 A 
ATOM     14  N   UNL     1       4.623  -5.528   5.433  0.00  0.00    -0.380 N 
ATOM     15  C   UNL     1       3.251  -5.044   5.614  0.00  0.00    +0.152 C 
ATOM     16  H   UNL     1       4.874  -6.444   5.236  0.00  0.00    +0.160 HD
ENDBRANCH   4   7
BRANCH   1  17
ATOM     17  S   UNL     1      -0.978  -1.498   5.162  0.00  0.00    -0.109 S 
BRANCH  17  18
ATOM     18  C   UNL     1       0.045  -1.431   3.665  0.00  0.00    +0.168 C 
BRANCH  18  20
ATOM     19  N   UNL     1      -0.289  -1.103   1.236  0.00  0.00    -0.312 N 
ATOM     20  C   UNL     1      -0.835  -1.190   2.466  0.00  0.00    +0.223 C 
ATOM     21  O   UNL     1      -2.034  -1.075   2.607  0.00  0.00    -0.275 OA
ATOM     22  H   UNL     1       0.670  -1.195   1.124  0.00  0.00    +0.149 HD
BRANCH  19  24
ATOM     23  C   UNL     1      -1.387   0.633  -0.091  0.00  0.00    +0.028 C 
ATOM     24  C   UNL     1      -1.145  -0.869   0.070  0.00  0.00    +0.073 C 
BRANCH  24  25
ATOM     25  C   UNL     1      -0.457  -1.412  -1.184  0.00  0.00    +0.009 C 
ATOM     26  C   UNL     1       0.030  -0.395  -2.219  0.00  0.00    +0.005 C 
ATOM     27  C   UNL     1      -1.196  -1.262  -2.515  0.00  0.00    +0.005 C 
ENDBRANCH  24  25
ENDBRANCH  19  24
ENDBRANCH  18  20
ENDBRANCH  17  18
ENDBRANCH   1  17
BRANCH   5  28
ATOM     28  C   UNL     1       0.417  -4.384   6.147  0.00  0.00    +0.183 C 
BRANCH  28  29
ATOM     29  C   UNL     1       0.290  -4.982   7.525  0.00  0.00    +0.122 A 
ATOM     30  C   UNL     1      -0.745  -4.809   8.366  0.00  0.00    +0.046 A 
ATOM     31  C   UNL     1      -0.450  -5.544   9.537  0.00  0.00    +0.041 A 
ATOM     32  C   UNL     1       0.749  -6.122   9.342  0.00  0.00    +0.195 A 
ATOM     33  O   UNL     1       1.190  -5.784   8.119  0.00  0.00    -0.466 OA
ENDBRANCH  28  29
ENDBRANCH   5  28
TORSDOF 8
