REMARK  Name = ZINC18200299
REMARK  5 active torsions:
REMARK  status: ('A' for Active; 'I' for Inactive)
REMARK    1  A    between atoms: C_4  and  N_7
REMARK    2  A    between atoms: C_17  and  C_19
REMARK    3  A    between atoms: C_22  and  O_25
REMARK    4  A    between atoms: O_25  and  C_26
REMARK    5  A    between atoms: C_33  and  C_36
REMARK                            x       y       z     vdW  Elec       q    Type
REMARK                         _______ _______ _______ _____ _____    ______ ____
ROOT
ATOM      1  N   UNL     1       3.621  -0.650  -0.037  0.00  0.00    -0.218 N 
ATOM      2  C   UNL     1       3.782  -1.992  -0.051  0.00  0.00    +0.278 A 
ATOM      3  O   UNL     1       2.889  -2.821  -0.052  0.00  0.00    -0.265 OA
ATOM      4  C   UNL     1       5.151  -2.258  -0.066  0.00  0.00    +0.070 A 
ATOM      5  C   UNL     1       5.818  -1.059  -0.057  0.00  0.00    +0.125 A 
ATOM      6  N   UNL     1       4.895  -0.060  -0.048  0.00  0.00    -0.277 N 
ATOM      7  H   UNL     1       5.084   0.892  -0.046  0.00  0.00    +0.189 HD
ATOM      8  N   UNL     1       7.191  -1.002  -0.061  0.00  0.00    -0.303 N 
ATOM      9  C   UNL     1       7.901  -2.145   0.227  0.00  0.00    +0.017 C 
ATOM     10  C   UNL     1       7.331  -3.367   0.236  0.00  0.00    +0.024 C 
ATOM     11  C   UNL     1       5.868  -3.579  -0.089  0.00  0.00    +0.092 C 
ATOM     12  C   UNL     1       8.083  -4.514   0.555  0.00  0.00    +0.162 C 
ATOM     13  O   UNL     1       7.542  -5.602   0.540  0.00  0.00    -0.292 OA
ATOM     14  C   UNL     1       9.540  -4.424   0.915  0.00  0.00    +0.091 C 
ATOM     15  C   UNL     1       9.816  -3.049   1.531  0.00  0.00    +0.068 C 
ATOM     16  C   UNL     1       9.372  -1.978   0.533  0.00  0.00    +0.063 C 
ATOM     17  H   UNL     1       7.651  -0.173  -0.264  0.00  0.00    +0.153 HD
ENDROOT
BRANCH   1  21
ATOM     18  C   UNL     1      -0.017   1.379   0.010  0.00  0.00    +0.000 A 
ATOM     19  C   UNL     1       1.170   2.089   0.002  0.00  0.00    +0.002 A 
ATOM     20  C   UNL     1       2.377   1.420  -0.013  0.00  0.00    +0.028 A 
ATOM     21  C   UNL     1       2.400   0.031  -0.021  0.00  0.00    +0.067 A 
ATOM     22  C   UNL     1       1.206  -0.680  -0.013  0.00  0.00    +0.028 A 
ATOM     23  C   UNL     1       0.002  -0.004   0.002  0.00  0.00    +0.002 A 
ENDBRANCH   1  21
BRANCH  11  24
ATOM     24  C   UNL     1       5.742  -4.195  -1.459  0.00  0.00    -0.035 A 
ATOM     25  C   UNL     1       6.240  -3.529  -2.563  0.00  0.00    +0.008 A 
ATOM     26  C   UNL     1       6.125  -4.090  -3.820  0.00  0.00    +0.046 A 
ATOM     27  C   UNL     1       5.509  -5.324  -3.974  0.00  0.00    +0.130 A 
ATOM     28  C   UNL     1       5.010  -5.990  -2.864  0.00  0.00    +0.046 A 
ATOM     29  C   UNL     1       5.132  -5.427  -1.609  0.00  0.00    +0.008 A 
BRANCH  27  30
ATOM     30  O   UNL     1       5.395  -5.879  -5.209  0.00  0.00    -0.406 OA
BRANCH  30  31
ATOM     31  C   UNL     1       4.749  -7.151  -5.292  0.00  0.00    +0.575 C 
ATOM     32  F   UNL     1       3.442  -7.043  -4.805  0.00  0.00    -0.133 F 
ATOM     33  F   UNL     1       4.717  -7.572  -6.626  0.00  0.00    -0.133 F 
ATOM     34  F   UNL     1       5.456  -8.083  -4.525  0.00  0.00    -0.133 F 
ENDBRANCH  30  31
ENDBRANCH  27  30
ENDBRANCH  11  24
BRANCH  15  35
ATOM     35  C   UNL     1      11.289  -2.904   1.811  0.00  0.00    +0.109 A 
ATOM     36  C   UNL     1      11.843  -2.693   3.019  0.00  0.00    +0.045 A 
ATOM     37  C   UNL     1      13.241  -2.622   2.821  0.00  0.00    +0.041 A 
ATOM     38  C   UNL     1      13.458  -2.793   1.504  0.00  0.00    +0.195 A 
ATOM     39  O   UNL     1      12.273  -2.970   0.899  0.00  0.00    -0.468 OA
ENDBRANCH  15  35
TORSDOF 5
