REMARK  Name = ZINC41585372
REMARK  6 active torsions:
REMARK  status: ('A' for Active; 'I' for Inactive)
REMARK    1  A    between atoms: C_1  and  C_2
REMARK    2  A    between atoms: C_4  and  O_34
REMARK    3  A    between atoms: C_5  and  C_20
REMARK    4  A    between atoms: C_11  and  C_12
REMARK    5  A    between atoms: C_20  and  N_21
REMARK    6  A    between atoms: N_24  and  C_27
REMARK                            x       y       z     vdW  Elec       q    Type
REMARK                         _______ _______ _______ _____ _____    ______ ____
ROOT
ATOM      1  C   UNL     1      -0.082   1.509   0.016  0.00  0.00    +0.045 C 
ATOM      2  C   UNL     1      -0.072   0.003   0.006  0.00  0.00    -0.033 A 
ATOM      3  C   UNL     1      -0.095  -0.674  -1.181  0.00  0.00    +0.050 A 
ATOM      4  C   UNL     1      -0.086  -2.066  -1.193  0.00  0.00    +0.122 A 
ATOM      5  C   UNL     1      -0.054  -2.781  -0.006  0.00  0.00    +0.020 A 
ATOM      6  C   UNL     1      -0.031  -2.109   1.209  0.00  0.00    +0.145 A 
ATOM      7  C   UNL     1      -0.035  -0.704   1.208  0.00  0.00    +0.071 A 
ATOM      8  C   UNL     1       0.001  -0.288   2.622  0.00  0.00    +0.232 C 
ATOM      9  O   UNL     1       0.005   0.847   3.065  0.00  0.00    -0.283 OA
ATOM     10  C   UNL     1       0.030  -1.550   3.377  0.00  0.00    +0.176 C 
ATOM     11  C   UNL     1       0.068  -1.675   4.728  0.00  0.00    +0.058 C 
ATOM     12  O   UNL     1       0.002  -2.564   2.480  0.00  0.00    -0.451 OA
ENDROOT
BRANCH  11  13
ATOM     13  C   UNL     1      -0.019  -3.005   5.345  0.00  0.00    -0.021 A 
ATOM     14  C   UNL     1      -0.116  -3.130   6.736  0.00  0.00    +0.011 A 
ATOM     15  C   UNL     1      -0.197  -4.381   7.308  0.00  0.00    +0.039 A 
ATOM     16  C   UNL     1      -0.182  -5.515   6.509  0.00  0.00    +0.123 A 
ATOM     17  C   UNL     1      -0.086  -5.398   5.130  0.00  0.00    +0.039 A 
ATOM     18  C   UNL     1      -0.010  -4.154   4.544  0.00  0.00    +0.011 A 
ATOM     19  F   UNL     1      -0.262  -6.738   7.076  0.00  0.00    -0.205 F 
ENDBRANCH  11  13
BRANCH   4  20
ATOM     20  O   UNL     1      -0.109  -2.728  -2.377  0.00  0.00    -0.506 OA
ATOM     21  H   UNL     1       0.768  -2.914  -2.741  0.00  0.00    +0.292 HD
ENDBRANCH   4  20
BRANCH   5  22
ATOM     22  C   UNL     1      -0.045  -4.287  -0.035  0.00  0.00    -0.035 C 
BRANCH  22  23
ATOM     23  N   UNL     1       1.342  -4.769  -0.076  0.00  0.00    +0.385 N 
ATOM     24  C   UNL     1       1.968  -4.343  -1.334  0.00  0.00    -0.059 C 
ATOM     25  C   UNL     1       3.447  -4.744  -1.328  0.00  0.00    +0.086 C 
ATOM     26  N   UNL     1       3.537  -6.189  -1.063  0.00  0.00    -0.331 N 
ATOM     27  C   UNL     1       2.801  -6.729   0.090  0.00  0.00    +0.086 C 
ATOM     28  C   UNL     1       1.353  -6.234   0.017  0.00  0.00    -0.059 C 
ATOM     29  H   UNL     1       1.855  -4.379   0.701  0.00  0.00    -0.081 HD
BRANCH  26  30
ATOM     30  C   UNL     1       4.301  -7.024  -1.885  0.00  0.00    +0.065 A 
ATOM     31  C   UNL     1       5.637  -7.256  -1.591  0.00  0.00    +0.026 A 
ATOM     32  C   UNL     1       6.389  -8.082  -2.405  0.00  0.00    +0.002 A 
ATOM     33  C   UNL     1       5.812  -8.678  -3.511  0.00  0.00    +0.003 A 
ATOM     34  C   UNL     1       4.481  -8.450  -3.808  0.00  0.00    +0.040 A 
ATOM     35  C   UNL     1       3.721  -7.629  -2.995  0.00  0.00    +0.144 A 
ATOM     36  F   UNL     1       2.419  -7.410  -3.282  0.00  0.00    -0.204 F 
ENDBRANCH  26  30
ENDBRANCH  22  23
ENDBRANCH   5  22
TORSDOF 5
