REMARK  Name = ZINC37487463
REMARK  5 active torsions:
REMARK  status: ('A' for Active; 'I' for Inactive)
REMARK    1  A    between atoms: C_3  and  C_9
REMARK    2  A    between atoms: C_9  and  C_10
REMARK    3  A    between atoms: C_10  and  N_11
REMARK    4  A    between atoms: N_11  and  C_12
REMARK    5  A    between atoms: C_19  and  O_21
REMARK                            x       y       z     vdW  Elec       q    Type
REMARK                         _______ _______ _______ _____ _____    ______ ____
ROOT
ATOM      1  N   UNL     1       5.513   2.977   1.383  0.00  0.00    +0.384 N 
ATOM      2  H   UNL     1       6.170   2.527   0.763  0.00  0.00    -0.085 HD
ATOM      3  H   UNL     1       5.341   3.919   1.064  0.00  0.00    -0.085 HD
ENDROOT
BRANCH   1   4
ATOM      4  C   UNL     1       6.071   3.015   2.742  0.00  0.00    -0.020 C 
ATOM      5  C   UNL     1       5.093   3.788   3.655  0.00  0.00    +0.153 C 
ATOM      6  S   UNL     1       6.267   4.684   4.763  0.00  0.00    -0.030 S 
ATOM      7  O   UNL     1       5.727   5.957   5.088  0.00  0.00    -0.174 OA
ATOM      8  O   UNL     1       6.693   3.812   5.801  0.00  0.00    -0.174 OA
ATOM      9  C   UNL     1       7.633   4.894   3.539  0.00  0.00    +0.195 C 
ATOM     10  C   UNL     1       7.463   3.626   2.679  0.00  0.00    +0.123 C 
BRANCH  10  11
ATOM     11  O   UNL     1       7.755   3.955   1.319  0.00  0.00    -0.392 OA
ATOM     12  H   UNL     1       8.627   4.352   1.190  0.00  0.00    +0.210 HD
ENDBRANCH  10  11
ENDBRANCH   1   4
BRANCH   1  13
ATOM     13  C   UNL     1       4.252   2.224   1.392  0.00  0.00    -0.077 C 
BRANCH  13  14
ATOM     14  C   UNL     1       3.671   2.185  -0.023  0.00  0.00    +0.017 C 
BRANCH  14  17
ATOM     15  C   UNL     1      -0.017   1.379   0.010  0.00  0.00    +0.020 A 
ATOM     16  C   UNL     1       1.171   2.087   0.002  0.00  0.00    +0.006 A 
ATOM     17  C   UNL     1       2.377   1.413  -0.013  0.00  0.00    -0.031 A 
ATOM     18  C   UNL     1       2.397   0.029  -0.021  0.00  0.00    +0.045 A 
ATOM     19  C   UNL     1       1.210  -0.679  -0.013  0.00  0.00    +0.040 A 
ATOM     20  C   UNL     1       0.002  -0.004   0.002  0.00  0.00    +0.042 A 
ATOM     21 CL   UNL     1      -1.489  -0.893   0.012  0.00  0.00    -0.083 Cl
ATOM     22 CL   UNL     1       3.913  -0.817  -0.041  0.00  0.00    -0.083 Cl
ENDBRANCH  14  17
ENDBRANCH  13  14
ENDBRANCH   1  13
TORSDOF 5
