REMARK  Name = ZINC39578980
REMARK  8 active torsions:
REMARK  status: ('A' for Active; 'I' for Inactive)
REMARK    1  A    between atoms: C_1  and  O_2
REMARK    2  A    between atoms: O_2  and  C_3
REMARK    3  A    between atoms: C_5  and  C_10
REMARK    4  A    between atoms: C_8  and  O_9
REMARK    5  A    between atoms: N_11  and  N_12
REMARK    6  A    between atoms: C_13  and  C_15
REMARK    7  A    between atoms: C_18  and  C_21
REMARK    8  A    between atoms: C_24  and  C_27
REMARK                            x       y       z     vdW  Elec       q    Type
REMARK                         _______ _______ _______ _____ _____    ______ ____
ROOT
ATOM      1  C   UNL     1      -9.657   0.523   0.073  0.00  0.00    +0.240 C 
ATOM      2  C   UNL     1     -10.022   0.971  -1.331  0.00  0.00    +0.041 C 
ATOM      3  C   UNL     1     -11.213   0.382  -1.558  0.00  0.00    +0.092 C 
ATOM      4  N   UNL     1     -11.594  -0.349  -0.478  0.00  0.00    -0.153 NA
ATOM      5  N   UNL     1     -10.796  -0.324   0.466  0.00  0.00    -0.170 NA
ENDROOT
BRANCH   3   6
ATOM      6  C   UNL     1     -11.996   0.514  -2.811  0.00  0.00    +0.002 A 
ATOM      7  C   UNL     1     -11.506   1.288  -3.862  0.00  0.00    +0.010 A 
ATOM      8  C   UNL     1     -12.234   1.410  -5.025  0.00  0.00    +0.009 A 
ATOM      9  C   UNL     1     -13.461   0.760  -5.151  0.00  0.00    -0.018 A 
ATOM     10  C   UNL     1     -13.952  -0.014  -4.099  0.00  0.00    +0.009 A 
ATOM     11  C   UNL     1     -13.221  -0.141  -2.939  0.00  0.00    +0.010 A 
BRANCH   9  12
ATOM     12  C   UNL     1     -14.245   0.892  -6.403  0.00  0.00    -0.018 A 
ATOM     13  C   UNL     1     -13.755   1.660  -7.457  0.00  0.00    +0.008 A 
ATOM     14  C   UNL     1     -14.489   1.779  -8.620  0.00  0.00    +0.001 A 
ATOM     15  C   UNL     1     -15.708   1.137  -8.740  0.00  0.00    +0.000 A 
ATOM     16  C   UNL     1     -16.200   0.373  -7.697  0.00  0.00    +0.001 A 
ATOM     17  C   UNL     1     -15.472   0.243  -6.532  0.00  0.00    +0.008 A 
ENDBRANCH   9  12
ENDBRANCH   3   6
BRANCH   1  19
ATOM     18  N   UNL     1      -7.189   0.358   0.055  0.00  0.00    -0.205 N 
ATOM     19  C   UNL     1      -8.379  -0.275   0.062  0.00  0.00    +0.263 C 
ATOM     20  O   UNL     1      -8.421  -1.488   0.061  0.00  0.00    -0.271 OA
ATOM     21  H   UNL     1      -7.156   1.327   0.056  0.00  0.00    +0.177 HD
BRANCH  18  23
ATOM     22  C   UNL     1      -4.855   0.226   0.038  0.00  0.00    +0.138 C 
ATOM     23  N   UNL     1      -6.001  -0.384   0.045  0.00  0.00    -0.188 NA
BRANCH  22  26
ATOM     24  C   UNL     1      -1.201  -0.638   0.010  0.00  0.00    +0.162 A 
ATOM     25  C   UNL     1      -2.370   0.099   0.019  0.00  0.00    +0.058 A 
ATOM     26  C   UNL     1      -3.605  -0.555   0.027  0.00  0.00    -0.002 A 
ATOM     27  C   UNL     1      -3.651  -1.952   0.026  0.00  0.00    +0.013 A 
ATOM     28  C   UNL     1      -2.481  -2.680   0.016  0.00  0.00    +0.050 A 
ATOM     29  C   UNL     1      -1.255  -2.030   0.003  0.00  0.00    +0.158 A 
BRANCH  24  31
ATOM     30  C   UNL     1      -0.017   1.425   0.010  0.00  0.00    +0.277 C 
ATOM     31  O   UNL     1       0.002  -0.004   0.002  0.00  0.00    -0.491 OA
ENDBRANCH  24  31
BRANCH  29  32
ATOM     32  O   UNL     1      -0.104  -2.753  -0.012  0.00  0.00    -0.503 OA
ATOM     33  H   UNL     1       0.237  -2.967   0.867  0.00  0.00    +0.292 HD
ENDBRANCH  29  32
ENDBRANCH  22  26
ENDBRANCH  18  23
ENDBRANCH   1  19
TORSDOF 7
