REMARK  Name = ZINC25462853
REMARK  6 active torsions:
REMARK  status: ('A' for Active; 'I' for Inactive)
REMARK    1  A    between atoms: C_1  and  C_2
REMARK    2  A    between atoms: C_5  and  S_8
REMARK    3  A    between atoms: S_8  and  N_11
REMARK    4  A    between atoms: N_14  and  C_17
REMARK    5  A    between atoms: C_17  and  N_18
REMARK    6  A    between atoms: C_24  and  C_27
REMARK                            x       y       z     vdW  Elec       q    Type
REMARK                         _______ _______ _______ _____ _____    ______ ____
ROOT
ATOM      1  N   UNL     1      -0.897   1.885  -1.312  0.00  0.00    -0.174 NA
ATOM      2  C   UNL     1      -1.887   0.982  -1.919  0.00  0.00    +0.125 C 
ATOM      3  C   UNL     1      -3.215   1.745  -2.057  0.00  0.00    +0.103 C 
ATOM      4  N   UNL     1      -2.981   2.994  -2.793  0.00  0.00    -0.284 NA
ATOM      5  C   UNL     1      -2.076   3.886  -2.056  0.00  0.00    +0.103 C 
ATOM      6  C   UNL     1      -0.706   3.213  -1.915  0.00  0.00    +0.125 C 
ENDROOT
BRANCH   1   7
ATOM      7  S   UNL     1      -0.017   1.417   0.010  0.00  0.00    +0.061 S 
ATOM      8  O   UNL     1       0.002  -0.004   0.002  0.00  0.00    -0.153 OA
ATOM      9  O   UNL     1       1.172   2.195   0.003  0.00  0.00    -0.153 OA
BRANCH   7  14
ATOM     10  C   UNL     1      -3.131   3.072   4.906  0.00  0.00    +0.044 C 
ATOM     11  C   UNL     1      -2.353   2.659   3.683  0.00  0.00    -0.050 A 
ATOM     12  C   UNL     1      -2.559   1.412   3.121  0.00  0.00    +0.005 A 
ATOM     13  C   UNL     1      -1.846   1.033   2.000  0.00  0.00    +0.029 A 
ATOM     14  C   UNL     1      -0.927   1.900   1.439  0.00  0.00    +0.105 A 
ATOM     15  C   UNL     1      -0.717   3.145   2.004  0.00  0.00    +0.029 A 
ATOM     16  C   UNL     1      -1.434   3.526   3.123  0.00  0.00    +0.005 A 
ENDBRANCH   7  14
ENDBRANCH   1   7
BRANCH   4  17
ATOM     17  C   UNL     1      -4.250   3.669  -3.100  0.00  0.00    +0.205 C 
BRANCH  17  18
ATOM     18  N   UNL     1      -5.306   2.669  -3.270  0.00  0.00    -0.211 N 
ATOM     19  C   UNL     1      -6.085   2.211  -2.268  0.00  0.00    +0.248 C 
ATOM     20  O   UNL     1      -6.045   2.536  -1.100  0.00  0.00    -0.273 OA
ATOM     21  C   UNL     1      -7.018   1.208  -2.907  0.00  0.00    +0.113 C 
ATOM     22  C   UNL     1      -8.467   1.655  -2.750  0.00  0.00    +0.035 C 
ATOM     23  C   UNL     1      -9.393   0.641  -3.428  0.00  0.00    +0.006 C 
ATOM     24  C   UNL     1      -9.194  -0.735  -2.790  0.00  0.00    -0.014 C 
ATOM     25  C   UNL     1      -7.742  -1.180  -2.977  0.00  0.00    +0.006 C 
ATOM     26  C   UNL     1      -6.810  -0.174  -2.297  0.00  0.00    +0.035 C 
ATOM     27  C   UNL     1     -10.127  -1.746  -3.458  0.00  0.00    +0.007 C 
ATOM     28  N   UNL     1      -6.628   1.211  -4.322  0.00  0.00    -0.285 N 
ATOM     29  C   UNL     1      -5.623   2.100  -4.439  0.00  0.00    +0.310 C 
ATOM     30  O   UNL     1      -5.064   2.354  -5.488  0.00  0.00    -0.252 OA
ATOM     31  H   UNL     1      -7.148   0.557  -5.037  0.00  0.00    +0.151 HD
ENDBRANCH  17  18
ENDBRANCH   4  17
TORSDOF 4
