REMARK  Name = ZINC09213656
REMARK  12 active torsions:
REMARK  status: ('A' for Active; 'I' for Inactive)
REMARK    1  A    between atoms: C_1  and  C_2
REMARK    2  A    between atoms: C_5  and  S_9
REMARK    3  A    between atoms: C_7  and  C_8
REMARK    4  A    between atoms: S_9  and  C_10
REMARK    5  A    between atoms: C_10  and  C_11
REMARK    6  A    between atoms: C_11  and  O_13
REMARK    7  A    between atoms: O_13  and  C_14
REMARK    8  A    between atoms: C_14  and  C_16
REMARK    9  A    between atoms: C_14  and  C_17
REMARK   10  A    between atoms: N_19  and  C_20
REMARK   11  A    between atoms: C_23  and  S_26
REMARK   12  A    between atoms: S_26  and  N_29
REMARK                            x       y       z     vdW  Elec       q    Type
REMARK                         _______ _______ _______ _____ _____    ______ ____
ROOT
ATOM      1  C   UNL     1       0.807  -8.871  -4.489  0.00  0.00    +0.258 C 
ATOM      2  O   UNL     1       1.246  -8.039  -5.254  0.00  0.00    -0.271 OA
ATOM      3  N   UNL     1       0.948 -10.183  -4.766  0.00  0.00    -0.282 N 
ATOM      4  H   UNL     1       0.658 -10.848  -4.123  0.00  0.00    +0.155 HD
ENDROOT
BRANCH   3   5
ATOM      5  C   UNL     1       1.514 -10.584  -5.981  0.00  0.00    +0.034 A 
ATOM      6  C   UNL     1       1.053 -11.729  -6.619  0.00  0.00    +0.025 A 
ATOM      7  C   UNL     1       1.613 -12.122  -7.818  0.00  0.00    +0.030 A 
ATOM      8  C   UNL     1       2.631 -11.378  -8.385  0.00  0.00    +0.105 A 
ATOM      9  C   UNL     1       3.093 -10.238  -7.752  0.00  0.00    +0.030 A 
ATOM     10  C   UNL     1       2.533  -9.836  -6.556  0.00  0.00    +0.025 A 
BRANCH   8  11
ATOM     11  S   UNL     1       3.343 -11.883  -9.915  0.00  0.00    +0.056 S 
ATOM     12  O   UNL     1       4.648 -11.322  -9.961  0.00  0.00    -0.153 OA
ATOM     13  O   UNL     1       3.111 -13.280 -10.030  0.00  0.00    -0.153 OA
BRANCH  11  14
ATOM     14  N   UNL     1       2.473 -11.158 -11.123  0.00  0.00    -0.204 NA
ATOM     15  H   UNL     1       1.726 -10.579 -10.903  0.00  0.00    +0.144 HD
ATOM     16  H   UNL     1       2.710 -11.312 -12.051  0.00  0.00    +0.144 HD
ENDBRANCH  11  14
ENDBRANCH   8  11
ENDBRANCH   3   5
BRANCH   1  17
ATOM     17  C   UNL     1       0.105  -8.439  -3.228  0.00  0.00    +0.259 C 
ATOM     18  C   UNL     1      -1.330  -8.972  -3.235  0.00  0.00    +0.062 C 
BRANCH  17  19
ATOM     19  O   UNL     1       0.083  -7.012  -3.160  0.00  0.00    -0.452 OA
BRANCH  19  20
ATOM     20  C   UNL     1       0.088  -6.460  -1.936  0.00  0.00    +0.318 C 
ATOM     21  O   UNL     1       0.111  -7.165  -0.955  0.00  0.00    -0.250 OA
BRANCH  20  22
ATOM     22  C   UNL     1       0.066  -4.960  -1.786  0.00  0.00    +0.194 C 
BRANCH  22  23
ATOM     23  S   UNL     1       0.080  -4.529  -0.024  0.00  0.00    -0.114 S 
BRANCH  23  28
ATOM     24  C   UNL     1      -0.017   1.506   0.002  0.00  0.00    +0.044 C 
ATOM     25  C   UNL     1       0.007  -0.001  -0.005  0.00  0.00    -0.047 A 
ATOM     26  C   UNL     1       0.004  -0.685  -1.206  0.00  0.00    +0.005 A 
ATOM     27  C   UNL     1       0.027  -2.066  -1.216  0.00  0.00    +0.015 A 
ATOM     28  C   UNL     1       0.052  -2.767  -0.017  0.00  0.00    +0.009 A 
ATOM     29  C   UNL     1       0.054  -2.076   1.189  0.00  0.00    +0.018 A 
ATOM     30  C   UNL     1       0.038  -0.695   1.191  0.00  0.00    -0.046 A 
ATOM     31  C   UNL     1       0.047   0.056   2.497  0.00  0.00    +0.044 C 
ENDBRANCH  23  28
ENDBRANCH  22  23
ENDBRANCH  20  22
ENDBRANCH  19  20
ENDBRANCH  17  19
ENDBRANCH   1  17
TORSDOF 9
