REMARK  Name = ZINC49587869
REMARK  5 active torsions:
REMARK  status: ('A' for Active; 'I' for Inactive)
REMARK    1  A    between atoms: C_4  and  N_7
REMARK    2  A    between atoms: N_10  and  C_11
REMARK    3  A    between atoms: C_11  and  C_12
REMARK    4  A    between atoms: C_21  and  C_23
REMARK    5  A    between atoms: C_23  and  N_24
REMARK                            x       y       z     vdW  Elec       q    Type
REMARK                         _______ _______ _______ _____ _____    ______ ____
ROOT
ATOM      1  C   UNL     1       6.298  -4.586   0.331  0.00  0.00    -0.051 C 
ATOM      2  C   UNL     1       6.327  -6.116   0.318  0.00  0.00    -0.010 C 
ATOM      3  C   UNL     1       7.142  -6.585  -0.894  0.00  0.00    -0.012 C 
ATOM      4  C   UNL     1       8.563  -6.019  -0.771  0.00  0.00    -0.015 C 
ATOM      5  C   UNL     1       8.483  -4.492  -0.709  0.00  0.00    -0.078 C 
ATOM      6  N   UNL     1       7.051  -4.062  -0.811  0.00  0.00    +0.383 N 
ATOM      7  C   UNL     1       6.449  -4.505  -2.071  0.00  0.00    -0.073 C 
ATOM      8  C   UNL     1       6.486  -6.027  -2.164  0.00  0.00    -0.011 C 
ATOM      9  H   UNL     1       7.012  -3.054  -0.784  0.00  0.00    -0.081 HD
ENDROOT
BRANCH   1  10
ATOM     10  C   UNL     1       4.848  -4.106   0.247  0.00  0.00    +0.090 C 
BRANCH  10  14
ATOM     11  N   UNL     1       3.622  -0.651  -0.036  0.00  0.00    -0.269 N 
ATOM     12  C   UNL     1       3.645  -1.995   0.058  0.00  0.00    +0.304 C 
ATOM     13  O   UNL     1       2.603  -2.622   0.065  0.00  0.00    -0.253 OA
ATOM     14  N   UNL     1       4.823  -2.644   0.144  0.00  0.00    -0.301 N 
ATOM     15  H   UNL     1       4.452  -0.156  -0.120  0.00  0.00    +0.156 HD
ATOM     16  H   UNL     1       5.654  -2.144   0.139  0.00  0.00    +0.150 HD
BRANCH  11  20
ATOM     17  C   UNL     1      -0.015   1.381   0.031  0.00  0.00    +0.000 A 
ATOM     18  C   UNL     1       0.140   0.219   0.765  0.00  0.00    +0.002 A 
ATOM     19  C   UNL     1       1.344  -0.457   0.744  0.00  0.00    +0.023 A 
ATOM     20  C   UNL     1       2.400   0.031  -0.014  0.00  0.00    +0.035 A 
ATOM     21  C   UNL     1       2.241   1.198  -0.750  0.00  0.00    +0.023 A 
ATOM     22  C   UNL     1       1.034   1.870  -0.725  0.00  0.00    +0.002 A 
ENDBRANCH  11  20
ENDBRANCH  10  14
ENDBRANCH   1  10
BRANCH   8  23
ATOM     23  C   UNL     1       5.059  -6.566  -2.283  0.00  0.00    +0.086 C 
BRANCH  23  24
ATOM     24  N   UNL     1       4.474  -6.128  -3.557  0.00  0.00    -0.298 NA
ATOM     25  C   UNL     1       3.037  -6.443  -3.614  0.00  0.00    +0.089 C 
ATOM     26  C   UNL     1       2.413  -5.656  -4.767  0.00  0.00    +0.051 C 
ATOM     27  C   UNL     1       3.218  -5.862  -6.025  0.00  0.00    -0.042 A 
ATOM     28  C   UNL     1       2.638  -5.538  -7.242  0.00  0.00    +0.004 A 
ATOM     29  C   UNL     1       3.341  -5.708  -8.417  0.00  0.00    +0.000 A 
ATOM     30  C   UNL     1       4.632  -6.203  -8.381  0.00  0.00    +0.000 A 
ATOM     31  C   UNL     1       5.210  -6.527  -7.170  0.00  0.00    +0.005 A 
ATOM     32  C   UNL     1       4.503  -6.359  -5.988  0.00  0.00    -0.030 A 
ATOM     33  C   UNL     1       5.173  -6.737  -4.693  0.00  0.00    +0.119 C 
ENDBRANCH  23  24
ENDBRANCH   8  23
TORSDOF 5
