REMARK  Name = ZINC16394037
REMARK  9 active torsions:
REMARK  status: ('A' for Active; 'I' for Inactive)
REMARK    1  A    between atoms: C_1  and  C_2
REMARK    2  A    between atoms: C_2  and  C_3
REMARK    3  A    between atoms: C_3  and  C_37
REMARK    4  A    between atoms: N_15  and  C_29
REMARK    5  A    between atoms: N_18  and  N_19
REMARK    6  A    between atoms: C_20  and  C_22
REMARK    7  A    between atoms: C_22  and  C_23
REMARK    8  A    between atoms: C_29  and  C_30
REMARK    9  A    between atoms: C_30  and  C_31
REMARK                            x       y       z     vdW  Elec       q    Type
REMARK                         _______ _______ _______ _____ _____    ______ ____
ROOT
ATOM      1  C   UNL     1      -1.285  -0.779  -0.004  0.00  0.00    +0.004 C 
ATOM      2  C   UNL     1      -2.423  -0.112   0.764  0.00  0.00    +0.047 C 
ATOM      3  C   UNL     1      -2.552   1.334   0.368  0.00  0.00    -0.037 A 
ATOM      4  C   UNL     1      -3.794   1.932   0.306  0.00  0.00    +0.004 A 
ATOM      5  C   UNL     1      -3.905   3.263  -0.054  0.00  0.00    +0.000 A 
ATOM      6  C   UNL     1      -2.775   4.004  -0.355  0.00  0.00    +0.001 A 
ATOM      7  C   UNL     1      -1.527   3.416  -0.298  0.00  0.00    +0.010 A 
ATOM      8  C   UNL     1      -1.411   2.077   0.063  0.00  0.00    +0.004 A 
ATOM      9  C   UNL     1      -0.087   1.418   0.126  0.00  0.00    +0.084 A 
ATOM     10  C   UNL     1      -0.026   0.033   0.104  0.00  0.00    +0.049 A 
ATOM     11  C   UNL     1       1.228  -0.588   0.178  0.00  0.00    +0.260 A 
ATOM     12  O   UNL     1       1.322  -1.805   0.163  0.00  0.00    -0.267 OA
ATOM     13  N   UNL     1       2.330   0.188   0.265  0.00  0.00    -0.279 N 
ATOM     14  C   UNL     1       2.214   1.544   0.278  0.00  0.00    +0.216 A 
ATOM     15  N   UNL     1       1.039   2.135   0.210  0.00  0.00    -0.214 NA
ATOM     16  N   UNL     1       3.346   2.311   0.362  0.00  0.00    -0.234 N 
ATOM     17  C   UNL     1      -1.036  -2.174   0.573  0.00  0.00    +0.016 C 
ATOM     18  H   UNL     1       4.217   1.887   0.413  0.00  0.00    +0.173 HD
ENDROOT
BRANCH  16  19
ATOM     19  N   UNL     1       3.245   3.708   0.377  0.00  0.00    -0.234 N 
ATOM     20  C   UNL     1       4.359   4.463   0.460  0.00  0.00    +0.233 C 
ATOM     21  O   UNL     1       5.448   3.933   0.523  0.00  0.00    -0.274 OA
ATOM     22  H   UNL     1       2.374   4.132   0.326  0.00  0.00    +0.173 HD
BRANCH  20  23
ATOM     23  C   UNL     1       4.251   5.966   0.475  0.00  0.00    +0.132 C 
BRANCH  23  24
ATOM     24  C   UNL     1       5.629   6.568   0.574  0.00  0.00    -0.039 A 
ATOM     25  C   UNL     1       6.181   6.831   1.813  0.00  0.00    +0.004 A 
ATOM     26  C   UNL     1       7.447   7.379   1.904  0.00  0.00    +0.000 A 
ATOM     27  C   UNL     1       8.157   7.672   0.755  0.00  0.00    +0.000 A 
ATOM     28  C   UNL     1       7.603   7.414  -0.485  0.00  0.00    +0.000 A 
ATOM     29  C   UNL     1       6.339   6.861  -0.576  0.00  0.00    +0.004 A 
ENDBRANCH  23  24
ENDBRANCH  20  23
ENDBRANCH  16  19
BRANCH   1  31
ATOM     30  C   UNL     1      -0.552  -1.601  -2.247  0.00  0.00    +0.005 C 
ATOM     31  C   UNL     1      -1.678  -0.907  -1.477  0.00  0.00    +0.008 C 
ENDBRANCH   1  31
BRANCH  13  32
ATOM     32  C   UNL     1       3.654  -0.433   0.347  0.00  0.00    +0.133 C 
BRANCH  32  33
ATOM     33  C   UNL     1       4.215  -0.627  -1.063  0.00  0.00    +0.057 C 
BRANCH  33  34
ATOM     34  C   UNL     1       5.577  -1.266  -0.979  0.00  0.00    -0.046 A 
ATOM     35  C   UNL     1       6.707  -0.474  -0.895  0.00  0.00    +0.004 A 
ATOM     36  C   UNL     1       7.957  -1.059  -0.812  0.00  0.00    +0.000 A 
ATOM     37  C   UNL     1       8.077  -2.436  -0.824  0.00  0.00    +0.000 A 
ATOM     38  C   UNL     1       6.947  -3.228  -0.914  0.00  0.00    +0.000 A 
ATOM     39  C   UNL     1       5.697  -2.643  -0.991  0.00  0.00    +0.004 A 
ENDBRANCH  33  34
ENDBRANCH  32  33
ENDBRANCH  13  32
TORSDOF 7
