REMARK  Name = ZINC01619612
REMARK  13 active torsions:
REMARK  status: ('A' for Active; 'I' for Inactive)
REMARK    1  A    between atoms: C_1  and  N_65
REMARK    2  A    between atoms: C_6  and  O_32
REMARK    3  A    between atoms: C_7  and  O_30
REMARK    4  A    between atoms: C_10  and  C_12
REMARK    5  A    between atoms: C_12  and  C_13
REMARK    6  A    between atoms: C_15  and  O_22
REMARK    7  A    between atoms: C_16  and  O_20
REMARK    8  A    between atoms: C_18  and  N_19
REMARK    9  A    between atoms: O_20  and  C_21
REMARK   10  A    between atoms: O_22  and  C_23
REMARK   11  A    between atoms: C_23  and  C_24
REMARK   12  A    between atoms: O_30  and  C_31
REMARK   13  A    between atoms: O_32  and  C_33
REMARK                            x       y       z     vdW  Elec       q    Type
REMARK                         _______ _______ _______ _____ _____    ______ ____
ROOT
ATOM      1  C   UNL     1       1.845   6.125  -2.378  0.00  0.00    -0.024 A 
ATOM      2  C   UNL     1       1.317   7.011  -3.299  0.00  0.00    +0.054 A 
ATOM      3  C   UNL     1       2.159   7.768  -4.096  0.00  0.00    +0.163 A 
ATOM      4  C   UNL     1       3.539   7.637  -3.970  0.00  0.00    +0.163 A 
ATOM      5  C   UNL     1       4.068   6.750  -3.048  0.00  0.00    +0.072 A 
ATOM      6  C   UNL     1       3.221   5.996  -2.247  0.00  0.00    +0.031 A 
ENDROOT
BRANCH   6   7
ATOM      7  N   UNL     1       3.754   5.103  -1.310  0.00  0.00    -0.358 N 
ATOM      8  H   UNL     1       3.162   4.574  -0.753  0.00  0.00    +0.142 HD
ATOM      9  H   UNL     1       4.715   5.013  -1.219  0.00  0.00    +0.142 HD
ENDBRANCH   6   7
BRANCH   4  10
ATOM     10  O   UNL     1       4.367   8.380  -4.752  0.00  0.00    -0.491 OA
ATOM     11  C   UNL     1       5.772   8.195  -4.569  0.00  0.00    +0.277 C 
ENDBRANCH   4  10
BRANCH   1  12
ATOM     12  C   UNL     1       0.926   5.303  -1.512  0.00  0.00    +0.026 C 
BRANCH  12  22
ATOM     13  C   UNL     1       1.324   8.044  -0.630  0.00  0.00    -0.095 C 
ATOM     14  C   UNL     1       0.578   7.400   1.584  0.00  0.00    -0.074 C 
ATOM     15  C   UNL     1      -0.500   6.574   2.286  0.00  0.00    +0.017 C 
ATOM     16  C   UNL     1      -0.353   5.119   1.923  0.00  0.00    -0.044 A 
ATOM     17  C   UNL     1      -0.991   4.174   2.712  0.00  0.00    +0.053 A 
ATOM     18  C   UNL     1      -0.887   2.827   2.414  0.00  0.00    +0.162 A 
ATOM     19  C   UNL     1      -0.137   2.421   1.314  0.00  0.00    +0.162 A 
ATOM     20  C   UNL     1       0.503   3.367   0.533  0.00  0.00    +0.051 A 
ATOM     21  C   UNL     1       0.392   4.717   0.835  0.00  0.00    -0.054 A 
ATOM     22  C   UNL     1       1.108   5.707  -0.047  0.00  0.00    -0.033 C 
ATOM     23  N   UNL     1       0.547   7.054   0.148  0.00  0.00    +0.383 N 
ATOM     24  H   UNL     1      -0.427   7.062  -0.178  0.00  0.00    -0.081 HD
BRANCH  19  25
ATOM     25  O   UNL     1      -0.029   1.099   1.011  0.00  0.00    -0.491 OA
ATOM     26  C   UNL     1       0.757   0.758  -0.132  0.00  0.00    +0.277 C 
ENDBRANCH  19  25
BRANCH  18  27
ATOM     27  O   UNL     1      -1.514   1.904   3.192  0.00  0.00    -0.491 OA
ATOM     28  C   UNL     1      -2.265   2.396   4.304  0.00  0.00    +0.277 C 
ENDBRANCH  18  27
ENDBRANCH  12  22
ENDBRANCH   1  12
BRANCH   3  29
ATOM     29  O   UNL     1       1.637   8.639  -5.002  0.00  0.00    -0.484 OA
BRANCH  29  30
ATOM     30  C   UNL     1       0.213   8.722  -5.076  0.00  0.00    +0.264 C 
BRANCH  30  31
ATOM     31  C   UNL     1      -0.177   9.730  -6.126  0.00  0.00    -0.010 A 
ATOM     32  C   UNL     1      -0.355  11.056  -5.779  0.00  0.00    +0.007 A 
ATOM     33  C   UNL     1      -0.708  11.982  -6.742  0.00  0.00    +0.000 A 
ATOM     34  C   UNL     1      -0.893  11.580  -8.052  0.00  0.00    +0.000 A 
ATOM     35  C   UNL     1      -0.721  10.253  -8.399  0.00  0.00    +0.000 A 
ATOM     36  C   UNL     1      -0.363   9.328  -7.436  0.00  0.00    +0.007 A 
ENDBRANCH  30  31
ENDBRANCH  29  30
ENDBRANCH   3  29
TORSDOF 9
