REMARK  Name = ZINC31977557
REMARK  4 active torsions:
REMARK  status: ('A' for Active; 'I' for Inactive)
REMARK    1  A    between atoms: C_3  and  O_8
REMARK    2  A    between atoms: C_6  and  N_7
REMARK    3  A    between atoms: O_8  and  C_9
REMARK    4  A    between atoms: C_15  and  N_17
REMARK                            x       y       z     vdW  Elec       q    Type
REMARK                         _______ _______ _______ _____ _____    ______ ____
ROOT
ATOM      1  C   UNL     1      -0.752   3.117   1.275  0.00  0.00    +0.190 C 
ATOM      2  C   UNL     1      -0.746   1.608   1.528  0.00  0.00    +0.046 C 
ATOM      3  C   UNL     1       0.043   0.907   0.420  0.00  0.00    +0.004 C 
ATOM      4  C   UNL     1      -0.614   1.195  -0.932  0.00  0.00    +0.002 C 
ATOM      5  C   UNL     1      -0.620   2.703  -1.186  0.00  0.00    +0.022 C 
ATOM      6  C   UNL     1      -1.409   3.404  -0.077  0.00  0.00    +0.097 C 
ENDROOT
BRANCH   6   7
ATOM      7  N   UNL     1      -1.415   4.852  -0.321  0.00  0.00    -0.292 NA
ATOM      8  C   UNL     1      -2.091   5.567   0.771  0.00  0.00    +0.113 C 
ATOM      9  C   UNL     1      -2.022   7.074   0.507  0.00  0.00    +0.175 C 
ATOM     10  O   UNL     1      -2.605   7.356  -0.768  0.00  0.00    -0.377 OA
ATOM     11  C   UNL     1      -1.970   6.677  -1.855  0.00  0.00    +0.175 C 
ATOM     12  C   UNL     1      -2.039   5.166  -1.615  0.00  0.00    +0.113 C 
ENDBRANCH   6   7
BRANCH   1  13
ATOM     13  O   UNL     1       0.591   3.604   1.265  0.00  0.00    -0.487 OA
BRANCH  13  16
ATOM     14  C   UNL     1       1.015   3.950   4.862  0.00  0.00    +0.026 A 
ATOM     15  C   UNL     1       0.452   3.641   3.639  0.00  0.00    +0.047 A 
ATOM     16  C   UNL     1       1.145   3.910   2.469  0.00  0.00    +0.121 A 
ATOM     17  C   UNL     1       2.406   4.486   2.525  0.00  0.00    +0.047 A 
ATOM     18  C   UNL     1       2.967   4.802   3.746  0.00  0.00    +0.026 A 
ATOM     19  C   UNL     1       2.274   4.532   4.919  0.00  0.00    +0.025 A 
BRANCH  19  20
ATOM     20  N   UNL     1       2.845   4.846   6.158  0.00  0.00    -0.358 N 
ATOM     21  H   UNL     1       3.843   5.307   6.202  0.00  0.00    +0.142 HD
ATOM     22  H   UNL     1       2.296   4.632   7.087  0.00  0.00    +0.142 HD
ENDBRANCH  19  20
ENDBRANCH  13  16
ENDBRANCH   1  13
TORSDOF 4
