REMARK  Name = ZINC10154321
REMARK  15 active torsions:
REMARK  status: ('A' for Active; 'I' for Inactive)
REMARK    1  A    between atoms: C_1  and  C_2
REMARK    2  A    between atoms: C_2  and  C_3
REMARK    3  A    between atoms: C_3  and  C_4
REMARK    4  A    between atoms: C_4  and  O_5
REMARK    5  A    between atoms: O_5  and  C_6
REMARK    6  A    between atoms: C_11  and  C_12
REMARK    7  A    between atoms: N_14  and  C_15
REMARK    8  A    between atoms: C_15  and  N_17
REMARK    9  A    between atoms: N_17  and  N_18
REMARK   10  A    between atoms: C_19  and  C_21
REMARK   11  A    between atoms: C_21  and  C_23
REMARK   12  A    between atoms: C_21  and  O_24
REMARK   13  A    between atoms: O_24  and  C_25
REMARK   14  A    between atoms: C_28  and  C_32
REMARK   15  A    between atoms: C_29  and  C_31
REMARK                            x       y       z     vdW  Elec       q    Type
REMARK                         _______ _______ _______ _____ _____    ______ ____
ROOT
ATOM      1  C   UNL     1       3.942   6.193   0.463  0.00  0.00    +0.153 C 
ATOM      2  S   UNL     1       5.494   5.474   0.393  0.00  0.00    -0.017 S 
ENDROOT
BRANCH   1   5
ATOM      3  C   UNL     1       2.989   4.097   0.849  0.00  0.00    +0.253 C 
ATOM      4  O   UNL     1       4.091   3.587   0.799  0.00  0.00    -0.270 OA
ATOM      5  N   UNL     1       2.855   5.428   0.684  0.00  0.00    -0.263 N 
ATOM      6  H   UNL     1       1.975   5.835   0.724  0.00  0.00    +0.157 HD
BRANCH   3  12
ATOM      7  C   UNL     1       1.934   1.876   1.262  0.00  0.00    +0.133 A 
ATOM      8  C   UNL     1       0.808   1.098   1.488  0.00  0.00    +0.047 A 
ATOM      9  C   UNL     1      -0.440   1.685   1.538  0.00  0.00    +0.019 A 
ATOM     10  C   UNL     1      -0.578   3.055   1.373  0.00  0.00    +0.019 A 
ATOM     11  C   UNL     1       0.530   3.843   1.148  0.00  0.00    +0.032 A 
ATOM     12  C   UNL     1       1.799   3.260   1.090  0.00  0.00    +0.080 A 
ATOM     13 BR   UNL     1      -2.295   3.844   1.451  0.00  0.00    -0.050 Br
BRANCH   7  14
ATOM     14  O   UNL     1       3.161   1.299   1.208  0.00  0.00    -0.491 OA
BRANCH  14  15
ATOM     15  C   UNL     1       3.221  -0.117   1.391  0.00  0.00    +0.229 C 
BRANCH  15  16
ATOM     16  C   UNL     1       4.675  -0.582   1.297  0.00  0.00    +0.041 C 
BRANCH  16  18
ATOM     17  C   UNL     1       6.194  -2.564   1.400  0.00  0.00    +0.004 C 
ATOM     18  C   UNL     1       4.739  -2.098   1.494  0.00  0.00    -0.000 C 
ENDBRANCH  16  18
ENDBRANCH  15  16
ENDBRANCH  14  15
ENDBRANCH   7  14
ENDBRANCH   3  12
ENDBRANCH   1   5
BRANCH   1  19
ATOM     19  N   UNL     1       3.808   7.524   0.298  0.00  0.00    -0.245 N 
ATOM     20  H   UNL     1       4.591   8.074   0.140  0.00  0.00    +0.172 HD
BRANCH  19  21
ATOM     21  N   UNL     1       2.538   8.112   0.356  0.00  0.00    -0.232 N 
ATOM     22  C   UNL     1       2.403   9.443   0.191  0.00  0.00    +0.270 C 
ATOM     23  O   UNL     1       3.382  10.131  -0.007  0.00  0.00    -0.270 OA
ATOM     24  H   UNL     1       1.755   7.561   0.515  0.00  0.00    +0.173 HD
BRANCH  22  25
ATOM     25  C   UNL     1       1.037  10.076   0.253  0.00  0.00    +0.257 C 
ATOM     26  C   UNL     1       0.187   9.569  -0.913  0.00  0.00    +0.062 C 
BRANCH  25  27
ATOM     27  O   UNL     1       1.166  11.496   0.167  0.00  0.00    -0.480 OA
BRANCH  27  28
ATOM     28  C   UNL     1       0.166  12.240   0.709  0.00  0.00    +0.122 A 
ATOM     29  C   UNL     1      -0.969  11.620   1.210  0.00  0.00    +0.046 A 
ATOM     30  C   UNL     1      -1.984  12.378   1.760  0.00  0.00    +0.007 A 
ATOM     31  C   UNL     1      -1.869  13.755   1.813  0.00  0.00    -0.047 A 
ATOM     32  C   UNL     1      -0.738  14.376   1.315  0.00  0.00    -0.044 A 
ATOM     33  C   UNL     1       0.281  13.621   0.768  0.00  0.00    +0.049 A 
ATOM     34  C   UNL     1      -0.616  15.877   1.374  0.00  0.00    +0.044 C 
ATOM     35  C   UNL     1      -2.977  14.580   2.414  0.00  0.00    +0.044 C 
ENDBRANCH  27  28
ENDBRANCH  25  27
ENDBRANCH  22  25
ENDBRANCH  19  21
ENDBRANCH   1  19
TORSDOF 11
