REMARK  Name = ZINC12026716
REMARK  9 active torsions:
REMARK  status: ('A' for Active; 'I' for Inactive)
REMARK    1  A    between atoms: C_1  and  C_2
REMARK    2  A    between atoms: C_2  and  C_3
REMARK    3  A    between atoms: C_2  and  C_4
REMARK    4  A    between atoms: C_4  and  C_5
REMARK    5  A    between atoms: C_5  and  C_7
REMARK    6  A    between atoms: C_5  and  O_30
REMARK    7  A    between atoms: C_17  and  C_18
REMARK    8  A    between atoms: C_17  and  N_58
REMARK    9  A    between atoms: N_21  and  C_23
REMARK                            x       y       z     vdW  Elec       q    Type
REMARK                         _______ _______ _______ _____ _____    ______ ____
ROOT
ATOM      1  C   UNL     1      -1.149   1.668   0.003  0.00  0.00    -0.019 A 
ATOM      2  C   UNL     1      -1.120   3.045  -0.126  0.00  0.00    +0.010 A 
ATOM      3  C   UNL     1       0.087   3.718  -0.128  0.00  0.00    +0.046 A 
ATOM      4  C   UNL     1       1.271   3.007   0.008  0.00  0.00    +0.122 A 
ATOM      5  C   UNL     1       1.237   1.631   0.127  0.00  0.00    -0.022 A 
ATOM      6  C   UNL     1       0.033   0.958   0.131  0.00  0.00    +0.011 A 
ATOM      7  C   UNL     1       2.540   0.862   0.232  0.00  0.00    -0.039 C 
ATOM      8  C   UNL     1       3.962   2.402   1.472  0.00  0.00    -0.036 C 
ATOM      9  C   UNL     1       3.129   3.655   1.312  0.00  0.00    +0.210 C 
ATOM     10  O   UNL     1       2.462   3.664   0.044  0.00  0.00    -0.494 OA
ATOM     11  N   UNL     1       3.145   1.173   1.549  0.00  0.00    +0.387 N 
ATOM     12  H   UNL     1       2.392   1.320   2.231  0.00  0.00    -0.081 HD
ENDROOT
BRANCH   1  13
ATOM     13  C   UNL     1      -2.468   0.940   0.009  0.00  0.00    +0.145 C 
BRANCH  13  14
ATOM     14  O   UNL     1      -3.454   1.746   0.658  0.00  0.00    -0.387 OA
ATOM     15  H   UNL     1      -3.602   2.603   0.235  0.00  0.00    +0.210 HD
ENDBRANCH  13  14
BRANCH  13  16
ATOM     16  C   UNL     1      -2.904   0.663  -1.432  0.00  0.00    +0.039 C 
BRANCH  16  18
ATOM     17  C   UNL     1      -4.715  -0.301  -2.857  0.00  0.00    +0.007 C 
ATOM     18  C   UNL     1      -4.201  -0.149  -1.425  0.00  0.00    -0.014 C 
ATOM     19  C   UNL     1      -3.932  -1.533  -0.829  0.00  0.00    +0.007 C 
ENDBRANCH  16  18
ENDBRANCH  13  16
ENDBRANCH   1  13
BRANCH  11  20
ATOM     20  C   UNL     1       3.979   0.046   1.998  0.00  0.00    -0.039 C 
BRANCH  20  21
ATOM     21  C   UNL     1       4.408   0.302   3.420  0.00  0.00    -0.026 A 
ATOM     22  C   UNL     1       5.582   0.948   3.821  0.00  0.00    +0.136 A 
ATOM     23  N   UNL     1       5.602   0.985   5.130  0.00  0.00    -0.175 NA
ATOM     24  N   UNL     1       4.445   0.354   5.603  0.00  0.00    -0.240 N 
ATOM     25  C   UNL     1       3.728  -0.057   4.533  0.00  0.00    +0.116 A 
BRANCH  24  26
ATOM     26  C   UNL     1       4.092   0.179   6.949  0.00  0.00    +0.066 A 
ATOM     27  C   UNL     1       2.906  -0.463   7.280  0.00  0.00    +0.030 A 
ATOM     28  C   UNL     1       2.564  -0.639   8.606  0.00  0.00    +0.040 A 
ATOM     29  C   UNL     1       3.397  -0.166   9.606  0.00  0.00    +0.124 A 
ATOM     30  C   UNL     1       4.577   0.479   9.278  0.00  0.00    +0.040 A 
ATOM     31  C   UNL     1       4.926   0.653   7.954  0.00  0.00    +0.030 A 
ATOM     32  F   UNL     1       3.057  -0.335  10.903  0.00  0.00    -0.205 F 
ENDBRANCH  24  26
ENDBRANCH  20  21
ENDBRANCH  11  20
TORSDOF 7
