REMARK  Name = ZINC20175759
REMARK  9 active torsions:
REMARK  status: ('A' for Active; 'I' for Inactive)
REMARK    1  A    between atoms: C_1  and  C_2
REMARK    2  A    between atoms: C_2  and  O_3
REMARK    3  A    between atoms: O_3  and  C_4
REMARK    4  A    between atoms: C_6  and  C_11
REMARK    5  A    between atoms: C_9  and  O_10
REMARK    6  A    between atoms: N_12  and  N_13
REMARK    7  A    between atoms: C_16  and  S_19
REMARK    8  A    between atoms: S_19  and  C_20
REMARK    9  A    between atoms: C_20  and  C_21
REMARK                            x       y       z     vdW  Elec       q    Type
REMARK                         _______ _______ _______ _____ _____    ______ ____
ROOT
ATOM      1  N   UNL     1      -1.150   2.163   0.019  0.00  0.00    -0.205 N 
ATOM      2  C   UNL     1      -0.017   1.363   0.009  0.00  0.00    +0.232 A 
ATOM      3  N   UNL     1       0.002  -0.004   0.002  0.00  0.00    -0.186 NA
ATOM      4  C   UNL     1       1.307  -0.408  -0.013  0.00  0.00    +0.210 A 
ATOM      5  N   UNL     1       2.063   0.663  -0.014  0.00  0.00    -0.144 NA
ATOM      6  N   UNL     1       1.225   1.785   0.000  0.00  0.00    -0.245 N 
ATOM      7  H   UNL     1      -2.148   1.702   0.022  0.00  0.00    +0.177 HD
ATOM      8  H   UNL     1       1.439   2.864   0.004  0.00  0.00    +0.192 HD
ENDROOT
BRANCH   1  10
ATOM      9  C   UNL     1      -2.083   4.307   0.036  0.00  0.00    +0.138 C 
ATOM     10  N   UNL     1      -1.022   3.558   0.026  0.00  0.00    -0.188 NA
BRANCH   9  13
ATOM     11  C   UNL     1      -2.957   7.959   0.060  0.00  0.00    +0.162 A 
ATOM     12  C   UNL     1      -3.089   6.583   0.053  0.00  0.00    +0.059 A 
ATOM     13  C   UNL     1      -1.949   5.775   0.043  0.00  0.00    -0.002 A 
ATOM     14  C   UNL     1      -0.681   6.363   0.046  0.00  0.00    +0.013 A 
ATOM     15  C   UNL     1      -0.558   7.736   0.048  0.00  0.00    +0.050 A 
ATOM     16  C   UNL     1      -1.690   8.538   0.058  0.00  0.00    +0.158 A 
BRANCH  16  17
ATOM     17  O   UNL     1      -1.563   9.891   0.065  0.00  0.00    -0.503 OA
ATOM     18  H   UNL     1      -0.563  10.350   0.063  0.00  0.00    +0.292 HD
ENDBRANCH  16  17
BRANCH  11  19
ATOM     19  O   UNL     1      -4.065   8.748   0.070  0.00  0.00    -0.489 OA
BRANCH  19  21
ATOM     20  C   UNL     1      -6.451   9.131   0.082  0.00  0.00    +0.048 C 
ATOM     21  C   UNL     1      -5.332   8.087   0.071  0.00  0.00    +0.226 C 
ENDBRANCH  19  21
ENDBRANCH  11  19
ENDBRANCH   9  13
ENDBRANCH   1  10
BRANCH   4  22
ATOM     22  S   UNL     1       1.874  -2.077  -0.027  0.00  0.00    -0.080 S 
BRANCH  22  23
ATOM     23  C   UNL     1       3.681  -1.926  -0.043  0.00  0.00    +0.112 C 
BRANCH  23  24
ATOM     24  C   UNL     1       4.300  -3.300  -0.057  0.00  0.00    -0.036 A 
ATOM     25  C   UNL     1       4.600  -3.934   1.135  0.00  0.00    +0.006 A 
ATOM     26  C   UNL     1       5.163  -5.196   1.124  0.00  0.00    +0.022 A 
ATOM     27  C   UNL     1       5.436  -5.822  -0.080  0.00  0.00    +0.059 A 
ATOM     28  C   UNL     1       5.140  -5.185  -1.272  0.00  0.00    +0.060 A 
ATOM     29  C   UNL     1       4.572  -3.923  -1.260  0.00  0.00    +0.026 A 
ATOM     30 CL   UNL     1       5.482  -5.968  -2.784  0.00  0.00    -0.082 Cl
ATOM     31 CL   UNL     1       6.148  -7.405  -0.094  0.00  0.00    -0.082 Cl
ENDBRANCH  23  24
ENDBRANCH  22  23
ENDBRANCH   4  22
TORSDOF 8
