REMARK  Name = ZINC40529939
REMARK  11 active torsions:
REMARK  status: ('A' for Active; 'I' for Inactive)
REMARK    1  A    between atoms: C_2  and  C_3
REMARK    2  A    between atoms: C_3  and  O_4
REMARK    3  A    between atoms: O_4  and  C_5
REMARK    4  A    between atoms: C_9  and  C_11
REMARK    5  A    between atoms: C_16  and  O_25
REMARK    6  A    between atoms: C_20  and  N_24
REMARK    7  A    between atoms: C_21  and  C_22
REMARK    8  A    between atoms: O_25  and  C_26
REMARK    9  A    between atoms: C_26  and  C_28
REMARK   10  A    between atoms: C_28  and  C_29
REMARK   11  A    between atoms: C_28  and  C_35
REMARK                            x       y       z     vdW  Elec       q    Type
REMARK                         _______ _______ _______ _____ _____    ______ ____
ROOT
ATOM      1  C   UNL     1       3.542  -2.826   2.968  0.00  0.00    +0.098 C 
ATOM      2  C   UNL     1       4.628  -3.106   3.973  0.00  0.00    +0.008 A 
ATOM      3  C   UNL     1       4.760  -2.286   5.079  0.00  0.00    +0.012 A 
ATOM      4  C   UNL     1       5.750  -2.527   6.010  0.00  0.00    +0.047 A 
ATOM      5  C   UNL     1       6.618  -3.596   5.838  0.00  0.00    +0.135 A 
ATOM      6  C   UNL     1       6.489  -4.420   4.732  0.00  0.00    +0.093 A 
ATOM      7  C   UNL     1       5.493  -4.175   3.795  0.00  0.00    +0.138 A 
ATOM      8  O   UNL     1       5.379  -4.990   2.718  0.00  0.00    -0.441 OA
ATOM      9  C   UNL     1       4.230  -5.026   2.023  0.00  0.00    +0.199 C 
ATOM     10  C   UNL     1       3.320  -4.031   2.098  0.00  0.00    +0.098 C 
ENDROOT
BRANCH   1  15
ATOM     11  C   UNL     1       3.543   0.561   1.293  0.00  0.00    +0.121 A 
ATOM     12  C   UNL     1       4.696   0.487   0.525  0.00  0.00    +0.045 A 
ATOM     13  C   UNL     1       5.469  -0.657   0.551  0.00  0.00    +0.004 A 
ATOM     14  C   UNL     1       5.095  -1.728   1.342  0.00  0.00    +0.005 A 
ATOM     15  C   UNL     1       3.947  -1.657   2.108  0.00  0.00    -0.031 A 
ATOM     16  C   UNL     1       3.173  -0.512   2.090  0.00  0.00    +0.050 A 
BRANCH  11  17
ATOM     17  O   UNL     1       2.781   1.686   1.269  0.00  0.00    -0.488 OA
BRANCH  17  18
ATOM     18  C   UNL     1       3.223   2.752   0.426  0.00  0.00    +0.256 C 
BRANCH  18  20
ATOM     19  C   UNL     1       2.714   5.128   0.660  0.00  0.00    +0.007 C 
ATOM     20  C   UNL     1       2.260   3.906   0.529  0.00  0.00    +0.006 C 
ENDBRANCH  18  20
ENDBRANCH  17  18
ENDBRANCH  11  17
ENDBRANCH   1  15
BRANCH   9  21
ATOM     21  N   UNL     1       3.975  -6.104   1.212  0.00  0.00    -0.328 N 
ATOM     22  H   UNL     1       4.621  -6.825   1.148  0.00  0.00    +0.145 HD
ATOM     23  H   UNL     1       3.150  -6.145   0.705  0.00  0.00    +0.145 HD
ENDBRANCH   9  21
BRANCH  10  24
ATOM     24  C   UNL     1       2.114  -4.130   1.331  0.00  0.00    +0.101 C 
ATOM     25  N   UNL     1       1.158  -4.208   0.722  0.00  0.00    -0.191 NA
ENDBRANCH  10  24
BRANCH   5  26
ATOM     26  O   UNL     1       7.594  -3.835   6.754  0.00  0.00    -0.425 OA
BRANCH  26  27
ATOM     27  C   UNL     1       8.868  -3.624   6.387  0.00  0.00    +0.324 C 
ATOM     28  O   UNL     1       9.114  -3.137   5.309  0.00  0.00    -0.249 OA
BRANCH  27  29
ATOM     29  C   UNL     1       9.992  -3.996   7.320  0.00  0.00    +0.158 C 
BRANCH  29  30
ATOM     30  C   UNL     1      11.312  -3.660   6.675  0.00  0.00    -0.029 A 
ATOM     31  C   UNL     1      12.284  -4.633   6.543  0.00  0.00    +0.005 A 
ATOM     32  C   UNL     1      13.495  -4.325   5.951  0.00  0.00    +0.000 A 
ATOM     33  C   UNL     1      13.733  -3.043   5.491  0.00  0.00    +0.000 A 
ATOM     34  C   UNL     1      12.760  -2.070   5.622  0.00  0.00    +0.000 A 
ATOM     35  C   UNL     1      11.548  -2.380   6.210  0.00  0.00    +0.005 A 
ENDBRANCH  29  30
BRANCH  29  36
ATOM     36  C   UNL     1       9.852  -3.226   8.607  0.00  0.00    -0.029 A 
ATOM     37  C   UNL     1       9.683  -1.854   8.578  0.00  0.00    +0.005 A 
ATOM     38  C   UNL     1       9.554  -1.147   9.759  0.00  0.00    +0.000 A 
ATOM     39  C   UNL     1       9.594  -1.813  10.970  0.00  0.00    +0.000 A 
ATOM     40  C   UNL     1       9.761  -3.185  11.000  0.00  0.00    +0.000 A 
ATOM     41  C   UNL     1       9.886  -3.892   9.818  0.00  0.00    +0.005 A 
ENDBRANCH  29  36
ENDBRANCH  27  29
ENDBRANCH  26  27
ENDBRANCH   5  26
TORSDOF 11
