REMARK  Name = ZINC10106370
REMARK  6 active torsions:
REMARK  status: ('A' for Active; 'I' for Inactive)
REMARK    1  A    between atoms: C_1  and  C_2
REMARK    2  A    between atoms: C_2  and  C_3
REMARK    3  A    between atoms: N_11  and  C_12
REMARK    4  A    between atoms: C_12  and  C_14
REMARK    5  A    between atoms: N_20  and  C_21
REMARK    6  A    between atoms: C_21  and  C_22
REMARK                            x       y       z     vdW  Elec       q    Type
REMARK                         _______ _______ _______ _____ _____    ______ ____
ROOT
ATOM      1  C   UNL     1       4.246   2.979   0.389  0.00  0.00    -0.046 A 
ATOM      2  C   UNL     1       4.782   1.707   0.290  0.00  0.00    +0.006 A 
ATOM      3  C   UNL     1       3.979   0.606   0.110  0.00  0.00    +0.027 A 
ATOM      4  C   UNL     1       2.584   0.743   0.019  0.00  0.00    +0.058 A 
ATOM      5  C   UNL     1       2.070   2.043   0.123  0.00  0.00    +0.039 A 
ATOM      6  C   UNL     1       2.874   3.143   0.303  0.00  0.00    +0.020 A 
ATOM      7  S   UNL     1       0.318   1.801  -0.037  0.00  0.00    -0.052 S 
ATOM      8  C   UNL     1       0.317   0.077  -0.226  0.00  0.00    +0.167 A 
ATOM      9  N   UNL     1      -0.725  -0.734  -0.395  0.00  0.00    -0.154 NA
ATOM     10  N   UNL     1       1.635  -0.246  -0.161  0.00  0.00    -0.317 N 
ENDROOT
BRANCH   1  12
ATOM     11  C   UNL     1       5.556   4.732  -0.777  0.00  0.00    +0.009 C 
ATOM     12  C   UNL     1       5.145   4.173   0.586  0.00  0.00    +0.032 C 
ENDBRANCH   1  12
BRANCH   9  13
ATOM     13  C   UNL     1      -0.558  -2.051  -0.332  0.00  0.00    +0.267 C 
ATOM     14  O   UNL     1      -0.221  -2.572   0.713  0.00  0.00    -0.271 OA
BRANCH  13  15
ATOM     15  C   UNL     1      -0.788  -2.898  -1.557  0.00  0.00    +0.206 C 
ATOM     16  C   UNL     1      -2.277  -2.842  -1.961  0.00  0.00    +0.043 C 
ATOM     17  C   UNL     1      -2.557  -4.307  -2.395  0.00  0.00    +0.031 C 
ATOM     18  C   UNL     1      -1.640  -5.083  -1.417  0.00  0.00    +0.161 C 
ATOM     19  O   UNL     1      -0.469  -4.265  -1.269  0.00  0.00    -0.367 OA
ENDBRANCH  13  15
ENDBRANCH   9  13
BRANCH  10  20
ATOM     20  C   UNL     1       2.052  -1.646  -0.282  0.00  0.00    +0.151 C 
BRANCH  20  21
ATOM     21  C   UNL     1       3.353  -1.719  -1.039  0.00  0.00    -0.013 C 
ATOM     22  C   UNL     1       4.373  -2.362  -0.527  0.00  0.00    +0.005 C 
ENDBRANCH  20  21
ENDBRANCH  10  20
TORSDOF 5
