REMARK  Name = ZINC01960028
REMARK  7 active torsions:
REMARK  status: ('A' for Active; 'I' for Inactive)
REMARK    1  A    between atoms: C_9  and  O_28
REMARK    2  A    between atoms: C_10  and  C_11
REMARK    3  A    between atoms: N_12  and  N_13
REMARK    4  A    between atoms: C_14  and  C_16
REMARK    5  A    between atoms: C_16  and  C_17
REMARK    6  A    between atoms: C_17  and  C_18
REMARK    7  A    between atoms: N_20  and  C_21
REMARK                            x       y       z     vdW  Elec       q    Type
REMARK                         _______ _______ _______ _____ _____    ______ ____
ROOT
ATOM      1  N   UNL     1       7.321   0.147  -0.057  0.00  0.00    -0.207 N 
ATOM      2  C   UNL     1       8.490  -0.524  -0.070  0.00  0.00    +0.233 C 
ATOM      3  O   UNL     1       8.492  -1.737  -0.067  0.00  0.00    -0.274 OA
ATOM      4  H   UNL     1       7.319   1.117  -0.059  0.00  0.00    +0.177 HD
ENDROOT
BRANCH   1   6
ATOM      5  C   UNL     1       4.982   0.091  -0.029  0.00  0.00    +0.142 C 
ATOM      6  N   UNL     1       6.109  -0.556  -0.041  0.00  0.00    -0.188 NA
BRANCH   5  16
ATOM      7  C   UNL     1      -0.016   1.356   0.029  0.00  0.00    +0.001 A 
ATOM      8  C   UNL     1       1.167   2.090   0.014  0.00  0.00    +0.001 A 
ATOM      9  C   UNL     1       2.378   1.464   0.000  0.00  0.00    +0.009 A 
ATOM     10  C   UNL     1       2.435   0.065   0.002  0.00  0.00    -0.006 A 
ATOM     11  C   UNL     1       1.233  -0.684   0.017  0.00  0.00    -0.017 A 
ATOM     12  C   UNL     1       0.002  -0.006   0.031  0.00  0.00    +0.008 A 
ATOM     13  C   UNL     1       1.292  -2.088   0.020  0.00  0.00    +0.012 A 
ATOM     14  C   UNL     1       2.488  -2.735   0.007  0.00  0.00    +0.046 A 
ATOM     15  C   UNL     1       3.697  -2.041  -0.008  0.00  0.00    +0.126 A 
ATOM     16  C   UNL     1       3.711  -0.646  -0.012  0.00  0.00    +0.044 A 
BRANCH  15  17
ATOM     17  O   UNL     1       4.868  -2.728  -0.020  0.00  0.00    -0.506 OA
ATOM     18  H   UNL     1       5.197  -2.929  -0.907  0.00  0.00    +0.292 HD
ENDBRANCH  15  17
ENDBRANCH   5  16
ENDBRANCH   1   6
BRANCH   2  19
ATOM     19  C   UNL     1       9.793   0.233  -0.087  0.00  0.00    +0.107 C 
BRANCH  19  20
ATOM     20  C   UNL     1      10.958  -0.759  -0.099  0.00  0.00    +0.105 C 
BRANCH  20  21
ATOM     21  C   UNL     1      12.261  -0.002  -0.117  0.00  0.00    +0.218 C 
ATOM     22  O   UNL     1      12.258   1.211  -0.119  0.00  0.00    -0.275 OA
ATOM     23  N   UNL     1      13.430  -0.673  -0.129  0.00  0.00    -0.285 N 
ATOM     24  H   UNL     1      13.434  -1.641  -0.059  0.00  0.00    +0.155 HD
BRANCH  23  25
ATOM     25  C   UNL     1      14.637   0.026  -0.243  0.00  0.00    +0.033 A 
ATOM     26  C   UNL     1      15.694  -0.523  -0.957  0.00  0.00    +0.024 A 
ATOM     27  C   UNL     1      16.884   0.169  -1.068  0.00  0.00    +0.017 A 
ATOM     28  C   UNL     1      17.024   1.408  -0.469  0.00  0.00    +0.018 A 
ATOM     29  C   UNL     1      15.972   1.957   0.243  0.00  0.00    +0.017 A 
ATOM     30  C   UNL     1      14.778   1.272   0.353  0.00  0.00    +0.024 A 
ATOM     31 BR   UNL     1      18.655   2.352  -0.623  0.00  0.00    -0.050 Br
ENDBRANCH  23  25
ENDBRANCH  20  21
ENDBRANCH  19  20
ENDBRANCH   2  19
TORSDOF 7
