REMARK  Name = ZINC20086153
REMARK  4 active torsions:
REMARK  status: ('A' for Active; 'I' for Inactive)
REMARK    1  A    between atoms: C_10  and  N_24
REMARK    2  A    between atoms: C_11  and  C_22
REMARK    3  A    between atoms: C_12  and  C_15
REMARK    4  A    between atoms: C_19  and  O_21
REMARK                            x       y       z     vdW  Elec       q    Type
REMARK                         _______ _______ _______ _____ _____    ______ ____
ROOT
ATOM      1  C   UNL     1      -6.722   5.841  -0.867  0.00  0.00    +0.002 A 
ATOM      2  C   UNL     1      -6.144   5.997  -2.115  0.00  0.00    +0.002 A 
ATOM      3  C   UNL     1      -4.771   6.061  -2.286  0.00  0.00    +0.028 A 
ATOM      4  C   UNL     1      -3.984   5.962  -1.145  0.00  0.00    +0.076 A 
ATOM      5  C   UNL     1      -4.572   5.802   0.136  0.00  0.00    +0.091 A 
ATOM      6  C   UNL     1      -5.961   5.740   0.284  0.00  0.00    +0.030 A 
ATOM      7  N   UNL     1      -3.568   5.737   1.038  0.00  0.00    -0.214 NA
ATOM      8  C   UNL     1      -2.426   5.838   0.423  0.00  0.00    +0.203 A 
ATOM      9  N   UNL     1      -2.635   5.986  -0.940  0.00  0.00    -0.267 N 
ATOM     10  C   UNL     1      -1.577   6.130  -1.820  0.00  0.00    +0.119 C 
ATOM     11  C   UNL     1      -0.320   5.851  -1.369  0.00  0.00    +0.092 C 
ATOM     12  C   UNL     1      -0.076   5.351   0.029  0.00  0.00    +0.147 C 
ATOM     13  N   UNL     1      -1.139   5.815   0.935  0.00  0.00    -0.303 N 
ATOM     14  H   UNL     1      -0.892   6.122   1.962  0.00  0.00    +0.150 HD
ENDROOT
BRANCH  12  15
ATOM     15  C   UNL     1      -0.051   3.844   0.022  0.00  0.00    -0.019 A 
ATOM     16  C   UNL     1      -1.237   3.133   0.030  0.00  0.00    +0.006 A 
ATOM     17  C   UNL     1      -1.218   1.751   0.017  0.00  0.00    +0.004 A 
ATOM     18  C   UNL     1      -0.013   1.076   0.008  0.00  0.00    +0.045 A 
ATOM     19  C   UNL     1       1.179   1.786   0.000  0.00  0.00    +0.117 A 
ATOM     20  C   UNL     1       1.157   3.174   0.008  0.00  0.00    +0.051 A 
BRANCH  19  21
ATOM     21  O   UNL     1       2.366   1.125  -0.015  0.00  0.00    -0.507 OA
ATOM     22  H   UNL     1       3.310   1.689  -0.021  0.00  0.00    +0.292 HD
ENDBRANCH  19  21
ENDBRANCH  12  15
BRANCH  10  23
ATOM     23  N   UNL     1      -1.787   6.541  -3.114  0.00  0.00    -0.343 N 
ATOM     24  H   UNL     1      -0.935   6.651  -3.801  0.00  0.00    +0.144 HD
ATOM     25  H   UNL     1      -2.807   6.762  -3.462  0.00  0.00    +0.144 HD
ENDBRANCH  10  23
BRANCH  11  26
ATOM     26  C   UNL     1       0.795   6.039  -2.247  0.00  0.00    +0.100 C 
ATOM     27  N   UNL     1       1.680   6.189  -2.944  0.00  0.00    -0.191 NA
ENDBRANCH  11  26
TORSDOF 4
