REMARK  Name = ZINC09280179
REMARK  9 active torsions:
REMARK  status: ('A' for Active; 'I' for Inactive)
REMARK    1  A    between atoms: C_1  and  C_2
REMARK    2  A    between atoms: C_7  and  N_55
REMARK    3  A    between atoms: C_9  and  C_11
REMARK    4  A    between atoms: C_12  and  N_55
REMARK    5  A    between atoms: N_22  and  C_23
REMARK    6  A    between atoms: C_23  and  C_24
REMARK    7  A    between atoms: C_24  and  C_25
REMARK    8  A    between atoms: C_25  and  C_26
REMARK    9  A    between atoms: C_25  and  C_27
REMARK                            x       y       z     vdW  Elec       q    Type
REMARK                         _______ _______ _______ _____ _____    ______ ____
ROOT
ATOM      1  C   UNL     1      -3.630  -2.300   0.580  0.00  0.00    +0.051 C 
ATOM      2  C   UNL     1      -4.795  -2.297  -0.379  0.00  0.00    -0.032 A 
ATOM      3  C   UNL     1      -5.100  -1.542  -1.487  0.00  0.00    +0.004 A 
ATOM      4  C   UNL     1      -6.275  -1.778  -2.182  0.00  0.00    +0.000 A 
ATOM      5  C   UNL     1      -7.143  -2.772  -1.764  0.00  0.00    +0.001 A 
ATOM      6  C   UNL     1      -6.845  -3.534  -0.654  0.00  0.00    +0.013 A 
ATOM      7  C   UNL     1      -5.663  -3.302   0.052  0.00  0.00    +0.040 A 
ATOM      8  C   UNL     1      -5.080  -3.937   1.249  0.00  0.00    +0.246 C 
ATOM      9  O   UNL     1      -5.589  -4.850   1.869  0.00  0.00    -0.270 OA
ATOM     10  N   UNL     1      -3.904  -3.360   1.557  0.00  0.00    -0.307 N 
ENDROOT
BRANCH   1  11
ATOM     11  N   UNL     1      -3.539  -0.996   1.263  0.00  0.00    +0.396 N 
ATOM     12  H   UNL     1      -4.135  -0.317   0.776  0.00  0.00    -0.082 HD
ATOM     13  H   UNL     1      -3.858  -1.099   2.233  0.00  0.00    -0.082 HD
BRANCH  11  19
ATOM     14  C   UNL     1       0.144   0.664  -0.143  0.00  0.00    +0.008 C 
ATOM     15  C   UNL     1      -0.683   1.474   0.857  0.00  0.00    -0.013 C 
ATOM     16  C   UNL     1      -0.087   1.318   2.257  0.00  0.00    +0.003 C 
ATOM     17  C   UNL     1      -0.106  -0.158   2.658  0.00  0.00    -0.001 C 
ATOM     18  C   UNL     1      -1.549  -0.668   2.658  0.00  0.00    -0.015 C 
ATOM     19  C   UNL     1      -2.145  -0.512   1.258  0.00  0.00    -0.066 C 
ATOM     20  C   UNL     1      -2.126   0.965   0.857  0.00  0.00    -0.025 C 
ATOM     21  C   UNL     1      -2.722   1.121  -0.543  0.00  0.00    +0.006 C 
ENDBRANCH  11  19
ENDBRANCH   1  11
BRANCH  10  22
ATOM     22  C   UNL     1      -3.040  -3.728   2.682  0.00  0.00    +0.107 C 
BRANCH  22  23
ATOM     23  C   UNL     1      -3.515  -3.009   3.946  0.00  0.00    +0.022 C 
BRANCH  23  24
ATOM     24  C   UNL     1      -2.701  -3.497   5.146  0.00  0.00    -0.016 C 
ATOM     25  C   UNL     1      -1.238  -3.086   4.972  0.00  0.00    +0.007 C 
ATOM     26  C   UNL     1      -3.257  -2.873   6.428  0.00  0.00    +0.007 C 
ENDBRANCH  23  24
ENDBRANCH  22  23
ENDBRANCH  10  22
TORSDOF 5
