REMARK  Name = ZINC05459345
REMARK  6 active torsions:
REMARK  status: ('A' for Active; 'I' for Inactive)
REMARK    1  A    between atoms: C_4  and  C_7
REMARK    2  A    between atoms: C_16  and  C_28
REMARK    3  A    between atoms: C_19  and  C_22
REMARK    4  A    between atoms: C_28  and  C_30
REMARK    5  A    between atoms: C_28  and  O_32
REMARK    6  A    between atoms: C_30  and  O_31
REMARK                            x       y       z     vdW  Elec       q    Type
REMARK                         _______ _______ _______ _____ _____    ______ ____
ROOT
ATOM      1  C   UNL     1      -6.291   5.891   2.677  0.00  0.00    +0.282 C 
ATOM      2  O   UNL     1      -5.221   6.837   2.672  0.00  0.00    -0.345 OA
ATOM      3  C   UNL     1      -3.912   6.257   2.586  0.00  0.00    +0.197 C 
ATOM      4  C   UNL     1      -3.856   5.397   1.324  0.00  0.00    +0.179 C 
ATOM      5  C   UNL     1      -4.988   4.362   1.399  0.00  0.00    +0.184 C 
ATOM      6  O   UNL     1      -6.226   5.060   1.512  0.00  0.00    -0.339 OA
ATOM      7  C   UNL     1      -4.932   3.503   0.136  0.00  0.00    +0.184 C 
ATOM      8  O   UNL     1      -3.623   2.923   0.050  0.00  0.00    -0.339 OA
ATOM      9  C   UNL     1      -2.553   3.869   0.045  0.00  0.00    +0.283 C 
ATOM     10  O   UNL     1      -2.617   4.700   1.211  0.00  0.00    -0.339 OA
ENDROOT
BRANCH   1  14
ATOM     11  C   UNL     1     -10.019   7.977   2.721  0.00  0.00    +0.000 A 
ATOM     12  C   UNL     1      -9.106   8.170   3.741  0.00  0.00    +0.000 A 
ATOM     13  C   UNL     1      -7.900   7.496   3.727  0.00  0.00    +0.008 A 
ATOM     14  C   UNL     1      -7.606   6.627   2.692  0.00  0.00    +0.008 A 
ATOM     15  C   UNL     1      -8.516   6.437   1.669  0.00  0.00    +0.008 A 
ATOM     16  C   UNL     1      -9.724   7.109   1.686  0.00  0.00    +0.000 A 
ENDBRANCH   1  14
BRANCH   9  17
ATOM     17  C   UNL     1      -1.238   3.133   0.029  0.00  0.00    +0.008 A 
ATOM     18  C   UNL     1      -1.219   1.751   0.017  0.00  0.00    +0.008 A 
ATOM     19  C   UNL     1      -0.013   1.076   0.008  0.00  0.00    +0.000 A 
ATOM     20  C   UNL     1       1.175   1.783   0.000  0.00  0.00    +0.000 A 
ATOM     21  C   UNL     1       1.156   3.165   0.008  0.00  0.00    +0.000 A 
ATOM     22  C   UNL     1      -0.050   3.840   0.022  0.00  0.00    +0.008 A 
ENDBRANCH   9  17
BRANCH   7  23
ATOM     23  C   UNL     1      -5.983   2.394   0.218  0.00  0.00    +0.171 C 
BRANCH  23  24
ATOM     24  O   UNL     1      -5.814   1.667   1.437  0.00  0.00    -0.387 OA
ATOM     25  H   UNL     1      -4.949   1.246   1.527  0.00  0.00    +0.210 HD
ENDBRANCH  23  24
BRANCH  23  26
ATOM     26  C   UNL     1      -5.817   1.445  -0.970  0.00  0.00    +0.189 C 
BRANCH  26  27
ATOM     27  O   UNL     1      -6.870   0.478  -0.958  0.00  0.00    -0.392 OA
ATOM     28  H   UNL     1      -6.828  -0.158  -1.685  0.00  0.00    +0.210 HD
ENDBRANCH  26  27
ENDBRANCH  23  26
ENDBRANCH   7  23
TORSDOF 6
