REMARK  Name = ZINC59350293
REMARK  12 active torsions:
REMARK  status: ('A' for Active; 'I' for Inactive)
REMARK    1  A    between atoms: C_1  and  C_2
REMARK    2  A    between atoms: C_2  and  C_3
REMARK    3  A    between atoms: C_3  and  N_4
REMARK    4  A    between atoms: N_4  and  C_5
REMARK    5  A    between atoms: N_4  and  C_19
REMARK    6  A    between atoms: C_5  and  C_6
REMARK    7  A    between atoms: N_8  and  N_9
REMARK    8  A    between atoms: C_12  and  C_16
REMARK    9  A    between atoms: C_12  and  C_17
REMARK   10  A    between atoms: C_17  and  C_18
REMARK   11  A    between atoms: C_19  and  C_21
REMARK   12  A    between atoms: C_19  and  C_22
REMARK                            x       y       z     vdW  Elec       q    Type
REMARK                         _______ _______ _______ _____ _____    ______ ____
ROOT
ATOM      1  C   UNL     1       1.346  -2.517   2.357  0.00  0.00    +0.021 C 
ENDROOT
BRANCH   1   2
ATOM      2  C   UNL     1       0.434  -2.192   3.511  0.00  0.00    +0.213 C 
ATOM      3  O   UNL     1      -0.571  -1.540   3.325  0.00  0.00    -0.276 OA
ATOM      4  N   UNL     1       0.734  -2.628   4.751  0.00  0.00    -0.225 N 
ATOM      5  H   UNL     1       1.538  -3.150   4.900  0.00  0.00    +0.173 HD
BRANCH   4   6
ATOM      6  N   UNL     1      -0.115  -2.326   5.824  0.00  0.00    -0.137 N 
ATOM      7  C   UNL     1       0.154  -1.397   6.763  0.00  0.00    +0.263 C 
ATOM      8  O   UNL     1       1.137  -0.693   6.836  0.00  0.00    -0.271 OA
ATOM      9  C   UNL     1      -1.031  -1.417   7.709  0.00  0.00    +0.111 C 
ATOM     10  N   UNL     1      -1.911  -2.451   7.139  0.00  0.00    -0.284 N 
ATOM     11  C   UNL     1      -1.294  -2.920   6.040  0.00  0.00    +0.326 C 
ATOM     12  O   UNL     1      -1.754  -3.788   5.324  0.00  0.00    -0.251 OA
ATOM     13  C   UNL     1      -0.586  -1.806   9.120  0.00  0.00    +0.041 C 
ATOM     14  H   UNL     1      -2.771  -2.737   7.487  0.00  0.00    +0.151 HD
BRANCH   9  15
ATOM     15  C   UNL     1      -1.734  -0.058   7.720  0.00  0.00    +0.032 C 
ATOM     16  C   UNL     1      -2.923  -0.106   8.681  0.00  0.00    +0.006 C 
ENDBRANCH   9  15
ENDBRANCH   4   6
ENDBRANCH   1   2
BRANCH   1  17
ATOM     17  N   UNL     1       0.802  -1.934   1.123  0.00  0.00    +0.390 N 
ATOM     18  H   UNL     1      -0.145  -2.254   0.989  0.00  0.00    -0.080 HD
BRANCH  17  19
ATOM     19  C   UNL     1       1.626  -2.350  -0.020  0.00  0.00    -0.040 C 
ATOM     20  C   UNL     1       1.505  -3.863  -0.212  0.00  0.00    -0.008 C 
BRANCH  19  21
ATOM     21  C   UNL     1       1.150  -1.646  -1.265  0.00  0.00    -0.060 A 
ATOM     22  C   UNL     1      -0.201  -1.600  -1.559  0.00  0.00    +0.003 A 
ATOM     23  C   UNL     1      -0.638  -0.956  -2.700  0.00  0.00    +0.021 A 
ATOM     24  C   UNL     1       0.274  -0.355  -3.549  0.00  0.00    +0.059 A 
ATOM     25  C   UNL     1       1.626  -0.401  -3.254  0.00  0.00    +0.059 A 
ATOM     26  C   UNL     1       2.062  -1.042  -2.108  0.00  0.00    +0.023 A 
ATOM     27 CL   UNL     1       2.773   0.351  -4.319  0.00  0.00    -0.082 Cl
ATOM     28 CL   UNL     1      -0.275   0.454  -4.983  0.00  0.00    -0.082 Cl
ENDBRANCH  19  21
ENDBRANCH  17  19
BRANCH  17  29
ATOM     29  C   UNL     1       0.814  -0.469   1.228  0.00  0.00    -0.078 C 
BRANCH  29  31
ATOM     30  C   UNL     1       2.276   1.551   1.381  0.00  0.00    +0.002 C 
ATOM     31  C   UNL     1       2.257   0.021   1.363  0.00  0.00    -0.022 C 
ENDBRANCH  29  31
ENDBRANCH  17  29
ENDBRANCH   1  17
TORSDOF 8
