REMARK  Name = ZINC03102879
REMARK  8 active torsions:
REMARK  status: ('A' for Active; 'I' for Inactive)
REMARK    1  A    between atoms: C_1  and  C_2
REMARK    2  A    between atoms: C_7  and  N_8
REMARK    3  A    between atoms: N_8  and  C_9
REMARK    4  A    between atoms: C_9  and  N_10
REMARK    5  A    between atoms: C_14  and  C_15
REMARK    6  A    between atoms: C_18  and  C_21
REMARK    7  A    between atoms: C_21  and  C_22
REMARK    8  A    between atoms: C_21  and  C_23
REMARK                            x       y       z     vdW  Elec       q    Type
REMARK                         _______ _______ _______ _____ _____    ______ ____
ROOT
ATOM      1  N   UNL     1      -0.961   5.007   1.308  0.00  0.00    -0.239 N 
ATOM      2  C   UNL     1      -0.307   6.017   1.858  0.00  0.00    +0.260 C 
ATOM      3  O   UNL     1       0.405   6.751   1.200  0.00  0.00    -0.269 OA
ATOM      4  C   UNL     1      -0.487   6.207   3.313  0.00  0.00    +0.077 C 
ATOM      5  C   UNL     1       0.050   7.142   4.136  0.00  0.00    +0.028 C 
ATOM      6  S   UNL     1      -1.605   4.864   3.691  0.00  0.00    -0.061 S 
ATOM      7  C   UNL     1      -1.754   4.199   2.040  0.00  0.00    +0.122 C 
ATOM      8  S   UNL     1      -2.679   2.857   1.515  0.00  0.00    -0.027 S 
ENDROOT
BRANCH   5   9
ATOM      9  C   UNL     1      -0.401   7.239   5.531  0.00  0.00    -0.024 A 
ATOM     10  C   UNL     1      -1.506   6.499   5.967  0.00  0.00    +0.008 A 
ATOM     11  C   UNL     1      -1.918   6.591   7.279  0.00  0.00    +0.004 A 
ATOM     12  C   UNL     1      -1.251   7.422   8.162  0.00  0.00    -0.045 A 
ATOM     13  C   UNL     1      -0.161   8.163   7.737  0.00  0.00    +0.004 A 
ATOM     14  C   UNL     1       0.268   8.078   6.430  0.00  0.00    +0.008 A 
BRANCH  12  15
ATOM     15  C   UNL     1      -1.712   7.521   9.593  0.00  0.00    +0.013 C 
ATOM     16  C   UNL     1      -3.157   8.024   9.629  0.00  0.00    +0.012 C 
ATOM     17  C   UNL     1      -1.636   6.142  10.250  0.00  0.00    +0.012 C 
ENDBRANCH  12  15
ENDBRANCH   5   9
BRANCH   1  18
ATOM     18  C   UNL     1      -0.826   4.765  -0.130  0.00  0.00    +0.219 C 
BRANCH  18  19
ATOM     19  N   UNL     1       0.074   3.631  -0.352  0.00  0.00    -0.328 N 
ATOM     20  H   UNL     1      -0.270   2.725  -0.323  0.00  0.00    +0.148 HD
BRANCH  19  27
ATOM     21  C   UNL     1       1.799   1.375  -0.518  0.00  0.00    +0.045 C 
ATOM     22  C   UNL     1       2.307   2.782  -0.695  0.00  0.00    -0.030 A 
ATOM     23  C   UNL     1       3.647   3.007  -0.946  0.00  0.00    +0.005 A 
ATOM     24  C   UNL     1       4.114   4.298  -1.108  0.00  0.00    +0.000 A 
ATOM     25  C   UNL     1       3.243   5.368  -1.021  0.00  0.00    +0.002 A 
ATOM     26  C   UNL     1       1.903   5.151  -0.771  0.00  0.00    +0.023 A 
ATOM     27  C   UNL     1       1.430   3.855  -0.606  0.00  0.00    +0.031 A 
ENDBRANCH  19  27
ENDBRANCH  18  19
ENDBRANCH   1  18
TORSDOF 5
