REMARK  Name = ZINC09355394
REMARK  4 active torsions:
REMARK  status: ('A' for Active; 'I' for Inactive)
REMARK    1  A    between atoms: C_1  and  C_2
REMARK    2  A    between atoms: C_2  and  C_4
REMARK    3  A    between atoms: C_2  and  N_10
REMARK    4  A    between atoms: C_11  and  C_21
REMARK                            x       y       z     vdW  Elec       q    Type
REMARK                         _______ _______ _______ _____ _____    ______ ____
ROOT
ATOM      1  N   UNL     1       2.846  -0.104  -0.532  0.00  0.00    -0.280 N 
ATOM      2  C   UNL     1       2.400   0.932   0.407  0.00  0.00    +0.140 C 
ATOM      3  C   UNL     1       3.437   0.986   1.500  0.00  0.00    -0.010 A 
ATOM      4  C   UNL     1       3.567   1.746   2.640  0.00  0.00    +0.006 A 
ATOM      5  C   UNL     1       4.658   1.563   3.472  0.00  0.00    +0.000 A 
ATOM      6  C   UNL     1       5.620   0.618   3.162  0.00  0.00    +0.001 A 
ATOM      7  C   UNL     1       5.500  -0.149   2.021  0.00  0.00    +0.013 A 
ATOM      8  C   UNL     1       4.402   0.029   1.177  0.00  0.00    +0.042 A 
ATOM      9  C   UNL     1       4.003  -0.623  -0.085  0.00  0.00    +0.248 C 
ATOM     10  O   UNL     1       4.629  -1.504  -0.640  0.00  0.00    -0.270 OA
ENDROOT
BRANCH   2  11
ATOM     11  C   UNL     1       1.057   0.563   0.984  0.00  0.00    +0.002 A 
ATOM     12  C   UNL     1       0.473  -0.644   0.939  0.00  0.00    +0.089 A 
ATOM     13  N   UNL     1      -0.744  -0.598   1.563  0.00  0.00    -0.360 N 
ATOM     14  H   UNL     1      -1.353  -1.347   1.654  0.00  0.00    +0.165 HD
ATOM     15  C   UNL     1      -0.974   0.671   2.046  0.00  0.00    +0.047 A 
ATOM     16  C   UNL     1       0.142   1.455   1.701  0.00  0.00    +0.005 A 
ATOM     17  C   UNL     1       0.184   2.803   2.061  0.00  0.00    +0.010 A 
ATOM     18  C   UNL     1      -0.860   3.355   2.747  0.00  0.00    +0.001 A 
ATOM     19  C   UNL     1      -1.964   2.586   3.090  0.00  0.00    +0.002 A 
ATOM     20  C   UNL     1      -2.026   1.254   2.744  0.00  0.00    +0.026 A 
ENDBRANCH   2  11
BRANCH   1  22
ATOM     21  C   UNL     1       2.140  -2.032  -1.861  0.00  0.00    +0.033 C 
ATOM     22  C   UNL     1       2.147  -0.505  -1.755  0.00  0.00    +0.104 C 
BRANCH  22  23
ATOM     23  C   UNL     1       2.853   0.078  -2.952  0.00  0.00    -0.027 A 
ATOM     24  C   UNL     1       4.234   0.091  -3.001  0.00  0.00    +0.005 A 
ATOM     25  C   UNL     1       4.882   0.623  -4.100  0.00  0.00    +0.000 A 
ATOM     26  C   UNL     1       4.148   1.148  -5.147  0.00  0.00    +0.000 A 
ATOM     27  C   UNL     1       2.767   1.139  -5.096  0.00  0.00    +0.000 A 
ATOM     28  C   UNL     1       2.119   0.605  -3.999  0.00  0.00    +0.005 A 
ENDBRANCH  22  23
ENDBRANCH   1  22
TORSDOF 3
