REMARK  Name = ZINC44230375
REMARK  5 active torsions:
REMARK  status: ('A' for Active; 'I' for Inactive)
REMARK    1  A    between atoms: C_1  and  C_2
REMARK    2  A    between atoms: C_13  and  O_15
REMARK    3  A    between atoms: O_15  and  C_16
REMARK    4  A    between atoms: C_16  and  C_18
REMARK    5  A    between atoms: C_32  and  C_33
REMARK                            x       y       z     vdW  Elec       q    Type
REMARK                         _______ _______ _______ _____ _____    ______ ____
ROOT
ATOM      1  C   UNL     1      -0.019   1.542   0.011  0.00  0.00    +0.015 C 
ATOM      2  C   UNL     1       0.002  -0.004   0.002  0.00  0.00    +0.008 C 
ATOM      3  C   UNL     1       0.632  -0.419  -1.305  0.00  0.00    +0.011 C 
ATOM      4  C   UNL     1       1.140  -1.857  -1.301  0.00  0.00    +0.005 C 
ATOM      5  C   UNL     1       2.132  -2.016  -0.143  0.00  0.00    +0.007 C 
ATOM      6  C   UNL     1       1.367  -1.845   1.167  0.00  0.00    -0.003 C 
ATOM      7  C   UNL     1       0.751  -0.453   1.258  0.00  0.00    +0.002 C 
ATOM      8  C   UNL     1      -0.348  -0.471   2.354  0.00  0.00    +0.008 C 
ATOM      9  C   UNL     1      -1.641  -0.873   1.618  0.00  0.00    +0.045 C 
ATOM     10  C   UNL     1      -1.450  -0.469   0.145  0.00  0.00    +0.183 C 
ATOM     11  C   UNL     1       0.322  -2.938   1.351  0.00  0.00    +0.008 C 
ATOM     12  C   UNL     1       1.002  -4.316   1.380  0.00  0.00    +0.032 C 
ATOM     13  C   UNL     1       1.797  -4.454   0.093  0.00  0.00    -0.055 C 
ATOM     14  C   UNL     1       1.580  -5.517  -0.675  0.00  0.00    +0.046 C 
ATOM     15  C   UNL     1       2.304  -5.655  -1.944  0.00  0.00    +0.156 C 
ATOM     16  O   UNL     1       2.463  -6.729  -2.485  0.00  0.00    -0.293 OA
ATOM     17  C   UNL     1       2.808  -4.367  -2.566  0.00  0.00    +0.080 C 
ATOM     18  C   UNL     1       3.567  -3.578  -1.507  0.00  0.00    +0.024 C 
ATOM     19  C   UNL     1       2.796  -3.386  -0.222  0.00  0.00    +0.046 C 
ENDROOT
BRANCH  19  20
ATOM     20  C   UNL     1       3.852  -3.435   0.884  0.00  0.00    +0.261 C 
ATOM     21  O   UNL     1       4.892  -2.466   0.630  0.00  0.00    -0.348 OA
ATOM     22  C   UNL     1       6.027  -2.945   1.380  0.00  0.00    +0.191 C 
ATOM     23  C   UNL     1       5.784  -4.458   1.547  0.00  0.00    +0.191 C 
ATOM     24  O   UNL     1       4.531  -4.709   0.877  0.00  0.00    -0.348 OA
ENDBRANCH  19  20
BRANCH  10  25
ATOM     25  O   UNL     1      -1.734  -1.565  -0.721  0.00  0.00    -0.457 OA
BRANCH  25  26
ATOM     26  C   UNL     1      -2.999  -1.677  -1.171  0.00  0.00    +0.339 C 
ATOM     27  O   UNL     1      -3.837  -0.864  -0.836  0.00  0.00    -0.245 OA
BRANCH  26  28
ATOM     28  C   UNL     1      -3.366  -2.788  -2.072  0.00  0.00    +0.059 A 
ATOM     29  C   UNL     1      -2.406  -3.728  -2.455  0.00  0.00    +0.015 A 
ATOM     30  C   UNL     1      -2.756  -4.763  -3.297  0.00  0.00    +0.001 A 
ATOM     31  C   UNL     1      -4.055  -4.872  -3.762  0.00  0.00    +0.000 A 
ATOM     32  C   UNL     1      -5.011  -3.944  -3.388  0.00  0.00    +0.001 A 
ATOM     33  C   UNL     1      -4.676  -2.907  -2.541  0.00  0.00    +0.015 A 
ENDBRANCH  26  28
ENDBRANCH  25  26
ENDBRANCH  10  25
TORSDOF 4
