REMARK  Name = ZINC32932305
REMARK  4 active torsions:
REMARK  status: ('A' for Active; 'I' for Inactive)
REMARK    1  A    between atoms: C_12  and  C_18
REMARK    2  A    between atoms: N_20  and  C_21
REMARK    3  A    between atoms: C_21  and  C_23
REMARK    4  A    between atoms: C_21  and  C_30
REMARK                            x       y       z     vdW  Elec       q    Type
REMARK                         _______ _______ _______ _____ _____    ______ ____
ROOT
ATOM      1  C   UNL     1       9.823  -0.392  -0.095  0.00  0.00    +0.001 A 
ATOM      2  C   UNL     1       9.812   0.991  -0.089  0.00  0.00    +0.001 A 
ATOM      3  C   UNL     1       8.613   1.682  -0.073  0.00  0.00    +0.012 A 
ATOM      4  C   UNL     1       7.409   0.983  -0.064  0.00  0.00    +0.033 A 
ATOM      5  C   UNL     1       7.420  -0.423  -0.071  0.00  0.00    +0.033 A 
ATOM      6  C   UNL     1       8.635  -1.103  -0.087  0.00  0.00    +0.012 A 
ATOM      7  C   UNL     1       6.147  -1.173  -0.062  0.00  0.00    +0.195 C 
ATOM      8  O   UNL     1       6.157  -2.387  -0.068  0.00  0.00    -0.287 OA
ATOM      9  C   UNL     1       4.860  -0.442  -0.046  0.00  0.00    +0.035 A 
ATOM     10  C   UNL     1       3.658  -1.143  -0.038  0.00  0.00    +0.013 A 
ATOM     11  C   UNL     1       2.456  -0.461  -0.018  0.00  0.00    +0.015 A 
ATOM     12  C   UNL     1       2.438   0.933  -0.016  0.00  0.00    +0.056 A 
ATOM     13  C   UNL     1       3.638   1.649  -0.024  0.00  0.00    +0.065 A 
ATOM     14  C   UNL     1       4.851   0.965  -0.039  0.00  0.00    +0.052 A 
ATOM     15  C   UNL     1       6.125   1.714  -0.047  0.00  0.00    +0.196 C 
ATOM     16  O   UNL     1       6.116   2.929  -0.041  0.00  0.00    -0.287 OA
ATOM     17 CL   UNL     1       3.617   3.385  -0.014  0.00  0.00    -0.082 Cl
ENDROOT
BRANCH  12  18
ATOM     18  C   UNL     1       1.147   1.655   0.000  0.00  0.00    +0.246 C 
ATOM     19  O   UNL     1       1.130   2.871   0.007  0.00  0.00    -0.270 OA
ATOM     20  N   UNL     1      -0.011   0.966   0.007  0.00  0.00    -0.300 N 
ATOM     21  H   UNL     1       0.004  -0.134   0.006  0.00  0.00    +0.150 HD
BRANCH  20  22
ATOM     22  C   UNL     1      -1.290   1.681   0.017  0.00  0.00    +0.140 C 
BRANCH  22  23
ATOM     23  C   UNL     1      -2.354   0.799   0.618  0.00  0.00    -0.022 A 
ATOM     24  C   UNL     1      -2.387  -0.549   0.313  0.00  0.00    +0.008 A 
ATOM     25  C   UNL     1      -3.359  -1.360   0.868  0.00  0.00    +0.038 A 
ATOM     26  C   UNL     1      -4.307  -0.819   1.720  0.00  0.00    +0.123 A 
ATOM     27  C   UNL     1      -4.276   0.532   2.020  0.00  0.00    +0.038 A 
ATOM     28  C   UNL     1      -3.300   1.340   1.469  0.00  0.00    +0.008 A 
ATOM     29  F   UNL     1      -5.262  -1.609   2.258  0.00  0.00    -0.205 F 
ENDBRANCH  22  23
BRANCH  22  30
ATOM     30  C   UNL     1      -1.674   2.042  -1.394  0.00  0.00    +0.014 A 
ATOM     31  C   UNL     1      -2.236   3.184  -1.860  0.00  0.00    +0.013 A 
ATOM     32  C   UNL     1      -2.505   3.296  -3.212  0.00  0.00    +0.008 A 
ATOM     33  C   UNL     1      -2.197   2.261  -4.031  0.00  0.00    +0.045 A 
ATOM     34  S   UNL     1      -1.500   1.080  -2.888  0.00  0.00    -0.099 S 
ENDBRANCH  22  30
ENDBRANCH  20  22
ENDBRANCH  12  18
TORSDOF 4
