REMARK  Name = ZINC67237286
REMARK  10 active torsions:
REMARK  status: ('A' for Active; 'I' for Inactive)
REMARK    1  A    between atoms: C_1  and  C_2
REMARK    2  A    between atoms: C_5  and  C_9
REMARK    3  A    between atoms: C_6  and  C_8
REMARK    4  A    between atoms: C_9  and  C_10
REMARK    5  A    between atoms: C_10  and  N_11
REMARK    6  A    between atoms: C_12  and  C_14
REMARK    7  A    between atoms: C_14  and  C_15
REMARK    8  A    between atoms: C_15  and  C_16
REMARK    9  A    between atoms: C_16  and  C_17
REMARK   10  A    between atoms: C_17  and  C_18
REMARK                            x       y       z     vdW  Elec       q    Type
REMARK                         _______ _______ _______ _____ _____    ______ ____
ROOT
ATOM      1  C   UNL     1      -2.485  -8.466   0.197  0.00  0.00    +0.096 C 
ENDROOT
BRANCH   1   3
ATOM      2  N   UNL     1      -1.351  -6.269   0.101  0.00  0.00    -0.315 N 
ATOM      3  C   UNL     1      -2.505  -6.959   0.206  0.00  0.00    +0.213 C 
ATOM      4  O   UNL     1      -3.558  -6.367   0.306  0.00  0.00    -0.276 OA
ATOM      5  H   UNL     1      -0.509  -6.743   0.021  0.00  0.00    +0.149 HD
BRANCH   2   6
ATOM      6  C   UNL     1      -1.370  -4.804   0.109  0.00  0.00    +0.109 C 
BRANCH   6   7
ATOM      7  C   UNL     1       0.059  -4.275  -0.021  0.00  0.00    +0.054 C 
BRANCH   7  12
ATOM      8  C   UNL     1      -0.018   1.503   0.010  0.00  0.00    +0.044 C 
ATOM      9  C   UNL     1       0.002  -0.004   0.002  0.00  0.00    -0.050 A 
ATOM     10  C   UNL     1       0.006  -0.689  -1.199  0.00  0.00    +0.003 A 
ATOM     11  C   UNL     1       0.025  -2.071  -1.207  0.00  0.00    +0.004 A 
ATOM     12  C   UNL     1       0.040  -2.768  -0.013  0.00  0.00    -0.043 A 
ATOM     13  C   UNL     1       0.037  -2.084   1.188  0.00  0.00    -0.047 A 
ATOM     14  C   UNL     1       0.023  -0.702   1.195  0.00  0.00    +0.007 A 
ATOM     15  C   UNL     1       0.054  -2.845   2.489  0.00  0.00    +0.044 C 
ENDBRANCH   7  12
ENDBRANCH   6   7
ENDBRANCH   2   6
ENDBRANCH   1   3
BRANCH   1  16
ATOM     16  C   UNL     1      -3.915  -8.995   0.328  0.00  0.00    +0.009 C 
BRANCH  16  17
ATOM     17  C   UNL     1      -3.895 -10.525   0.320  0.00  0.00    +0.002 C 
BRANCH  17  18
ATOM     18  C   UNL     1      -5.325 -11.054   0.451  0.00  0.00    +0.016 C 
BRANCH  18  19
ATOM     19  C   UNL     1      -5.305 -12.584   0.442  0.00  0.00    +0.069 C 
ATOM     20  C   UNL     1      -6.736 -13.157   0.529  0.00  0.00    +0.108 C 
ATOM     21  C   UNL     1      -6.852 -14.386   1.435  0.00  0.00    +0.105 C 
ATOM     22  C   UNL     1      -5.517 -14.803   2.089  0.00  0.00    +0.093 C 
ATOM     23  S   UNL     1      -4.551 -13.245   1.991  0.00  0.00    -0.154 S 
ATOM     24  N   UNL     1      -7.785 -13.965   2.492  0.00  0.00    -0.294 N 
ATOM     25  C   UNL     1      -8.164 -12.700   2.261  0.00  0.00    +0.300 C 
ATOM     26  O   UNL     1      -8.935 -12.097   2.981  0.00  0.00    -0.253 OA
ATOM     27  N   UNL     1      -7.612 -12.166   1.173  0.00  0.00    -0.294 N 
ATOM     28  H   UNL     1      -8.079 -14.514   3.236  0.00  0.00    +0.151 HD
ATOM     29  H   UNL     1      -7.770 -11.263   0.855  0.00  0.00    +0.151 HD
ENDBRANCH  18  19
ENDBRANCH  17  18
ENDBRANCH  16  17
ENDBRANCH   1  16
TORSDOF 8
