REMARK  Name = ZINC00729675
REMARK  2 active torsions:
REMARK  status: ('A' for Active; 'I' for Inactive)
REMARK    1  A    between atoms: C_6  and  C_11
REMARK    2  A    between atoms: C_16  and  C_21
REMARK                            x       y       z     vdW  Elec       q    Type
REMARK                         _______ _______ _______ _____ _____    ______ ____
ROOT
ATOM      1  C   UNL     1      -3.318   8.783  -0.006  0.00  0.00    +0.136 C 
ATOM      2  C   UNL     1      -2.721   7.422   0.260  0.00  0.00    +0.036 C 
ATOM      3  C   UNL     1      -2.478   6.891   1.471  0.00  0.00    +0.017 C 
ATOM      4  C   UNL     1      -1.875   5.502   1.595  0.00  0.00    +0.060 C 
ATOM      5  C   UNL     1      -0.936   5.235   0.420  0.00  0.00    +0.039 C 
ATOM      6  C   UNL     1      -1.757   5.345  -0.870  0.00  0.00    +0.088 C 
ATOM      7  C   UNL     1      -2.400   6.699  -0.913  0.00  0.00    +0.163 C 
ATOM      8  O   UNL     1      -2.652   7.193  -1.994  0.00  0.00    -0.292 OA
ATOM      9  N   UNL     1      -2.746   7.503   2.652  0.00  0.00    -0.316 N 
ATOM     10  C   UNL     1      -2.427   8.822   2.955  0.00  0.00    +0.052 A 
ATOM     11  C   UNL     1      -1.516   9.156   3.941  0.00  0.00    +0.025 A 
ATOM     12  C   UNL     1      -1.281  10.491   4.223  0.00  0.00    +0.002 A 
ATOM     13  C   UNL     1      -1.952  11.480   3.528  0.00  0.00    +0.002 A 
ATOM     14  C   UNL     1      -2.851  11.147   2.529  0.00  0.00    +0.025 A 
ATOM     15  C   UNL     1      -3.071   9.813   2.229  0.00  0.00    +0.049 A 
ATOM     16  N   UNL     1      -3.880   9.432   1.159  0.00  0.00    -0.331 N 
ATOM     17  H   UNL     1      -3.194   6.981   3.336  0.00  0.00    +0.152 HD
ATOM     18  H   UNL     1      -4.834   9.604   1.196  0.00  0.00    +0.147 HD
ENDROOT
BRANCH   1  24
ATOM     19  C   UNL     1       0.649  12.604  -3.379  0.00  0.00    +0.001 A 
ATOM     20  C   UNL     1      -0.456  12.279  -4.164  0.00  0.00    +0.001 A 
ATOM     21  C   UNL     1      -1.447  11.479  -3.683  0.00  0.00    +0.008 A 
ATOM     22  C   UNL     1      -1.357  10.972  -2.375  0.00  0.00    -0.018 A 
ATOM     23  C   UNL     1      -2.360  10.143  -1.844  0.00  0.00    +0.014 A 
ATOM     24  C   UNL     1      -2.240   9.671  -0.573  0.00  0.00    -0.022 A 
ATOM     25  C   UNL     1      -1.137  10.000   0.214  0.00  0.00    +0.006 A 
ATOM     26  C   UNL     1      -0.144  10.796  -0.269  0.00  0.00    +0.009 A 
ATOM     27  C   UNL     1      -0.234  11.303  -1.577  0.00  0.00    -0.018 A 
ATOM     28  C   UNL     1       0.769  12.131  -2.109  0.00  0.00    +0.008 A 
ENDBRANCH   1  24
BRANCH   5  29
ATOM     29  C   UNL     1      -0.352   3.850   0.537  0.00  0.00    -0.006 A 
ATOM     30  C   UNL     1       0.948   3.476   0.625  0.00  0.00    +0.011 A 
ATOM     31  C   UNL     1       1.254   2.132   0.726  0.00  0.00    +0.008 A 
ATOM     32  C   UNL     1       0.244   1.227   0.734  0.00  0.00    +0.045 A 
ATOM     33  S   UNL     1      -1.193   2.276   0.590  0.00  0.00    -0.101 S 
ENDBRANCH   5  29
TORSDOF 2
