REMARK  Name = ZINC12302885
REMARK  9 active torsions:
REMARK  status: ('A' for Active; 'I' for Inactive)
REMARK    1  A    between atoms: C_1  and  O_2
REMARK    2  A    between atoms: O_2  and  C_3
REMARK    3  A    between atoms: C_8  and  C_13
REMARK    4  A    between atoms: C_14  and  C_19
REMARK    5  A    between atoms: C_19  and  N_57
REMARK    6  A    between atoms: C_24  and  C_26
REMARK    7  A    between atoms: C_26  and  C_27
REMARK    8  A    between atoms: C_27  and  C_28
REMARK    9  A    between atoms: C_28  and  O_29
REMARK                            x       y       z     vdW  Elec       q    Type
REMARK                         _______ _______ _______ _____ _____    ______ ____
ROOT
ATOM      1  C   UNL     1       2.458   1.248   1.352  0.00  0.00    +0.094 A 
ATOM      2  C   UNL     1       1.411   1.587   2.231  0.00  0.00    -0.019 A 
ATOM      3  C   UNL     1       1.918   2.398   3.185  0.00  0.00    +0.107 A 
ATOM      4  N   UNL     1       3.235   2.565   2.934  0.00  0.00    -0.284 N 
ATOM      5  H   UNL     1       3.871   3.112   3.479  0.00  0.00    +0.188 HD
ATOM      6  N   UNL     1       3.554   1.839   1.780  0.00  0.00    -0.174 NA
ENDROOT
BRANCH   1  12
ATOM      7  C   UNL     1       2.623  -1.740  -4.361  0.00  0.00    +0.121 A 
ATOM      8  C   UNL     1       3.363  -0.556  -4.441  0.00  0.00    +0.046 A 
ATOM      9  C   UNL     1       3.486   0.264  -3.364  0.00  0.00    +0.012 A 
ATOM     10  C   UNL     1       2.862  -0.078  -2.150  0.00  0.00    -0.017 A 
ATOM     11  C   UNL     1       2.971   0.748  -1.021  0.00  0.00    +0.018 A 
ATOM     12  C   UNL     1       2.345   0.379   0.155  0.00  0.00    +0.003 A 
ATOM     13  C   UNL     1       1.608  -0.814   0.228  0.00  0.00    +0.011 A 
ATOM     14  C   UNL     1       1.486  -1.625  -0.855  0.00  0.00    +0.009 A 
ATOM     15  C   UNL     1       2.111  -1.278  -2.067  0.00  0.00    -0.014 A 
ATOM     16  C   UNL     1       2.004  -2.103  -3.198  0.00  0.00    +0.054 A 
BRANCH   7  18
ATOM     17  C   UNL     1       3.186  -2.108  -6.641  0.00  0.00    +0.277 C 
ATOM     18  O   UNL     1       2.517  -2.540  -5.454  0.00  0.00    -0.495 OA
ENDBRANCH   7  18
ENDBRANCH   1  12
BRANCH   2  19
ATOM     19  C   UNL     1      -0.021   1.131   2.123  0.00  0.00    -0.039 C 
BRANCH  19  25
ATOM     20  C   UNL     1      -0.584   3.300   1.207  0.00  0.00    -0.078 C 
ATOM     21  C   UNL     1      -1.151   4.010  -0.025  0.00  0.00    -0.019 C 
ATOM     22  C   UNL     1      -2.612   3.598  -0.218  0.00  0.00    -0.003 C 
ATOM     23  C   UNL     1      -2.691   2.075  -0.358  0.00  0.00    -0.015 C 
ATOM     24  C   UNL     1      -2.079   1.421   0.883  0.00  0.00    -0.068 C 
ATOM     25  N   UNL     1      -0.666   1.839   0.998  0.00  0.00    +0.384 N 
ATOM     26  H   UNL     1      -0.176   1.599   0.129  0.00  0.00    -0.081 HD
BRANCH  24  27
ATOM     27  C   UNL     1      -2.137  -0.101   0.738  0.00  0.00    -0.013 C 
BRANCH  27  28
ATOM     28  C   UNL     1      -3.597  -0.550   0.654  0.00  0.00    +0.026 C 
BRANCH  28  29
ATOM     29  C   UNL     1      -3.660  -2.079   0.635  0.00  0.00    +0.156 C 
BRANCH  29  30
ATOM     30  O   UNL     1      -5.013  -2.498   0.441  0.00  0.00    -0.395 OA
ATOM     31  H   UNL     1      -5.128  -3.457   0.419  0.00  0.00    +0.209 HD
ENDBRANCH  29  30
ENDBRANCH  28  29
ENDBRANCH  27  28
ENDBRANCH  24  27
ENDBRANCH  19  25
ENDBRANCH   2  19
TORSDOF 8
