REMARK  Name = ZINC39581367
REMARK  12 active torsions:
REMARK  status: ('A' for Active; 'I' for Inactive)
REMARK    1  A    between atoms: C_1  and  C_2
REMARK    2  A    between atoms: C_2  and  C_4
REMARK    3  A    between atoms: C_2  and  N_10
REMARK    4  A    between atoms: C_11  and  C_13
REMARK    5  A    between atoms: C_13  and  C_15
REMARK    6  A    between atoms: C_13  and  O_16
REMARK    7  A    between atoms: O_16  and  C_17
REMARK    8  A    between atoms: C_17  and  C_19
REMARK    9  A    between atoms: C_24  and  N_25
REMARK   10  A    between atoms: N_25  and  S_26
REMARK   11  A    between atoms: S_26  and  C_29
REMARK   12  A    between atoms: C_33  and  N_35
REMARK                            x       y       z     vdW  Elec       q    Type
REMARK                         _______ _______ _______ _____ _____    ______ ____
ROOT
ATOM      1  C   UNL     1      -5.887  -0.888   4.003  0.00  0.00    +0.083 A 
ATOM      2  C   UNL     1      -5.084  -1.014   5.140  0.00  0.00    +0.017 A 
ATOM      3  C   UNL     1      -5.652  -0.958   6.393  0.00  0.00    +0.001 A 
ATOM      4  C   UNL     1      -7.019  -0.777   6.534  0.00  0.00    +0.002 A 
ATOM      5  C   UNL     1      -7.827  -0.651   5.423  0.00  0.00    +0.027 A 
ATOM      6  C   UNL     1      -7.271  -0.700   4.150  0.00  0.00    +0.088 A 
ENDROOT
BRANCH   1   7
ATOM      7  C   UNL     1      -5.286  -0.948   2.660  0.00  0.00    +0.342 C 
ATOM      8  O   UNL     1      -5.988  -0.833   1.674  0.00  0.00    -0.245 OA
BRANCH   7   9
ATOM      9  O   UNL     1      -3.958  -1.129   2.523  0.00  0.00    -0.449 OA
BRANCH   9  10
ATOM     10  C   UNL     1      -3.442  -1.177   1.191  0.00  0.00    +0.259 C 
ATOM     11  C   UNL     1      -3.457  -2.622   0.690  0.00  0.00    +0.062 C 
BRANCH  10  13
ATOM     12  N   UNL     1      -1.372  -0.511   0.012  0.00  0.00    -0.306 N 
ATOM     13  C   UNL     1      -2.029  -0.655   1.181  0.00  0.00    +0.254 C 
ATOM     14  O   UNL     1      -1.481  -0.365   2.224  0.00  0.00    -0.272 OA
ATOM     15  H   UNL     1      -1.810  -0.743  -0.822  0.00  0.00    +0.149 HD
BRANCH  12  17
ATOM     16  C   UNL     1      -0.019   1.526   0.010  0.00  0.00    +0.033 C 
ATOM     17  C   UNL     1       0.002  -0.004   0.002  0.00  0.00    +0.100 C 
BRANCH  17  18
ATOM     18  C   UNL     1       0.707  -0.490  -1.238  0.00  0.00    -0.027 A 
ATOM     19  C   UNL     1       0.038  -0.522  -2.447  0.00  0.00    +0.005 A 
ATOM     20  C   UNL     1       0.685  -0.967  -3.584  0.00  0.00    +0.000 A 
ATOM     21  C   UNL     1       2.002  -1.381  -3.513  0.00  0.00    +0.000 A 
ATOM     22  C   UNL     1       2.672  -1.349  -2.304  0.00  0.00    +0.000 A 
ATOM     23  C   UNL     1       2.026  -0.899  -1.167  0.00  0.00    +0.005 A 
ENDBRANCH  17  18
ENDBRANCH  12  17
ENDBRANCH  10  13
ENDBRANCH   9  10
ENDBRANCH   7   9
ENDBRANCH   1   7
BRANCH   6  24
ATOM     24  N   UNL     1      -8.080  -0.567   3.030  0.00  0.00    -0.097 NA
BRANCH  24  25
ATOM     25  S   UNL     1      -9.711  -0.344   3.208  0.00  0.00    +0.092 S 
ATOM     26  O   UNL     1     -10.225  -1.541   3.777  0.00  0.00    -0.148 OA
ATOM     27  O   UNL     1      -9.883   0.926   3.822  0.00  0.00    -0.148 OA
BRANCH  25  28
ATOM     28  C   UNL     1     -10.400  -0.220   1.591  0.00  0.00    +0.113 A 
ATOM     29  C   UNL     1     -10.501   1.014   0.976  0.00  0.00    +0.029 A 
ATOM     30  C   UNL     1     -11.041   1.112  -0.292  0.00  0.00    +0.004 A 
ATOM     31  C   UNL     1     -11.481  -0.025  -0.946  0.00  0.00    +0.033 A 
ATOM     32  C   UNL     1     -11.379  -1.258  -0.331  0.00  0.00    +0.128 A 
ATOM     33  C   UNL     1     -10.835  -1.357   0.936  0.00  0.00    +0.061 A 
BRANCH  32  34
ATOM     34  N   UNL     1     -11.850  -2.475  -1.031  0.00  0.00    +0.056 N 
ATOM     35  O   UNL     1     -12.324  -2.389  -2.140  0.00  0.00    -0.126 OA
ATOM     36  O   UNL     1     -11.761  -3.554  -0.493  0.00  0.00    -0.126 OA
ENDBRANCH  32  34
ENDBRANCH  25  28
ENDBRANCH  24  25
ENDBRANCH   6  24
TORSDOF 10
