REMARK  Name = ZINC04087237
REMARK  8 active torsions:
REMARK  status: ('A' for Active; 'I' for Inactive)
REMARK    1  A    between atoms: C_1  and  C_2
REMARK    2  A    between atoms: C_2  and  C_3
REMARK    3  A    between atoms: C_2  and  N_49
REMARK    4  A    between atoms: C_9  and  N_14
REMARK    5  A    between atoms: C_10  and  C_11
REMARK    6  A    between atoms: C_15  and  C_17
REMARK    7  A    between atoms: C_17  and  O_18
REMARK    8  A    between atoms: O_18  and  C_19
REMARK                            x       y       z     vdW  Elec       q    Type
REMARK                         _______ _______ _______ _____ _____    ______ ____
ROOT
ATOM      1  C   UNL     1       4.580   5.500   0.430  0.00  0.00    -0.073 C 
ATOM      2  C   UNL     1       3.113   5.395   0.004  0.00  0.00    +0.018 C 
ATOM      3  C   UNL     1       2.724   3.921  -0.002  0.00  0.00    -0.027 A 
ATOM      4  C   UNL     1       3.682   2.967  -0.018  0.00  0.00    -0.021 A 
ATOM      5  S   UNL     1       2.795   1.437  -0.018  0.00  0.00    -0.079 S 
ATOM      6  C   UNL     1       1.175   2.053   0.002  0.00  0.00    +0.084 A 
ATOM      7  C   UNL     1       1.359   3.430   0.002  0.00  0.00    +0.068 A 
ATOM      8  C   UNL     1       5.162   3.194  -0.033  0.00  0.00    -0.035 C 
ATOM      9  N   UNL     1       5.400   4.607  -0.414  0.00  0.00    +0.384 N 
ATOM     10  H   UNL     1       5.133   4.737  -1.397  0.00  0.00    -0.081 HD
ENDROOT
BRANCH   7  11
ATOM     11  C   UNL     1       0.218   4.350   0.010  0.00  0.00    +0.244 C 
ATOM     12  O   UNL     1      -0.248   4.732   1.068  0.00  0.00    -0.270 OA
ATOM     13  N   UNL     1      -0.314   4.774  -1.153  0.00  0.00    -0.325 N 
ATOM     14  H   UNL     1       0.057   4.470  -1.996  0.00  0.00    +0.145 HD
ATOM     15  H   UNL     1      -1.069   5.383  -1.148  0.00  0.00    +0.145 HD
ENDBRANCH   7  11
BRANCH   6  16
ATOM     16  N   UNL     1      -0.016   1.344   0.009  0.00  0.00    -0.277 N 
ATOM     17  C   UNL     1       0.002  -0.004   0.002  0.00  0.00    +0.255 C 
ATOM     18  O   UNL     1       1.060  -0.596  -0.011  0.00  0.00    -0.272 OA
ATOM     19  H   UNL     1      -0.863   1.817   0.016  0.00  0.00    +0.155 HD
BRANCH  17  20
ATOM     20  C   UNL     1      -1.293  -0.775   0.010  0.00  0.00    +0.324 C 
BRANCH  20  21
ATOM     21  O   UNL     1      -1.012  -2.176   0.000  0.00  0.00    -0.483 OA
BRANCH  21  22
ATOM     22  C   UNL     1      -2.079  -3.019   0.006  0.00  0.00    +0.121 A 
ATOM     23  C   UNL     1      -3.368  -2.507   0.026  0.00  0.00    +0.045 A 
ATOM     24  C   UNL     1      -4.451  -3.366   0.026  0.00  0.00    +0.004 A 
ATOM     25  C   UNL     1      -4.250  -4.734   0.017  0.00  0.00    +0.000 A 
ATOM     26  C   UNL     1      -2.966  -5.246   0.002  0.00  0.00    +0.004 A 
ATOM     27  C   UNL     1      -1.880  -4.392  -0.004  0.00  0.00    +0.045 A 
ENDBRANCH  21  22
ENDBRANCH  20  21
ENDBRANCH  17  20
ENDBRANCH   6  16
BRANCH   9  29
ATOM     28  C   UNL     1       7.273   4.737   1.193  0.00  0.00    -0.014 C 
ATOM     29  C   UNL     1       6.833   4.938  -0.259  0.00  0.00    -0.074 C 
ATOM     30  C   UNL     1       7.656   4.028  -1.172  0.00  0.00    -0.014 C 
ENDBRANCH   9  29
TORSDOF 6
