REMARK  Name = ZINC07376078
REMARK  3 active torsions:
REMARK  status: ('A' for Active; 'I' for Inactive)
REMARK    1  A    between atoms: C_6  and  S_7
REMARK    2  A    between atoms: S_7  and  N_10
REMARK    3  A    between atoms: N_10  and  C_11
REMARK                            x       y       z     vdW  Elec       q    Type
REMARK                         _______ _______ _______ _____ _____    ______ ____
ROOT
ATOM      1  S   UNL     1      -1.824   0.596   1.956  0.00  0.00    +0.059 S 
ATOM      2  O   UNL     1      -2.292   1.318   3.087  0.00  0.00    -0.153 OA
ATOM      3  O   UNL     1      -2.697   0.123   0.940  0.00  0.00    -0.153 OA
ENDROOT
BRANCH   1   9
ATOM      4  C   UNL     1      -0.827  -1.940   1.791  0.00  0.00    +0.029 A 
ATOM      5  C   UNL     1      -0.148  -3.040   2.278  0.00  0.00    +0.006 A 
ATOM      6  C   UNL     1       0.386  -3.020   3.555  0.00  0.00    -0.044 A 
ATOM      7  C   UNL     1       0.243  -1.893   4.343  0.00  0.00    -0.042 A 
ATOM      8  C   UNL     1      -0.433  -0.789   3.852  0.00  0.00    +0.032 A 
ATOM      9  C   UNL     1      -0.965  -0.811   2.577  0.00  0.00    +0.106 A 
ATOM     10  C   UNL     1       0.908  -2.119   5.684  0.00  0.00    +0.036 C 
ATOM     11  C   UNL     1       1.088  -3.648   5.793  0.00  0.00    +0.009 C 
ATOM     12  C   UNL     1       1.156  -4.080   4.313  0.00  0.00    +0.036 C 
ENDBRANCH   1   9
BRANCH   1  13
ATOM     13  N   UNL     1      -0.706   1.562   1.208  0.00  0.00    -0.187 NA
ATOM     14  H   UNL     1      -0.510   2.443   1.563  0.00  0.00    +0.148 HD
BRANCH  13  15
ATOM     15  C   UNL     1      -0.013   1.086   0.008  0.00  0.00    +0.077 C 
ATOM     16  C   UNL     1      -0.719   1.589  -1.222  0.00  0.00    +0.020 C 
ATOM     17  C   UNL     1      -0.658   0.584  -2.389  0.00  0.00    +0.002 C 
ATOM     18  C   UNL     1       0.725  -0.078  -2.535  0.00  0.00    +0.000 C 
ATOM     19  C   UNL     1       1.854   0.899  -2.349  0.00  0.00    +0.000 C 
ATOM     20  C   UNL     1       2.305   0.852  -0.875  0.00  0.00    +0.002 C 
ATOM     21  C   UNL     1       1.433   1.624  -0.003  0.00  0.00    +0.020 C 
ENDBRANCH  13  15
ENDBRANCH   1  13
TORSDOF 3
