REMARK  Name = ZINC02827388
REMARK  8 active torsions:
REMARK  status: ('A' for Active; 'I' for Inactive)
REMARK    1  A    between atoms: C_1  and  C_2
REMARK    2  A    between atoms: C_6  and  C_10
REMARK    3  A    between atoms: C_7  and  O_8
REMARK    4  A    between atoms: O_8  and  C_9
REMARK    5  A    between atoms: N_12  and  C_13
REMARK    6  A    between atoms: C_13  and  N_15
REMARK    7  A    between atoms: N_15  and  C_16
REMARK    8  A    between atoms: C_17  and  C_24
REMARK                            x       y       z     vdW  Elec       q    Type
REMARK                         _______ _______ _______ _____ _____    ______ ____
ROOT
ATOM      1  C   UNL     1       1.178  -0.662  -0.013  0.00  0.00    +0.141 C 
ATOM      2  S   UNL     1       2.649   0.214  -0.022  0.00  0.00    -0.018 S 
ENDROOT
BRANCH   1   5
ATOM      3  C   UNL     1      -0.016   1.344   0.009  0.00  0.00    +0.253 C 
ATOM      4  O   UNL     1       1.028   1.966   0.003  0.00  0.00    -0.270 OA
ATOM      5  N   UNL     1       0.002  -0.004   0.002  0.00  0.00    -0.263 N 
ATOM      6  H   UNL     1      -0.831  -0.500   0.007  0.00  0.00    +0.157 HD
BRANCH   3  12
ATOM      7  C   UNL     1      -2.575   5.638   0.046  0.00  0.00    +0.047 C 
ATOM      8  C   UNL     1      -2.543   4.132   0.037  0.00  0.00    -0.008 A 
ATOM      9  C   UNL     1      -3.724   3.417   0.039  0.00  0.00    +0.007 A 
ATOM     10  C   UNL     1      -3.705   2.031   0.031  0.00  0.00    +0.001 A 
ATOM     11  C   UNL     1      -2.506   1.353   0.021  0.00  0.00    +0.017 A 
ATOM     12  C   UNL     1      -1.303   2.063   0.019  0.00  0.00    +0.079 A 
ATOM     13  C   UNL     1      -1.327   3.465   0.033  0.00  0.00    +0.135 A 
BRANCH  13  14
ATOM     14  O   UNL     1      -0.166   4.166   0.037  0.00  0.00    -0.494 OA
ATOM     15  C   UNL     1       0.387   4.514  -1.234  0.00  0.00    +0.277 C 
ENDBRANCH  13  14
ENDBRANCH   3  12
ENDBRANCH   1   5
BRANCH   1  16
ATOM     16  N   UNL     1       1.196  -2.010  -0.020  0.00  0.00    -0.291 N 
ATOM     17  H   UNL     1       0.363  -2.506  -0.015  0.00  0.00    +0.154 HD
BRANCH  16  18
ATOM     18  C   UNL     1       2.406  -2.686  -0.035  0.00  0.00    +0.084 A 
ATOM     19  C   UNL     1       2.627  -4.053  -0.039  0.00  0.00    +0.068 A 
ATOM     20  C   UNL     1       4.015  -4.514  -0.059  0.00  0.00    -0.023 A 
ATOM     21  C   UNL     1       4.941  -3.538  -0.063  0.00  0.00    -0.004 A 
ATOM     22  S   UNL     1       4.006  -2.028  -0.046  0.00  0.00    -0.077 S 
ATOM     23  C   UNL     1       6.341  -4.089  -0.082  0.00  0.00    +0.043 C 
ATOM     24  C   UNL     1       6.175  -5.559  -0.525  0.00  0.00    +0.010 C 
ATOM     25  C   UNL     1       4.734  -5.864  -0.070  0.00  0.00    +0.037 C 
BRANCH  19  26
ATOM     26  C   UNL     1       1.511  -5.003  -0.028  0.00  0.00    +0.244 C 
ATOM     27  O   UNL     1       1.037  -5.397  -1.077  0.00  0.00    -0.270 OA
ATOM     28  N   UNL     1       1.011  -5.441   1.145  0.00  0.00    -0.325 N 
ATOM     29  H   UNL     1       1.389  -5.127   1.981  0.00  0.00    +0.145 HD
ATOM     30  H   UNL     1       0.273  -6.070   1.152  0.00  0.00    +0.145 HD
ENDBRANCH  19  26
ENDBRANCH  16  18
ENDBRANCH   1  16
TORSDOF 6
