REMARK  Name = ZINC15947651
REMARK  6 active torsions:
REMARK  status: ('A' for Active; 'I' for Inactive)
REMARK    1  A    between atoms: C_1  and  C_2
REMARK    2  A    between atoms: C_11  and  O_30
REMARK    3  A    between atoms: C_13  and  C_16
REMARK    4  A    between atoms: C_20  and  O_22
REMARK    5  A    between atoms: O_22  and  C_23
REMARK    6  A    between atoms: C_23  and  C_25
REMARK                            x       y       z     vdW  Elec       q    Type
REMARK                         _______ _______ _______ _____ _____    ______ ____
ROOT
ATOM      1  C   UNL     1      -0.714   1.303   0.287  0.00  0.00    +0.008 C 
ATOM      2  C   UNL     1      -0.576  -0.220   0.238  0.00  0.00    -0.009 C 
ATOM      3  C   UNL     1      -1.966  -0.861   0.260  0.00  0.00    +0.008 C 
ATOM      4  C   UNL     1      -1.853  -2.358  -0.036  0.00  0.00    +0.037 C 
ATOM      5  C   UNL     1      -0.825  -2.967   0.906  0.00  0.00    -0.023 A 
ATOM      6  C   UNL     1       0.076  -2.192   1.553  0.00  0.00    -0.004 A 
ATOM      7  S   UNL     1       1.040  -3.326   2.514  0.00  0.00    -0.078 S 
ATOM      8  C   UNL     1       0.300  -4.747   2.086  0.00  0.00    +0.080 A 
ATOM      9  C   UNL     1      -0.716  -4.386   1.194  0.00  0.00    +0.068 A 
ATOM     10  C   UNL     1      -1.568  -5.474   0.649  0.00  0.00    +0.220 C 
ATOM     11  N   UNL     1      -1.170  -6.704   0.830  0.00  0.00    -0.223 NA
ATOM     12  C   UNL     1       0.083  -7.080   1.473  0.00  0.00    +0.224 C 
ATOM     13  N   UNL     1       0.527  -6.058   2.439  0.00  0.00    -0.313 N 
ATOM     14  C   UNL     1       0.217  -0.704   1.461  0.00  0.00    +0.046 C 
ATOM     15  H   UNL     1       0.955  -6.297   3.276  0.00  0.00    +0.149 HD
ENDROOT
BRANCH  12  16
ATOM     16  C   UNL     1       1.145  -7.252   0.418  0.00  0.00    -0.002 A 
ATOM     17  C   UNL     1       2.470  -7.000   0.724  0.00  0.00    +0.007 A 
ATOM     18  C   UNL     1       3.446  -7.157  -0.241  0.00  0.00    +0.004 A 
ATOM     19  C   UNL     1       3.101  -7.566  -1.515  0.00  0.00    +0.046 A 
ATOM     20  C   UNL     1       1.773  -7.819  -1.825  0.00  0.00    +0.132 A 
ATOM     21  C   UNL     1       0.795  -7.666  -0.852  0.00  0.00    +0.053 A 
BRANCH  20  22
ATOM     22  O   UNL     1       1.430  -8.221  -3.077  0.00  0.00    -0.422 OA
BRANCH  22  23
ATOM     23  C   UNL     1       0.735  -7.361  -3.850  0.00  0.00    +0.351 C 
ATOM     24  O   UNL     1       0.524  -6.228  -3.462  0.00  0.00    -0.244 OA
BRANCH  23  25
ATOM     25  C   UNL     1       0.235  -7.792  -5.157  0.00  0.00    +0.097 A 
ATOM     26  C   UNL     1      -0.487  -7.072  -6.098  0.00  0.00    +0.022 A 
ATOM     27  C   UNL     1      -0.820  -7.753  -7.244  0.00  0.00    +0.008 A 
ATOM     28  C   UNL     1      -0.432  -9.046  -7.378  0.00  0.00    +0.046 A 
ATOM     29  S   UNL     1       0.402  -9.376  -5.957  0.00  0.00    -0.090 S 
ENDBRANCH  23  25
ENDBRANCH  22  23
ENDBRANCH  20  22
ENDBRANCH  12  16
BRANCH  10  30
ATOM     30  O   UNL     1      -2.717  -5.200  -0.012  0.00  0.00    -0.492 OA
ATOM     31  H   UNL     1      -3.189  -5.984  -0.322  0.00  0.00    +0.294 HD
ENDBRANCH  10  30
TORSDOF 5
