REMARK  Name = ZINC66700104
REMARK  12 active torsions:
REMARK  status: ('A' for Active; 'I' for Inactive)
REMARK    1  A    between atoms: C_1  and  C_2
REMARK    2  A    between atoms: C_2  and  C_3
REMARK    3  A    between atoms: C_3  and  N_4
REMARK    4  A    between atoms: N_4  and  C_5
REMARK    5  A    between atoms: C_5  and  C_6
REMARK    6  A    between atoms: C_11  and  O_12
REMARK    7  A    between atoms: N_15  and  C_16
REMARK    8  A    between atoms: C_16  and  C_17
REMARK    9  A    between atoms: C_20  and  N_23
REMARK   10  A    between atoms: N_26  and  C_27
REMARK   11  A    between atoms: C_27  and  C_28
REMARK   12  A    between atoms: C_27  and  C_29
REMARK                            x       y       z     vdW  Elec       q    Type
REMARK                         _______ _______ _______ _____ _____    ______ ____
ROOT
ATOM      1  N   UNL     1       0.985  -2.014  -1.632  0.00  0.00    -0.281 N 
ATOM      2  C   UNL     1       1.913  -2.664  -0.902  0.00  0.00    +0.303 C 
ATOM      3  O   UNL     1       1.862  -3.874  -0.793  0.00  0.00    -0.253 OA
ATOM      4  N   UNL     1       2.897  -1.974  -0.293  0.00  0.00    -0.295 N 
ATOM      5  H   UNL     1       2.937  -1.008  -0.380  0.00  0.00    +0.151 HD
ENDROOT
BRANCH   1   6
ATOM      6  C   UNL     1       1.046  -0.556  -1.764  0.00  0.00    +0.109 C 
BRANCH   6   8
ATOM      7  C   UNL     1       0.305   1.614  -0.773  0.00  0.00    +0.005 C 
ATOM      8  C   UNL     1       0.242   0.092  -0.635  0.00  0.00    +0.016 C 
ENDBRANCH   6   8
ENDBRANCH   1   6
BRANCH   1   9
ATOM      9  C   UNL     1      -0.084  -2.765  -2.294  0.00  0.00    +0.148 C 
BRANCH   9  10
ATOM     10  C   UNL     1       0.362  -3.161  -3.678  0.00  0.00    +0.011 A 
ATOM     11  C   UNL     1      -0.051  -2.428  -4.774  0.00  0.00    +0.009 A 
ATOM     12  C   UNL     1       0.358  -2.792  -6.044  0.00  0.00    +0.001 A 
ATOM     13  C   UNL     1       1.182  -3.888  -6.220  0.00  0.00    +0.004 A 
ATOM     14  C   UNL     1       1.598  -4.624  -5.128  0.00  0.00    +0.046 A 
ATOM     15  C   UNL     1       1.193  -4.259  -3.852  0.00  0.00    +0.122 A 
BRANCH  15  16
ATOM     16  O   UNL     1       1.605  -4.978  -2.775  0.00  0.00    -0.506 OA
ATOM     17  H   UNL     1       1.017  -5.709  -2.541  0.00  0.00    +0.292 HD
ENDBRANCH  15  16
ENDBRANCH   9  10
ENDBRANCH   1   9
BRANCH   4  18
ATOM     18  C   UNL     1       3.905  -2.680   0.501  0.00  0.00    +0.141 C 
BRANCH  18  19
ATOM     19  C   UNL     1       4.884  -1.686   1.070  0.00  0.00    -0.030 A 
ATOM     20  C   UNL     1       6.015  -1.343   0.353  0.00  0.00    +0.007 A 
ATOM     21  C   UNL     1       6.914  -0.432   0.872  0.00  0.00    +0.023 A 
ATOM     22  C   UNL     1       6.681   0.140   2.115  0.00  0.00    +0.035 A 
ATOM     23  C   UNL     1       5.544  -0.206   2.833  0.00  0.00    +0.023 A 
ATOM     24  C   UNL     1       4.646  -1.114   2.306  0.00  0.00    +0.007 A 
BRANCH  22  25
ATOM     25  N   UNL     1       7.590   1.063   2.644  0.00  0.00    -0.269 N 
ATOM     26  C   UNL     1       8.262   1.893   1.822  0.00  0.00    +0.304 C 
ATOM     27  O   UNL     1       8.009   1.908   0.633  0.00  0.00    -0.253 OA
ATOM     28  N   UNL     1       9.215   2.707   2.319  0.00  0.00    -0.297 N 
ATOM     29  H   UNL     1       7.736   1.106   3.602  0.00  0.00    +0.156 HD
ATOM     30  H   UNL     1       9.417   2.696   3.267  0.00  0.00    +0.151 HD
BRANCH  28  31
ATOM     31  C   UNL     1       9.946   3.610   1.425  0.00  0.00    +0.068 C 
ATOM     32  C   UNL     1       9.146   4.901   1.239  0.00  0.00    +0.027 C 
ATOM     33  C   UNL     1      11.309   3.938   2.036  0.00  0.00    +0.027 C 
ENDBRANCH  28  31
ENDBRANCH  22  25
ENDBRANCH  18  19
ENDBRANCH   4  18
TORSDOF 9
