REMARK  Name = ZINC09860892
REMARK  11 active torsions:
REMARK  status: ('A' for Active; 'I' for Inactive)
REMARK    1  A    between atoms: C_1  and  C_2
REMARK    2  A    between atoms: C_2  and  O_3
REMARK    3  A    between atoms: O_3  and  C_4
REMARK    4  A    between atoms: C_4  and  C_6
REMARK    5  A    between atoms: C_10  and  N_11
REMARK    6  A    between atoms: C_12  and  C_14
REMARK    7  A    between atoms: C_17  and  C_19
REMARK    8  A    between atoms: C_19  and  C_20
REMARK    9  A    between atoms: C_23  and  C_26
REMARK   10  A    between atoms: C_28  and  C_31
REMARK   11  A    between atoms: C_28  and  C_33
REMARK                            x       y       z     vdW  Elec       q    Type
REMARK                         _______ _______ _______ _____ _____    ______ ____
ROOT
ATOM      1  C   UNL     1      -0.685   9.454  -1.009  0.00  0.00    +0.091 A 
ATOM      2  C   UNL     1      -0.625   8.036  -0.695  0.00  0.00    -0.021 A 
ATOM      3  C   UNL     1       0.329   7.342  -1.351  0.00  0.00    -0.003 A 
ATOM      4  S   UNL     1       1.140   8.539  -2.372  0.00  0.00    -0.077 S 
ATOM      5  C   UNL     1       0.227   9.945  -1.935  0.00  0.00    +0.087 A 
ATOM      6  C   UNL     1       0.628   5.879  -1.228  0.00  0.00    +0.069 C 
ATOM      7  C   UNL     1      -0.070   5.347   0.032  0.00  0.00    +0.087 C 
ATOM      8  C   UNL     1      -1.520   5.841   0.041  0.00  0.00    +0.031 C 
ATOM      9  C   UNL     1      -1.555   7.348   0.297  0.00  0.00    +0.039 C 
ENDROOT
BRANCH   7  10
ATOM     10  C   UNL     1      -0.050   3.840   0.023  0.00  0.00    -0.027 A 
ATOM     11  C   UNL     1       1.156   3.165   0.008  0.00  0.00    +0.005 A 
ATOM     12  C   UNL     1       1.175   1.783   0.000  0.00  0.00    +0.000 A 
ATOM     13  C   UNL     1      -0.013   1.076   0.008  0.00  0.00    +0.000 A 
ATOM     14  C   UNL     1      -1.219   1.751   0.017  0.00  0.00    +0.000 A 
ATOM     15  C   UNL     1      -1.238   3.133   0.029  0.00  0.00    +0.005 A 
ENDBRANCH   7  10
BRANCH   5  16
ATOM     16  N   UNL     1       0.371  11.242  -2.396  0.00  0.00    -0.273 N 
ATOM     17  C   UNL     1       1.323  11.533  -3.305  0.00  0.00    +0.284 C 
ATOM     18  O   UNL     1       2.056  10.654  -3.720  0.00  0.00    -0.266 OA
ATOM     19  H   UNL     1      -0.213  11.943  -2.066  0.00  0.00    +0.156 HD
BRANCH  17  20
ATOM     20  C   UNL     1       1.476  12.906  -3.793  0.00  0.00    +0.190 A 
ATOM     21  C   UNL     1       2.394  13.335  -4.708  0.00  0.00    +0.055 A 
ATOM     22  C   UNL     1       2.182  14.712  -4.878  0.00  0.00    +0.046 A 
ATOM     23  C   UNL     1       1.156  15.059  -4.070  0.00  0.00    +0.110 A 
ATOM     24  O   UNL     1       0.729  13.967  -3.422  0.00  0.00    -0.455 OA
BRANCH  23  25
ATOM     25  C   UNL     1       0.582  16.445  -3.926  0.00  0.00    +0.109 C 
BRANCH  25  26
ATOM     26  C   UNL     1      -0.528  16.636  -4.927  0.00  0.00    -0.040 A 
ATOM     27  C   UNL     1      -0.246  17.139  -6.184  0.00  0.00    +0.004 A 
ATOM     28  C   UNL     1      -1.264  17.311  -7.104  0.00  0.00    +0.003 A 
ATOM     29  C   UNL     1      -2.564  16.986  -6.764  0.00  0.00    -0.050 A 
ATOM     30  C   UNL     1      -2.846  16.488  -5.506  0.00  0.00    +0.003 A 
ATOM     31  C   UNL     1      -1.828  16.313  -4.588  0.00  0.00    +0.004 A 
ATOM     32  C   UNL     1      -3.674  17.176  -7.766  0.00  0.00    +0.044 C 
ENDBRANCH  25  26
ENDBRANCH  23  25
ENDBRANCH  17  20
ENDBRANCH   5  16
BRANCH   1  33
ATOM     33  C   UNL     1      -1.670  10.332  -0.373  0.00  0.00    +0.342 C 
ATOM     34  O   UNL     1      -1.398  10.898   0.668  0.00  0.00    -0.245 OA
BRANCH  33  35
ATOM     35  O   UNL     1      -2.879  10.514  -0.944  0.00  0.00    -0.461 OA
BRANCH  35  37
ATOM     36  C   UNL     1      -5.112  11.478  -1.049  0.00  0.00    +0.048 C 
ATOM     37  C   UNL     1      -3.805  11.398  -0.258  0.00  0.00    +0.229 C 
ENDBRANCH  35  37
ENDBRANCH  33  35
ENDBRANCH   1  33
BRANCH   7  38
ATOM     38  C   UNL     1       0.627   5.843   1.229  0.00  0.00    +0.074 C 
ATOM     39  N   UNL     1       1.165   6.226   2.154  0.00  0.00    -0.196 NA
ENDBRANCH   7  38
TORSDOF 9
