REMARK  Name = ZINC06144255
REMARK  14 active torsions:
REMARK  status: ('A' for Active; 'I' for Inactive)
REMARK    1  A    between atoms: C_1  and  C_2
REMARK    2  A    between atoms: C_2  and  C_3
REMARK    3  A    between atoms: C_2  and  C_4
REMARK    4  A    between atoms: C_4  and  C_5
REMARK    5  A    between atoms: C_5  and  O_6
REMARK    6  A    between atoms: O_6  and  C_7
REMARK    7  A    between atoms: C_10  and  C_15
REMARK    8  A    between atoms: C_12  and  O_13
REMARK    9  A    between atoms: O_13  and  C_14
REMARK   10  A    between atoms: N_16  and  N_17
REMARK   11  A    between atoms: C_18  and  C_20
REMARK   12  A    between atoms: C_25  and  N_26
REMARK   13  A    between atoms: N_26  and  S_27
REMARK   14  A    between atoms: S_27  and  C_30
REMARK                            x       y       z     vdW  Elec       q    Type
REMARK                         _______ _______ _______ _____ _____    ______ ____
ROOT
ATOM      1  N   UNL     1      -0.950  -0.976   0.294  0.00  0.00    -0.203 N 
ATOM      2  C   UNL     1       0.143  -0.194   0.193  0.00  0.00    +0.265 C 
ATOM      3  O   UNL     1       1.239  -0.698   0.030  0.00  0.00    -0.268 OA
ATOM      4  H   UNL     1      -1.823  -0.574   0.424  0.00  0.00    +0.178 HD
ENDROOT
BRANCH   2   5
ATOM      5  C   UNL     1       0.012   1.271   0.278  0.00  0.00    +0.061 A 
ATOM      6  C   UNL     1      -1.245   1.855   0.459  0.00  0.00    +0.015 A 
ATOM      7  C   UNL     1      -1.360   3.225   0.542  0.00  0.00    +0.001 A 
ATOM      8  C   UNL     1      -0.237   4.031   0.438  0.00  0.00    +0.002 A 
ATOM      9  C   UNL     1       1.010   3.470   0.255  0.00  0.00    +0.025 A 
ATOM     10  C   UNL     1       1.148   2.090   0.173  0.00  0.00    +0.060 A 
BRANCH  10  11
ATOM     11  N   UNL     1       2.402   1.522  -0.012  0.00  0.00    -0.215 N 
ATOM     12  H   UNL     1       2.499   0.725  -0.556  0.00  0.00    +0.174 HD
BRANCH  11  13
ATOM     13  S   UNL     1       3.733   2.208   0.697  0.00  0.00    +0.079 S 
ATOM     14  O   UNL     1       4.824   1.335   0.440  0.00  0.00    -0.149 OA
ATOM     15  O   UNL     1       3.742   3.574   0.308  0.00  0.00    -0.149 OA
BRANCH  13  16
ATOM     16  C   UNL     1       3.467   2.182   2.438  0.00  0.00    +0.146 A 
ATOM     17  C   UNL     1       3.796   1.222   3.338  0.00  0.00    +0.036 A 
ATOM     18  C   UNL     1       3.487   1.419   4.671  0.00  0.00    +0.010 A 
ATOM     19  C   UNL     1       2.864   2.565   5.039  0.00  0.00    +0.047 A 
ATOM     20  S   UNL     1       2.702   3.415   3.478  0.00  0.00    -0.077 S 
ENDBRANCH  13  16
ENDBRANCH  11  13
ENDBRANCH  10  11
ENDBRANCH   2   5
BRANCH   1  22
ATOM     21  C   UNL     1      -1.878  -3.122   0.311  0.00  0.00    +0.138 C 
ATOM     22  N   UNL     1      -0.825  -2.369   0.213  0.00  0.00    -0.187 NA
BRANCH  21  26
ATOM     23  C   UNL     1      -1.493  -7.346   0.064  0.00  0.00    +0.162 A 
ATOM     24  C   UNL     1      -0.368  -6.540  -0.041  0.00  0.00    +0.050 A 
ATOM     25  C   UNL     1      -0.490  -5.168   0.033  0.00  0.00    +0.013 A 
ATOM     26  C   UNL     1      -1.746  -4.588   0.225  0.00  0.00    -0.002 A 
ATOM     27  C   UNL     1      -2.878  -5.400   0.331  0.00  0.00    +0.059 A 
ATOM     28  C   UNL     1      -2.749  -6.774   0.250  0.00  0.00    +0.162 A 
BRANCH  28  29
ATOM     29  O   UNL     1      -3.849  -7.567   0.352  0.00  0.00    -0.491 OA
ATOM     30  C   UNL     1      -5.106  -6.913   0.542  0.00  0.00    +0.277 C 
ENDBRANCH  28  29
BRANCH  23  31
ATOM     31  O   UNL     1      -1.368  -8.697  -0.016  0.00  0.00    -0.488 OA
BRANCH  31  32
ATOM     32  C   UNL     1      -0.051  -9.217  -0.207  0.00  0.00    +0.229 C 
BRANCH  32  33
ATOM     33  C   UNL     1      -0.110 -10.744  -0.271  0.00  0.00    +0.044 C 
BRANCH  33  35
ATOM     34  C   UNL     1       2.158 -10.980   0.750  0.00  0.00    +0.007 C 
ATOM     35  C   UNL     1       1.301 -11.301  -0.476  0.00  0.00    -0.014 C 
ATOM     36  C   UNL     1       1.228 -12.818  -0.665  0.00  0.00    +0.007 C 
ENDBRANCH  33  35
ENDBRANCH  32  33
ENDBRANCH  31  32
ENDBRANCH  23  31
ENDBRANCH  21  26
ENDBRANCH   1  22
TORSDOF 11
