REMARK  Name = ZINC00951762
REMARK  6 active torsions:
REMARK  status: ('A' for Active; 'I' for Inactive)
REMARK    1  A    between atoms: C_4  and  C_7
REMARK    2  A    between atoms: C_7  and  C_9
REMARK    3  A    between atoms: C_11  and  C_23
REMARK    4  A    between atoms: C_17  and  C_18
REMARK    5  A    between atoms: C_17  and  O_22
REMARK    6  A    between atoms: C_28  and  O_29
REMARK                            x       y       z     vdW  Elec       q    Type
REMARK                         _______ _______ _______ _____ _____    ______ ____
ROOT
ATOM      1  C   UNL     1      -3.160   3.953  -1.435  0.00  0.00    +0.144 C 
ATOM      2  C   UNL     1      -2.642   3.685  -0.018  0.00  0.00    +0.123 C 
ATOM      3  N   UNL     1      -3.728   3.135   0.794  0.00  0.00    -0.292 N 
ATOM      4  C   UNL     1      -5.010   3.441   0.545  0.00  0.00    +0.302 C 
ATOM      5  O   UNL     1      -5.873   2.965   1.257  0.00  0.00    -0.253 OA
ATOM      6  N   UNL     1      -5.378   4.253  -0.458  0.00  0.00    -0.264 N 
ATOM      7  C   UNL     1      -4.386   4.868  -1.341  0.00  0.00    +0.243 C 
ATOM      8  H   UNL     1      -3.517   2.535   1.527  0.00  0.00    +0.151 HD
ATOM      9  H   UNL     1      -6.319   4.437  -0.600  0.00  0.00    +0.153 HD
ENDROOT
BRANCH   2  10
ATOM     10  C   UNL     1      -1.506   2.697  -0.076  0.00  0.00    +0.015 A 
ATOM     11  C   UNL     1      -0.206   3.127   0.113  0.00  0.00    +0.009 A 
ATOM     12  C   UNL     1       0.837   2.222   0.054  0.00  0.00    +0.001 A 
ATOM     13  C   UNL     1       0.582   0.883  -0.183  0.00  0.00    +0.004 A 
ATOM     14  C   UNL     1      -0.716   0.448  -0.366  0.00  0.00    +0.046 A 
ATOM     15  C   UNL     1      -1.764   1.355  -0.312  0.00  0.00    +0.122 A 
BRANCH  15  16
ATOM     16  O   UNL     1      -3.042   0.929  -0.492  0.00  0.00    -0.506 OA
ATOM     17  H   UNL     1      -3.459   0.588   0.311  0.00  0.00    +0.292 HD
ENDBRANCH  15  16
ENDBRANCH   2  10
BRANCH   7  18
ATOM     18  C   UNL     1      -4.990   5.058  -2.734  0.00  0.00    +0.436 C 
ATOM     19  F   UNL     1      -5.255   3.807  -3.302  0.00  0.00    -0.166 F 
ATOM     20  F   UNL     1      -6.181   5.785  -2.631  0.00  0.00    -0.166 F 
ATOM     21  F   UNL     1      -4.087   5.755  -3.544  0.00  0.00    -0.166 F 
ENDBRANCH   7  18
BRANCH   1  22
ATOM     22  C   UNL     1      -2.084   4.625  -2.249  0.00  0.00    +0.173 C 
ATOM     23  O   UNL     1      -1.608   5.676  -1.875  0.00  0.00    -0.292 OA
BRANCH  22  27
ATOM     24  C   UNL     1      -0.718   2.839  -5.845  0.00  0.00    +0.000 A 
ATOM     25  C   UNL     1      -0.276   4.102  -5.493  0.00  0.00    +0.001 A 
ATOM     26  C   UNL     1      -0.716   4.690  -4.325  0.00  0.00    +0.011 A 
ATOM     27  C   UNL     1      -1.610   4.005  -3.497  0.00  0.00    +0.018 A 
ATOM     28  C   UNL     1      -2.048   2.727  -3.857  0.00  0.00    +0.011 A 
ATOM     29  C   UNL     1      -1.604   2.155  -5.030  0.00  0.00    +0.001 A 
ENDBRANCH  22  27
ENDBRANCH   1  22
BRANCH   7  30
ATOM     30  O   UNL     1      -3.996   6.137  -0.814  0.00  0.00    -0.364 OA
ATOM     31  H   UNL     1      -4.724   6.768  -0.727  0.00  0.00    +0.212 HD
ENDBRANCH   7  30
TORSDOF 6
