REMARK  Name = ZINC02816854
REMARK  8 active torsions:
REMARK  status: ('A' for Active; 'I' for Inactive)
REMARK    1  A    between atoms: C_1  and  O_2
REMARK    2  A    between atoms: O_2  and  C_3
REMARK    3  A    between atoms: C_5  and  C_20
REMARK    4  A    between atoms: C_8  and  O_9
REMARK    5  A    between atoms: O_9  and  C_10
REMARK    6  A    between atoms: C_10  and  C_11
REMARK    7  A    between atoms: C_11  and  S_12
REMARK    8  A    between atoms: S_12  and  C_13
REMARK                            x       y       z     vdW  Elec       q    Type
REMARK                         _______ _______ _______ _____ _____    ______ ____
ROOT
ATOM      1  C   UNL     1      -0.120   2.630   4.254  0.00  0.00    +0.164 A 
ATOM      2  C   UNL     1      -0.641   2.991   5.482  0.00  0.00    +0.061 A 
ATOM      3  C   UNL     1      -1.588   2.174   6.104  0.00  0.00    +0.022 A 
ATOM      4  C   UNL     1      -2.009   0.997   5.480  0.00  0.00    +0.035 A 
ATOM      5  C   UNL     1      -1.489   0.645   4.252  0.00  0.00    +0.087 A 
ATOM      6  C   UNL     1      -0.547   1.458   3.634  0.00  0.00    +0.180 A 
ATOM      7 CL   UNL     1      -2.013  -0.818   3.477  0.00  0.00    -0.080 Cl
ENDROOT
BRANCH   3   8
ATOM      8  C   UNL     1      -2.143   2.553   7.419  0.00  0.00    +0.142 A 
ATOM      9  N   UNL     1      -3.069   1.745   8.019  0.00  0.00    -0.306 N 
ATOM     10  H   UNL     1      -3.351   0.931   7.573  0.00  0.00    +0.170 HD
ATOM     11  C   UNL     1      -3.597   2.058   9.216  0.00  0.00    +0.260 A 
ATOM     12  O   UNL     1      -4.421   1.329   9.739  0.00  0.00    -0.267 OA
ATOM     13  C   UNL     1      -3.175   3.263   9.869  0.00  0.00    +0.075 A 
ATOM     14  C   UNL     1      -3.612   3.795  11.159  0.00  0.00    -0.023 A 
ATOM     15  C   UNL     1      -3.060   4.960  11.560  0.00  0.00    -0.004 A 
ATOM     16  S   UNL     1      -1.943   5.411  10.259  0.00  0.00    -0.073 S 
ATOM     17  C   UNL     1      -2.221   4.030   9.179  0.00  0.00    +0.116 A 
ATOM     18  N   UNL     1      -1.735   3.662   8.001  0.00  0.00    -0.222 NA
ATOM     19  C   UNL     1      -3.337   5.707  12.829  0.00  0.00    +0.043 C 
ATOM     20  C   UNL     1      -4.623   5.143  13.451  0.00  0.00    +0.005 C 
ATOM     21  C   UNL     1      -4.536   3.614  13.459  0.00  0.00    +0.005 C 
ATOM     22  C   UNL     1      -4.641   3.080  12.030  0.00  0.00    +0.037 C 
ENDBRANCH   3   8
BRANCH   1  24
ATOM     23  C   UNL     1       1.198   4.607   4.341  0.00  0.00    +0.277 C 
ATOM     24  O   UNL     1       0.805   3.421   3.649  0.00  0.00    -0.491 OA
ENDBRANCH   1  24
BRANCH   6  25
ATOM     25  O   UNL     1      -0.038   1.106   2.425  0.00  0.00    -0.486 OA
BRANCH  25  26
ATOM     26  C   UNL     1      -0.729   1.579   1.267  0.00  0.00    +0.240 C 
BRANCH  26  27
ATOM     27  C   UNL     1      -0.013   1.086   0.008  0.00  0.00    +0.115 C 
BRANCH  27  28
ATOM     28  S   UNL     1      -0.890   1.687  -1.462  0.00  0.00    -0.122 S 
BRANCH  28  29
ATOM     29  C   UNL     1       0.045   1.043  -2.809  0.00  0.00    +0.008 A 
ATOM     30  C   UNL     1       1.176   0.273  -2.567  0.00  0.00    +0.015 A 
ATOM     31  C   UNL     1       1.903  -0.235  -3.626  0.00  0.00    +0.001 A 
ATOM     32  C   UNL     1       1.513   0.031  -4.926  0.00  0.00    +0.000 A 
ATOM     33  C   UNL     1       0.391   0.802  -5.170  0.00  0.00    +0.001 A 
ATOM     34  C   UNL     1      -0.344   1.308  -4.117  0.00  0.00    +0.015 A 
ENDBRANCH  28  29
ENDBRANCH  27  28
ENDBRANCH  26  27
ENDBRANCH  25  26
ENDBRANCH   6  25
TORSDOF 7
