REMARK  Name = ZINC05276133
REMARK  7 active torsions:
REMARK  status: ('A' for Active; 'I' for Inactive)
REMARK    1  A    between atoms: C_1  and  C_2
REMARK    2  A    between atoms: C_2  and  C_4
REMARK    3  A    between atoms: C_2  and  O_29
REMARK    4  A    between atoms: C_4  and  O_28
REMARK    5  A    between atoms: C_9  and  C_27
REMARK    6  A    between atoms: C_19  and  C_26
REMARK    7  A    between atoms: C_22  and  O_25
REMARK                            x       y       z     vdW  Elec       q    Type
REMARK                         _______ _______ _______ _____ _____    ______ ____
ROOT
ATOM      1  C   UNL     1      -1.609   2.422  -0.626  0.00  0.00    +0.097 C 
ATOM      2  C   UNL     1      -0.536   1.329  -0.864  0.00  0.00    +0.038 C 
ATOM      3  C   UNL     1       0.119   1.048   0.516  0.00  0.00    +0.007 C 
ATOM      4  C   UNL     1      -0.843   1.722   1.505  0.00  0.00    +0.002 C 
ATOM      5  C   UNL     1      -1.230   3.010   0.751  0.00  0.00    +0.002 C 
ATOM      6  C   UNL     1      -2.344   3.745   1.450  0.00  0.00    +0.010 C 
ATOM      7  C   UNL     1      -2.240   3.583   2.975  0.00  0.00    +0.005 C 
ATOM      8  C   UNL     1      -0.795   3.349   3.394  0.00  0.00    +0.003 C 
ATOM      9  C   UNL     1      -0.335   1.974   2.889  0.00  0.00    +0.000 C 
ATOM     10  C   UNL     1       1.187   1.925   3.030  0.00  0.00    +0.031 C 
ATOM     11  C   UNL     1       1.498   2.138   4.490  0.00  0.00    -0.027 C 
ATOM     12  C   UNL     1       0.710   2.771   5.303  0.00  0.00    -0.065 C 
ATOM     13  C   UNL     1      -0.600   3.408   4.903  0.00  0.00    -0.008 C 
ATOM     14  C   UNL     1      -1.730   2.719   5.657  0.00  0.00    +0.014 C 
ATOM     15  C   UNL     1      -1.165   1.788   6.728  0.00  0.00    +0.032 C 
ATOM     16  C   UNL     1      -0.126   2.480   7.602  0.00  0.00    +0.119 C 
ATOM     17  C   UNL     1       1.097   2.878   6.768  0.00  0.00    +0.062 C 
ATOM     18  C   UNL     1      -0.563   4.886   5.311  0.00  0.00    +0.016 C 
ATOM     19  C   UNL     1      -0.031   3.933   0.515  0.00  0.00    +0.014 C 
ENDROOT
BRANCH   1  21
ATOM     20  C   UNL     1      -1.784   2.888  -3.071  0.00  0.00    +0.040 C 
ATOM     21  C   UNL     1      -1.521   3.506  -1.696  0.00  0.00    +0.144 C 
BRANCH  21  22
ATOM     22  O   UNL     1      -2.498   4.515  -1.433  0.00  0.00    -0.389 OA
ATOM     23  H   UNL     1      -3.408   4.190  -1.430  0.00  0.00    +0.210 HD
ENDBRANCH  21  22
ENDBRANCH   1  21
BRANCH  16  24
ATOM     24  O   UNL     1      -0.697   3.639   8.212  0.00  0.00    -0.391 OA
ATOM     25  H   UNL     1      -0.094   4.110   8.804  0.00  0.00    +0.210 HD
ENDBRANCH  16  24
BRANCH   1  26
ATOM     26  O   UNL     1      -2.910   1.847  -0.580  0.00  0.00    -0.385 OA
ATOM     27  H   UNL     1      -3.174   1.404  -1.398  0.00  0.00    +0.210 HD
ENDBRANCH   1  26
TORSDOF 4
