REMARK  Name = ZINC22916789
REMARK  11 active torsions:
REMARK  status: ('A' for Active; 'I' for Inactive)
REMARK    1  A    between atoms: C_1  and  C_2
REMARK    2  A    between atoms: C_5  and  C_9
REMARK    3  A    between atoms: C_7  and  C_8
REMARK    4  A    between atoms: C_9  and  C_11
REMARK    5  A    between atoms: C_9  and  N_12
REMARK    6  A    between atoms: C_13  and  C_15
REMARK    7  A    between atoms: C_15  and  N_16
REMARK    8  A    between atoms: N_19  and  C_22
REMARK    9  A    between atoms: C_22  and  C_23
REMARK   10  A    between atoms: C_27  and  C_34
REMARK   11  A    between atoms: C_30  and  C_33
REMARK                            x       y       z     vdW  Elec       q    Type
REMARK                         _______ _______ _______ _____ _____    ______ ____
ROOT
ATOM      1  N   UNL     1       2.126  -2.462  -1.618  0.00  0.00    +0.387 N 
ATOM      2  C   UNL     1       1.800  -2.357  -3.048  0.00  0.00    -0.063 C 
ATOM      3  C   UNL     1       3.013  -2.786  -3.877  0.00  0.00    +0.066 C 
ATOM      4  N   UNL     1       3.383  -4.164  -3.523  0.00  0.00    -0.298 NA
ATOM      5  C   UNL     1       3.709  -4.268  -2.094  0.00  0.00    +0.066 C 
ATOM      6  C   UNL     1       2.496  -3.839  -1.264  0.00  0.00    -0.063 C 
ATOM      7  H   UNL     1       2.994  -1.815  -1.419  0.00  0.00    -0.081 HD
ENDROOT
BRANCH   1   8
ATOM      8  C   UNL     1       1.011  -1.986  -0.789  0.00  0.00    +0.019 C 
BRANCH   8  10
ATOM      9  N   UNL     1      -0.152   0.150  -0.340  0.00  0.00    -0.310 N 
ATOM     10  C   UNL     1       0.821  -0.507  -1.003  0.00  0.00    +0.197 C 
ATOM     11  O   UNL     1       1.543   0.093  -1.771  0.00  0.00    -0.278 OA
ATOM     12  H   UNL     1      -0.807  -0.393   0.356  0.00  0.00    +0.149 HD
BRANCH   9  13
ATOM     13  C   UNL     1      -0.337   1.589  -0.548  0.00  0.00    +0.100 C 
ATOM     14  C   UNL     1      -1.221   1.817  -1.776  0.00  0.00    +0.033 C 
BRANCH  13  19
ATOM     15  C   UNL     1      -2.868   3.898   4.105  0.00  0.00    +0.044 C 
ATOM     16  C   UNL     1      -2.208   3.296   2.892  0.00  0.00    -0.048 A 
ATOM     17  C   UNL     1      -2.616   2.060   2.424  0.00  0.00    +0.004 A 
ATOM     18  C   UNL     1      -2.011   1.508   1.311  0.00  0.00    +0.006 A 
ATOM     19  C   UNL     1      -0.997   2.191   0.665  0.00  0.00    -0.027 A 
ATOM     20  C   UNL     1      -0.586   3.424   1.135  0.00  0.00    +0.009 A 
ATOM     21  C   UNL     1      -1.195   3.978   2.245  0.00  0.00    -0.047 A 
ATOM     22  C   UNL     1      -0.750   5.325   2.755  0.00  0.00    +0.044 C 
ENDBRANCH  13  19
ENDBRANCH   9  13
ENDBRANCH   8  10
ENDBRANCH   1   8
BRANCH   4  23
ATOM     23  C   UNL     1       4.498  -4.639  -4.353  0.00  0.00    +0.180 C 
BRANCH  23  24
ATOM     24  C   UNL     1       4.686  -6.119  -4.142  0.00  0.00    +0.230 C 
ATOM     25  O   UNL     1       3.895  -6.740  -3.464  0.00  0.00    -0.274 OA
ATOM     26  N   UNL     1       5.734  -6.753  -4.705  0.00  0.00    -0.300 N 
ATOM     27  C   UNL     1       6.697  -6.015  -5.534  0.00  0.00    +0.111 C 
ATOM     28  C   UNL     1       8.110  -6.276  -4.989  0.00  0.00    +0.004 C 
ATOM     29  C   UNL     1       8.358  -7.785  -4.930  0.00  0.00    +0.009 C 
ATOM     30  C   UNL     1       7.348  -8.432  -3.980  0.00  0.00    +0.004 C 
ATOM     31  C   UNL     1       5.930  -8.196  -4.509  0.00  0.00    +0.111 C 
ATOM     32  C   UNL     1       7.485  -7.811  -2.588  0.00  0.00    +0.009 C 
ATOM     33  C   UNL     1       9.140  -5.624  -5.913  0.00  0.00    +0.009 C 
ENDBRANCH  23  24
ENDBRANCH   4  23
TORSDOF 6
