REMARK  Name = ZINC39672281
REMARK  6 active torsions:
REMARK  status: ('A' for Active; 'I' for Inactive)
REMARK    1  A    between atoms: C_1  and  N_2
REMARK    2  A    between atoms: C_10  and  C_12
REMARK    3  A    between atoms: C_12  and  N_13
REMARK    4  A    between atoms: C_14  and  C_16
REMARK    5  A    between atoms: C_27  and  C_29
REMARK    6  A    between atoms: C_32  and  C_34
REMARK                            x       y       z     vdW  Elec       q    Type
REMARK                         _______ _______ _______ _____ _____    ______ ____
ROOT
ATOM      1  C   UNL     1       7.166  -3.753   2.425  0.00  0.00    +0.100 C 
ATOM      2  C   UNL     1       6.300  -4.650   3.338  0.00  0.00    +0.121 C 
ATOM      3  N   UNL     1       6.922  -5.992   3.244  0.00  0.00    -0.294 N 
ATOM      4  C   UNL     1       8.380  -5.722   3.229  0.00  0.00    +0.115 C 
ATOM      5  C   UNL     1       8.531  -4.458   2.359  0.00  0.00    -0.004 C 
ATOM      6  C   UNL     1       8.856  -4.846   0.920  0.00  0.00    -0.010 C 
ATOM      7  C   UNL     1      10.243  -5.494   0.871  0.00  0.00    -0.082 C 
ATOM      8  N   UNL     1      11.244  -4.550   1.384  0.00  0.00    +0.379 N 
ATOM      9  C   UNL     1      10.977  -4.255   2.796  0.00  0.00    -0.082 C 
ATOM     10  C   UNL     1       9.621  -3.554   2.926  0.00  0.00    -0.010 C 
ATOM     11  C   UNL     1       6.303  -7.188   3.185  0.00  0.00    +0.282 C 
ATOM     12  O   UNL     1       6.959  -8.210   3.109  0.00  0.00    -0.267 OA
ATOM     13  H   UNL     1      12.163  -4.956   1.294  0.00  0.00    -0.086 HD
ATOM     14  H   UNL     1      11.203  -3.696   0.849  0.00  0.00    -0.086 HD
ENDROOT
BRANCH  11  15
ATOM     15  C   UNL     1       4.840  -7.257   3.211  0.00  0.00    +0.190 A 
ATOM     16  C   UNL     1       4.083  -8.407   3.163  0.00  0.00    +0.055 A 
ATOM     17  C   UNL     1       2.743  -8.011   3.213  0.00  0.00    +0.051 A 
ATOM     18  C   UNL     1       2.730  -6.648   3.289  0.00  0.00    +0.139 A 
ATOM     19  O   UNL     1       3.998  -6.204   3.292  0.00  0.00    -0.450 OA
BRANCH  18  20
ATOM     20  C   UNL     1       1.522  -5.801   3.361  0.00  0.00    +0.052 A 
ATOM     21  C   UNL     1       0.480  -5.986   2.450  0.00  0.00    +0.014 A 
ATOM     22  C   UNL     1      -0.645  -5.192   2.523  0.00  0.00    +0.001 A 
ATOM     23  C   UNL     1      -0.745  -4.213   3.497  0.00  0.00    +0.003 A 
ATOM     24  C   UNL     1       0.282  -4.022   4.403  0.00  0.00    +0.039 A 
ATOM     25  C   UNL     1       1.413  -4.814   4.346  0.00  0.00    +0.134 A 
ATOM     26  F   UNL     1       2.414  -4.632   5.236  0.00  0.00    -0.205 F 
ENDBRANCH  18  20
ENDBRANCH  11  15
BRANCH   1  28
ATOM     27  N   UNL     1       6.764  -2.564   0.294  0.00  0.00    -0.311 N 
ATOM     28  C   UNL     1       6.556  -3.660   1.050  0.00  0.00    +0.218 C 
ATOM     29  O   UNL     1       5.878  -4.571   0.624  0.00  0.00    -0.275 OA
ATOM     30  H   UNL     1       7.306  -1.835   0.635  0.00  0.00    +0.149 HD
BRANCH  27  31
ATOM     31  C   UNL     1       6.171  -2.473  -1.043  0.00  0.00    +0.139 C 
BRANCH  31  41
ATOM     32  C   UNL     1       8.972   2.647  -3.962  0.00  0.00    +0.129 C 
ATOM     33  N   UNL     1       7.624   2.470  -3.416  0.00  0.00    -0.333 N 
ATOM     34  C   UNL     1       6.641   3.560  -3.484  0.00  0.00    +0.105 C 
ATOM     35  C   UNL     1       5.950   3.654  -2.117  0.00  0.00    +0.024 C 
ATOM     36  C   UNL     1       5.191   2.354  -1.856  0.00  0.00    +0.038 C 
ATOM     37  C   UNL     1       6.093   1.166  -2.064  0.00  0.00    -0.026 A 
ATOM     38  C   UNL     1       7.249   1.257  -2.826  0.00  0.00    +0.033 A 
ATOM     39  C   UNL     1       8.056   0.139  -3.006  0.00  0.00    +0.024 A 
ATOM     40  C   UNL     1       7.706  -1.066  -2.430  0.00  0.00    +0.007 A 
ATOM     41  C   UNL     1       6.552  -1.159  -1.673  0.00  0.00    -0.030 A 
ATOM     42  C   UNL     1       5.752  -0.044  -1.483  0.00  0.00    +0.010 A 
ENDBRANCH  31  41
ENDBRANCH  27  31
ENDBRANCH   1  28
TORSDOF 5
