REMARK  Name = ZINC06178042
REMARK  6 active torsions:
REMARK  status: ('A' for Active; 'I' for Inactive)
REMARK    1  A    between atoms: C_1  and  C_2
REMARK    2  A    between atoms: C_4  and  C_37
REMARK    3  A    between atoms: C_9  and  C_14
REMARK    4  A    between atoms: C_14  and  C_16
REMARK    5  A    between atoms: C_14  and  N_27
REMARK    6  A    between atoms: N_20  and  C_21
REMARK                            x       y       z     vdW  Elec       q    Type
REMARK                         _______ _______ _______ _____ _____    ______ ____
ROOT
ATOM      1  C   UNL     1      -2.490   0.996   0.019  0.00  0.00    +0.179 C 
ENDROOT
BRANCH   1  10
ATOM      2  C   UNL     1       4.819   2.333  -0.622  0.00  0.00    +0.044 C 
ATOM      3  C   UNL     1       3.396   2.822  -0.536  0.00  0.00    -0.050 A 
ATOM      4  C   UNL     1       3.132   4.184  -0.589  0.00  0.00    +0.008 A 
ATOM      5  C   UNL     1       1.838   4.653  -0.512  0.00  0.00    -0.026 A 
ATOM      6  C   UNL     1       0.785   3.755  -0.379  0.00  0.00    +0.052 A 
ATOM      7  C   UNL     1       1.056   2.374  -0.326  0.00  0.00    -0.001 A 
ATOM      8  C   UNL     1       2.377   1.921  -0.405  0.00  0.00    +0.013 A 
ATOM      9  C   UNL     1      -0.059   1.437  -0.186  0.00  0.00    +0.021 A 
ATOM     10  C   UNL     1      -1.319   1.934  -0.119  0.00  0.00    +0.045 A 
ATOM     11  C   UNL     1      -1.537   3.327  -0.171  0.00  0.00    +0.255 A 
ATOM     12  O   UNL     1      -2.677   3.754  -0.103  0.00  0.00    -0.268 OA
ATOM     13  N   UNL     1      -0.519   4.196  -0.299  0.00  0.00    -0.322 N 
ATOM     14  H   UNL     1      -0.704   5.148  -0.336  0.00  0.00    +0.169 HD
ATOM     15  C   UNL     1       1.566   6.134  -0.571  0.00  0.00    +0.046 C 
ENDBRANCH   1  10
BRANCH   1  16
ATOM     16  N   UNL     1      -3.256   1.342   1.224  0.00  0.00    -0.316 N 
ATOM     17  C   UNL     1      -2.369   1.795   2.297  0.00  0.00    +0.106 C 
ATOM     18  C   UNL     1      -3.218   2.113   3.534  0.00  0.00    +0.024 C 
ATOM     19  C   UNL     1      -3.785   0.796   4.068  0.00  0.00    +0.038 C 
ATOM     20  C   UNL     1      -4.369  -0.003   2.930  0.00  0.00    -0.026 A 
ATOM     21  C   UNL     1      -4.087   0.290   1.607  0.00  0.00    +0.034 A 
ATOM     22  C   UNL     1      -4.651  -0.491   0.597  0.00  0.00    +0.023 A 
ATOM     23  C   UNL     1      -5.486  -1.542   0.912  0.00  0.00    +0.002 A 
ATOM     24  C   UNL     1      -5.768  -1.827   2.235  0.00  0.00    +0.000 A 
ATOM     25  C   UNL     1      -5.211  -1.060   3.238  0.00  0.00    +0.005 A 
ENDBRANCH   1  16
BRANCH   1  26
ATOM     26  C   UNL     1      -3.378   1.119  -1.193  0.00  0.00    +0.177 A 
ATOM     27  N   UNL     1      -4.202   2.102  -1.463  0.00  0.00    -0.111 NA
ATOM     28  N   UNL     1      -4.778   1.841  -2.585  0.00  0.00    -0.023 NA
ATOM     29  N   UNL     1      -4.342   0.718  -3.039  0.00  0.00    -0.044 NA
ATOM     30  N   UNL     1      -3.474   0.244  -2.211  0.00  0.00    -0.224 N 
BRANCH  30  31
ATOM     31  C   UNL     1      -2.733  -1.013  -2.351  0.00  0.00    +0.111 C 
ATOM     32  C   UNL     1      -1.898  -0.972  -3.632  0.00  0.00    +0.027 C 
ATOM     33  C   UNL     1      -1.125  -2.284  -3.779  0.00  0.00    +0.002 C 
ATOM     34  C   UNL     1      -2.110  -3.452  -3.850  0.00  0.00    +0.000 C 
ATOM     35  C   UNL     1      -2.946  -3.493  -2.568  0.00  0.00    +0.002 C 
ATOM     36  C   UNL     1      -3.719  -2.180  -2.422  0.00  0.00    +0.027 C 
ENDBRANCH  30  31
ENDBRANCH   1  26
TORSDOF 4
