REMARK  Name = ZINC48522905
REMARK  9 active torsions:
REMARK  status: ('A' for Active; 'I' for Inactive)
REMARK    1  A    between atoms: C_1  and  C_2
REMARK    2  A    between atoms: C_2  and  O_4
REMARK    3  A    between atoms: O_4  and  C_5
REMARK    4  A    between atoms: C_9  and  C_37
REMARK    5  A    between atoms: C_14  and  C_36
REMARK    6  A    between atoms: C_24  and  O_32
REMARK    7  A    between atoms: N_27  and  N_28
REMARK    8  A    between atoms: O_32  and  C_33
REMARK    9  A    between atoms: C_33  and  C_35
REMARK                            x       y       z     vdW  Elec       q    Type
REMARK                         _______ _______ _______ _____ _____    ______ ____
ROOT
ATOM      1  C   UNL     1      -3.887  -1.337   0.874  0.00  0.00    +0.180 C 
ATOM      2  C   UNL     1      -4.785  -2.414   1.481  0.00  0.00    +0.046 C 
ATOM      3  C   UNL     1      -4.098  -3.776   1.501  0.00  0.00    +0.015 C 
ATOM      4  C   UNL     1      -3.495  -4.092   0.124  0.00  0.00    -0.008 C 
ATOM      5  C   UNL     1      -3.795  -5.520  -0.264  0.00  0.00    +0.003 C 
ATOM      6  C   UNL     1      -2.841  -6.146  -1.265  0.00  0.00    +0.005 C 
ATOM      7  C   UNL     1      -3.150  -7.648  -1.436  0.00  0.00    +0.013 C 
ATOM      8  C   UNL     1      -4.572  -7.833  -1.892  0.00  0.00    +0.015 C 
ATOM      9  C   UNL     1      -5.548  -7.070  -0.979  0.00  0.00    +0.008 C 
ATOM     10  C   UNL     1      -5.241  -5.615  -0.814  0.00  0.00    +0.001 C 
ATOM     11  C   UNL     1      -5.324  -4.789  -2.091  0.00  0.00    +0.031 C 
ATOM     12  C   UNL     1      -4.875  -3.379  -1.805  0.00  0.00    -0.027 C 
ATOM     13  C   UNL     1      -4.067  -3.083  -0.839  0.00  0.00    -0.064 C 
ATOM     14  C   UNL     1      -3.676  -1.630  -0.618  0.00  0.00    +0.075 C 
ATOM     15  C   UNL     1      -6.899  -7.497  -1.567  0.00  0.00    +0.055 C 
ATOM     16  C   UNL     1      -6.658  -9.014  -1.831  0.00  0.00    +0.223 C 
ATOM     17  C   UNL     1      -5.147  -9.234  -1.748  0.00  0.00    +0.083 C 
ATOM     18  N   UNL     1      -4.506 -10.319  -1.597  0.00  0.00    -0.184 NA
ATOM     19  C   UNL     1      -4.708  -7.487  -3.374  0.00  0.00    +0.018 C 
ATOM     20  C   UNL     1      -1.985  -3.880   0.223  0.00  0.00    +0.016 C 
ENDROOT
BRANCH  18  21
ATOM     21  N   UNL     1      -5.189 -11.543  -1.600  0.00  0.00    -0.191 N 
ATOM     22  C   UNL     1      -4.505 -12.696  -1.469  0.00  0.00    +0.317 C 
ATOM     23  O   UNL     1      -5.097 -13.758  -1.472  0.00  0.00    -0.251 OA
ATOM     24  N   UNL     1      -3.164 -12.673  -1.334  0.00  0.00    -0.312 N 
ATOM     25  H   UNL     1      -6.154 -11.559  -1.697  0.00  0.00    +0.179 HD
ATOM     26  H   UNL     1      -2.691 -11.826  -1.332  0.00  0.00    +0.147 HD
ATOM     27  H   UNL     1      -2.672 -13.504  -1.240  0.00  0.00    +0.147 HD
ENDBRANCH  18  21
BRANCH   1  28
ATOM     28  O   UNL     1      -4.510  -0.059   1.023  0.00  0.00    -0.461 OA
BRANCH  28  30
ATOM     29  C   UNL     1      -4.284   2.384   1.299  0.00  0.00    +0.136 C 
ATOM     30  C   UNL     1      -3.699   1.004   1.139  0.00  0.00    +0.304 C 
ATOM     31  O   UNL     1      -2.500   0.855   1.114  0.00  0.00    -0.251 OA
ENDBRANCH  28  30
ENDBRANCH   1  28
BRANCH  16  32
ATOM     32  O   UNL     1      -7.319  -9.791  -0.830  0.00  0.00    -0.455 OA
BRANCH  32  33
ATOM     33  C   UNL     1      -8.616 -10.069  -1.033  0.00  0.00    +0.305 C 
ATOM     34  O   UNL     1      -9.148  -9.749  -2.070  0.00  0.00    -0.251 OA
ATOM     35  C   UNL     1      -9.409 -10.780   0.033  0.00  0.00    +0.136 C 
ENDBRANCH  32  33
ENDBRANCH  16  32
TORSDOF 5
