REMARK  Name = ZINC20411250
REMARK  7 active torsions:
REMARK  status: ('A' for Active; 'I' for Inactive)
REMARK    1  A    between atoms: C_1  and  C_2
REMARK    2  A    between atoms: N_7  and  C_9
REMARK    3  A    between atoms: C_9  and  C_10
REMARK    4  A    between atoms: C_11  and  O_29
REMARK    5  A    between atoms: C_18  and  C_21
REMARK    6  A    between atoms: C_24  and  O_27
REMARK    7  A    between atoms: O_27  and  C_28
REMARK                            x       y       z     vdW  Elec       q    Type
REMARK                         _______ _______ _______ _____ _____    ______ ____
ROOT
ATOM      1  C   UNL     1      -1.388  -0.527   0.259  0.00  0.00    +0.020 A 
ATOM      2  C   UNL     1      -1.807  -0.776   1.555  0.00  0.00    +0.122 A 
ATOM      3  C   UNL     1      -3.091  -1.255   1.806  0.00  0.00    +0.046 A 
ATOM      4  C   UNL     1      -3.951  -1.494   0.772  0.00  0.00    +0.019 A 
ATOM      5  C   UNL     1      -3.542  -1.253  -0.540  0.00  0.00    +0.065 A 
ATOM      6  C   UNL     1      -2.250  -0.765  -0.803  0.00  0.00    +0.143 A 
ATOM      7  O   UNL     1      -1.856  -0.531  -2.071  0.00  0.00    -0.462 OA
ATOM      8  C   UNL     1      -2.640  -0.741  -3.132  0.00  0.00    +0.208 A 
ATOM      9  C   UNL     1      -3.910  -1.209  -3.022  0.00  0.00    +0.064 A 
ATOM     10  C   UNL     1      -4.443  -1.498  -1.680  0.00  0.00    +0.200 A 
ATOM     11  O   UNL     1      -5.575  -1.921  -1.520  0.00  0.00    -0.286 OA
ENDROOT
BRANCH   9  12
ATOM     12  C   UNL     1      -4.743  -1.425  -4.229  0.00  0.00    -0.011 A 
ATOM     13  C   UNL     1      -5.401  -2.639  -4.416  0.00  0.00    +0.012 A 
ATOM     14  C   UNL     1      -6.181  -2.835  -5.537  0.00  0.00    +0.046 A 
ATOM     15  C   UNL     1      -6.301  -1.828  -6.485  0.00  0.00    +0.120 A 
ATOM     16  C   UNL     1      -5.642  -0.619  -6.305  0.00  0.00    +0.046 A 
ATOM     17  C   UNL     1      -4.866  -0.416  -5.183  0.00  0.00    +0.012 A 
BRANCH  15  18
ATOM     18  O   UNL     1      -7.065  -2.025  -7.591  0.00  0.00    -0.495 OA
ATOM     19  C   UNL     1      -7.715  -3.292  -7.713  0.00  0.00    +0.277 C 
ENDBRANCH  15  18
ENDBRANCH   9  12
BRANCH   2  20
ATOM     20  O   UNL     1      -0.960  -0.548   2.591  0.00  0.00    -0.506 OA
ATOM     21  H   UNL     1      -1.288  -0.745   3.623  0.00  0.00    +0.292 HD
ENDBRANCH   2  20
BRANCH   1  22
ATOM     22  C   UNL     1       0.002  -0.004   0.002  0.00  0.00    -0.036 C 
BRANCH  22  28
ATOM     23  C   UNL     1       2.707   4.102  -0.126  0.00  0.00    +0.005 C 
ATOM     24  C   UNL     1       1.287   3.533  -0.138  0.00  0.00    -0.031 C 
ATOM     25  C   UNL     1       0.493   4.116   1.034  0.00  0.00    -0.001 C 
ATOM     26  C   UNL     1      -0.907   3.496   1.050  0.00  0.00    -0.018 C 
ATOM     27  C   UNL     1      -0.785   1.974   1.154  0.00  0.00    -0.078 C 
ATOM     28  N   UNL     1      -0.018   1.465   0.010  0.00  0.00    +0.383 N 
ATOM     29  C   UNL     1       1.346   2.010   0.000  0.00  0.00    -0.075 C 
ATOM     30  H   UNL     1      -0.521   1.803  -0.908  0.00  0.00    -0.081 HD
ENDBRANCH  22  28
ENDBRANCH   1  22
TORSDOF 5
