REMARK  Name = ZINC14245372
REMARK  7 active torsions:
REMARK  status: ('A' for Active; 'I' for Inactive)
REMARK    1  A    between atoms: C_1  and  C_2
REMARK    2  A    between atoms: C_2  and  C_3
REMARK    3  A    between atoms: C_2  and  C_4
REMARK    4  A    between atoms: C_2  and  C_5
REMARK    5  A    between atoms: C_5  and  C_7
REMARK    6  A    between atoms: N_9  and  C_26
REMARK    7  A    between atoms: C_13  and  C_14
REMARK                            x       y       z     vdW  Elec       q    Type
REMARK                         _______ _______ _______ _____ _____    ______ ____
ROOT
ATOM      1  C   UNL     1      -2.113  -6.066  -0.453  0.00  0.00    +0.080 C 
ATOM      2  C   UNL     1      -1.654  -4.766  -0.331  0.00  0.00    +0.087 A 
ATOM      3  N   UNL     1      -0.355  -4.323  -0.252  0.00  0.00    -0.305 N 
ATOM      4  C   UNL     1      -0.087  -3.033  -0.137  0.00  0.00    +0.266 A 
ATOM      5  O   UNL     1       1.057  -2.624  -0.066  0.00  0.00    -0.266 OA
ATOM      6  C   UNL     1      -1.239  -2.112  -0.101  0.00  0.00    +0.079 A 
ATOM      7  C   UNL     1      -1.258  -0.758   0.009  0.00  0.00    +0.028 C 
ATOM      8  S   UNL     1      -2.604  -3.258  -0.232  0.00  0.00    -0.066 S 
ATOM      9  C   UNL     1       0.744  -5.290  -0.294  0.00  0.00    +0.153 C 
ENDROOT
BRANCH   7  10
ATOM     10  C   UNL     1      -0.014  -0.027   0.284  0.00  0.00    -0.019 A 
ATOM     11  C   UNL     1       0.919  -0.544   1.191  0.00  0.00    +0.057 A 
ATOM     12  C   UNL     1       2.088   0.148   1.448  0.00  0.00    +0.164 A 
ATOM     13  C   UNL     1       2.338   1.356   0.802  0.00  0.00    +0.180 A 
ATOM     14  C   UNL     1       1.411   1.871  -0.099  0.00  0.00    +0.087 A 
ATOM     15  C   UNL     1       0.243   1.189  -0.359  0.00  0.00    +0.032 A 
ATOM     16 CL   UNL     1       1.729   3.379  -0.898  0.00  0.00    -0.080 Cl
ATOM     17  O   UNL     1       3.487   2.046   1.039  0.00  0.00    -0.483 OA
ATOM     18  C   UNL     1       4.217   1.695   2.220  0.00  0.00    +0.270 C 
ATOM     19  C   UNL     1       4.312   0.165   2.290  0.00  0.00    +0.270 C 
ATOM     20  O   UNL     1       2.982  -0.364   2.337  0.00  0.00    -0.485 OA
ENDBRANCH   7  10
BRANCH   1  21
ATOM     21  C   UNL     1      -3.478  -6.318  -0.519  0.00  0.00    +0.164 C 
ATOM     22  O   UNL     1      -4.270  -5.394  -0.470  0.00  0.00    -0.292 OA
BRANCH  21  24
ATOM     23  C   UNL     1      -5.507  -7.731  -0.703  0.00  0.00    +0.019 C 
ATOM     24  C   UNL     1      -3.978  -7.733  -0.652  0.00  0.00    +0.025 C 
ATOM     25  C   UNL     1      -3.425  -8.351  -1.938  0.00  0.00    +0.019 C 
ATOM     26  C   UNL     1      -3.509  -8.554   0.551  0.00  0.00    +0.019 C 
ENDBRANCH  21  24
ENDBRANCH   1  21
TORSDOF 3
