REMARK  Name = ZINC01901796
REMARK  3 active torsions:
REMARK  status: ('A' for Active; 'I' for Inactive)
REMARK    1  A    between atoms: C_4  and  O_7
REMARK    2  A    between atoms: O_7  and  C_8
REMARK    3  A    between atoms: C_11  and  C_14
REMARK                            x       y       z     vdW  Elec       q    Type
REMARK                         _______ _______ _______ _____ _____    ______ ____
ROOT
ATOM      1  C   UNL     1       6.263   5.769  -0.166  0.00  0.00    +0.047 C 
ATOM      2  C   UNL     1       7.422   5.087  -0.244  0.00  0.00    +0.023 C 
ATOM      3  C   UNL     1       8.501   6.134  -0.251  0.00  0.00    +0.138 C 
ATOM      4  C   UNL     1       9.628   5.902   0.712  0.00  0.00    +0.017 A 
ATOM      5  C   UNL     1      10.020   4.665   1.148  0.00  0.00    +0.009 A 
ATOM      6  C   UNL     1      11.047   4.558   2.072  0.00  0.00    +0.001 A 
ATOM      7  C   UNL     1      11.669   5.699   2.545  0.00  0.00    +0.004 A 
ATOM      8  C   UNL     1      11.281   6.947   2.099  0.00  0.00    +0.046 A 
ATOM      9  C   UNL     1      10.259   7.066   1.169  0.00  0.00    +0.128 A 
ATOM     10  O   UNL     1       9.876   8.279   0.705  0.00  0.00    -0.469 OA
ATOM     11  C   UNL     1       8.548   8.499   0.207  0.00  0.00    +0.177 C 
ATOM     12  N   UNL     1       7.771   7.293   0.347  0.00  0.00    -0.177 NA
ATOM     13  N   UNL     1       6.522   7.154  -0.130  0.00  0.00    -0.273 N 
ATOM     14  C   UNL     1       7.910   9.645   1.003  0.00  0.00    +0.047 C 
ATOM     15  C   UNL     1       8.755  10.909   0.828  0.00  0.00    -0.077 C 
ATOM     16  C   UNL     1       9.461  10.198  -1.378  0.00  0.00    -0.077 C 
ATOM     17  C   UNL     1       8.638   8.913  -1.266  0.00  0.00    +0.047 C 
ATOM     18  H   UNL     1       5.920   7.866  -0.397  0.00  0.00    +0.167 HD
ATOM     19  N   UNL     1       8.817  11.273  -0.600  0.00  0.00    +0.379 N 
ATOM     20  H   UNL     1       9.359  12.139  -0.705  0.00  0.00    -0.086 HD
ATOM     21  H   UNL     1       7.864  11.421  -0.953  0.00  0.00    -0.086 HD
ENDROOT
BRANCH   1  25
ATOM     22  C   UNL     1       2.396   4.008  -0.033  0.00  0.00    +0.128 A 
ATOM     23  C   UNL     1       3.523   3.200  -0.114  0.00  0.00    +0.047 A 
ATOM     24  C   UNL     1       4.778   3.768  -0.162  0.00  0.00    +0.013 A 
ATOM     25  C   UNL     1       4.916   5.156  -0.120  0.00  0.00    -0.003 A 
ATOM     26  C   UNL     1       3.782   5.964  -0.033  0.00  0.00    +0.013 A 
ATOM     27  C   UNL     1       2.530   5.389   0.010  0.00  0.00    +0.047 A 
BRANCH  22  28
ATOM     28  O   UNL     1       1.161   3.445   0.009  0.00  0.00    -0.456 OA
BRANCH  28  32
ATOM     29  C   UNL     1      -0.786   2.774  -3.566  0.00  0.00    +0.000 A 
ATOM     30  C   UNL     1       0.478   3.334  -3.563  0.00  0.00    +0.004 A 
ATOM     31  C   UNL     1       1.132   3.560  -2.367  0.00  0.00    +0.046 A 
ATOM     32  C   UNL     1       0.519   3.224  -1.168  0.00  0.00    +0.128 A 
ATOM     33  C   UNL     1      -0.749   2.662  -1.174  0.00  0.00    +0.046 A 
ATOM     34  C   UNL     1      -1.399   2.438  -2.373  0.00  0.00    +0.004 A 
ENDBRANCH  28  32
ENDBRANCH  22  28
ENDBRANCH   1  25
TORSDOF 3
