REMARK  Name = ZINC12511965
REMARK  10 active torsions:
REMARK  status: ('A' for Active; 'I' for Inactive)
REMARK    1  A    between atoms: C_1  and  C_2
REMARK    2  A    between atoms: C_2  and  O_3
REMARK    3  A    between atoms: O_3  and  C_4
REMARK    4  A    between atoms: N_9  and  C_12
REMARK    5  A    between atoms: C_13  and  C_22
REMARK    6  A    between atoms: C_17  and  C_21
REMARK    7  A    between atoms: C_22  and  N_64
REMARK    8  A    between atoms: C_23  and  C_24
REMARK    9  A    between atoms: C_23  and  N_64
REMARK   10  A    between atoms: C_24  and  C_25
REMARK                            x       y       z     vdW  Elec       q    Type
REMARK                         _______ _______ _______ _____ _____    ______ ____
ROOT
ATOM      1  C   UNL     1      -0.729   2.810  -4.157  0.00  0.00    +0.101 A 
ATOM      2  C   UNL     1      -0.733   1.467  -3.753  0.00  0.00    -0.026 A 
ATOM      3  C   UNL     1      -1.623   0.596  -4.305  0.00  0.00    +0.015 A 
ATOM      4  C   UNL     1      -2.528   1.085  -5.269  0.00  0.00    -0.001 A 
ATOM      5  C   UNL     1      -3.475   0.243  -5.873  0.00  0.00    +0.013 A 
ATOM      6  C   UNL     1      -4.331   0.750  -6.804  0.00  0.00    -0.050 A 
ATOM      7  C   UNL     1      -4.279   2.095  -7.164  0.00  0.00    +0.005 A 
ATOM      8  C   UNL     1      -3.373   2.939  -6.598  0.00  0.00    +0.026 A 
ATOM      9  C   UNL     1      -2.474   2.452  -5.634  0.00  0.00    +0.048 A 
ATOM     10  C   UNL     1      -5.347  -0.155  -7.451  0.00  0.00    +0.044 C 
ATOM     11  N   UNL     1      -1.571   3.335  -5.082  0.00  0.00    -0.343 N 
ATOM     12  H   UNL     1      -1.539   4.324  -5.352  0.00  0.00    +0.167 HD
ENDROOT
BRANCH   1  18
ATOM     13  C   UNL     1       1.981   7.322  -3.203  0.00  0.00    +0.403 C 
ATOM     14  O   UNL     1       2.864   7.629  -3.980  0.00  0.00    -0.226 OA
ATOM     15  N   UNL     1       1.599   6.034  -3.092  0.00  0.00    -0.264 N 
ATOM     16  C   UNL     1       2.238   4.985  -3.901  0.00  0.00    +0.130 C 
ATOM     17  C   UNL     1       1.142   4.170  -4.595  0.00  0.00    +0.125 C 
ATOM     18  N   UNL     1       0.186   3.685  -3.591  0.00  0.00    -0.313 N 
ATOM     19  C   UNL     1      -0.496   4.801  -2.922  0.00  0.00    +0.125 C 
ATOM     20  C   UNL     1       0.533   5.641  -2.159  0.00  0.00    +0.130 C 
BRANCH  13  21
ATOM     21  O   UNL     1       1.384   8.268  -2.454  0.00  0.00    -0.451 OA
BRANCH  21  23
ATOM     22  C   UNL     1       1.056  10.560  -1.699  0.00  0.00    +0.048 C 
ATOM     23  C   UNL     1       1.846   9.634  -2.627  0.00  0.00    +0.230 C 
ENDBRANCH  21  23
ENDBRANCH  13  21
ENDBRANCH   1  18
BRANCH   2  24
ATOM     24  C   UNL     1       0.248   0.988  -2.715  0.00  0.00    -0.043 C 
BRANCH  24  25
ATOM     25  N   UNL     1      -0.228   1.390  -1.378  0.00  0.00    +0.382 N 
ATOM     26  H   UNL     1      -1.182   1.038  -1.239  0.00  0.00    -0.085 HD
ATOM     27  H   UNL     1      -0.227   2.414  -1.312  0.00  0.00    -0.085 HD
BRANCH  25  28
ATOM     28  C   UNL     1       0.653   0.835  -0.333  0.00  0.00    -0.077 C 
BRANCH  28  29
ATOM     29  C   UNL     1       0.136   1.267   1.040  0.00  0.00    +0.016 C 
BRANCH  29  30
ATOM     30  C   UNL     1       1.030   0.704   2.115  0.00  0.00    -0.049 A 
ATOM     31  C   UNL     1       0.755  -0.534   2.663  0.00  0.00    +0.005 A 
ATOM     32  C   UNL     1       1.578  -1.054   3.645  0.00  0.00    +0.020 A 
ATOM     33  C   UNL     1       2.671  -0.330   4.085  0.00  0.00    +0.041 A 
ATOM     34  C   UNL     1       2.943   0.912   3.539  0.00  0.00    +0.020 A 
ATOM     35  C   UNL     1       2.122   1.428   2.554  0.00  0.00    +0.005 A 
ATOM     36 CL   UNL     1       3.702  -0.979   5.322  0.00  0.00    -0.084 Cl
ENDBRANCH  29  30
ENDBRANCH  28  29
ENDBRANCH  25  28
ENDBRANCH  24  25
ENDBRANCH   2  24
TORSDOF 8
