REMARK  Name = ZINC10818272
REMARK  13 active torsions:
REMARK  status: ('A' for Active; 'I' for Inactive)
REMARK    1  A    between atoms: C_1  and  C_2
REMARK    2  A    between atoms: C_2  and  O_3
REMARK    3  A    between atoms: O_3  and  C_4
REMARK    4  A    between atoms: C_7  and  O_10
REMARK    5  A    between atoms: O_10  and  C_11
REMARK    6  A    between atoms: C_11  and  C_12
REMARK    7  A    between atoms: C_11  and  C_13
REMARK    8  A    between atoms: C_11  and  C_14
REMARK    9  A    between atoms: N_16  and  C_17
REMARK   10  A    between atoms: C_19  and  C_24
REMARK   11  A    between atoms: C_19  and  C_25
REMARK   12  A    between atoms: C_20  and  C_22
REMARK   13  A    between atoms: C_20  and  C_23
REMARK                            x       y       z     vdW  Elec       q    Type
REMARK                         _______ _______ _______ _____ _____    ______ ____
ROOT
ATOM      1  C   UNL     1       2.325  -4.255   0.070  0.00  0.00    +0.257 C 
ATOM      2  O   UNL     1       1.226  -4.763   0.007  0.00  0.00    -0.271 OA
ATOM      3  N   UNL     1       3.421  -5.032   0.184  0.00  0.00    -0.309 N 
ATOM      4  H   UNL     1       4.300  -4.627   0.234  0.00  0.00    +0.149 HD
ENDROOT
BRANCH   3   5
ATOM      5  C   UNL     1       3.282  -6.494   0.231  0.00  0.00    +0.070 C 
ATOM      6  C   UNL     1       3.037  -6.929   1.676  0.00  0.00    +0.009 C 
ATOM      7  C   UNL     1       2.912  -8.448   1.759  0.00  0.00    -0.072 C 
ATOM      8  C   UNL     1       4.471  -8.660  -0.198  0.00  0.00    -0.072 C 
ATOM      9  C   UNL     1       4.579  -7.138  -0.257  0.00  0.00    +0.009 C 
ATOM     10  C   UNL     1       3.591  -9.156  -1.351  0.00  0.00    -0.010 C 
ATOM     11  C   UNL     1       5.887  -9.236  -0.423  0.00  0.00    -0.010 C 
ATOM     12  C   UNL     1       1.542  -8.880   1.222  0.00  0.00    -0.010 C 
ATOM     13  C   UNL     1       2.959  -8.838   3.254  0.00  0.00    -0.010 C 
ATOM     14  N   UNL     1       4.015  -9.205   1.109  0.00  0.00    +0.386 N 
ATOM     15  H   UNL     1       3.693 -10.168   0.956  0.00  0.00    -0.084 HD
ATOM     16  H   UNL     1       4.818  -9.210   1.749  0.00  0.00    -0.084 HD
ENDBRANCH   3   5
BRANCH   1  17
ATOM     17  C   UNL     1       2.467  -2.756   0.021  0.00  0.00    +0.180 C 
ATOM     18  C   UNL     1       3.326  -2.364  -1.183  0.00  0.00    +0.065 C 
ATOM     19  C   UNL     1       3.137  -2.265   1.306  0.00  0.00    +0.065 C 
BRANCH  17  20
ATOM     20  O   UNL     1       1.175  -2.159  -0.101  0.00  0.00    -0.477 OA
BRANCH  20  24
ATOM     21  C   UNL     1      -1.038  -3.145  -3.442  0.00  0.00    +0.121 A 
ATOM     22  C   UNL     1      -1.508  -2.185  -2.559  0.00  0.00    +0.049 A 
ATOM     23  C   UNL     1      -0.767  -1.855  -1.440  0.00  0.00    +0.049 A 
ATOM     24  C   UNL     1       0.446  -2.484  -1.201  0.00  0.00    +0.122 A 
ATOM     25  C   UNL     1       0.915  -3.444  -2.086  0.00  0.00    +0.049 A 
ATOM     26  C   UNL     1       0.175  -3.774  -3.204  0.00  0.00    +0.049 A 
BRANCH  21  27
ATOM     27  O   UNL     1      -1.768  -3.471  -4.543  0.00  0.00    -0.492 OA
BRANCH  27  29
ATOM     28  C   UNL     1      -2.178  -4.698  -6.584  0.00  0.00    +0.048 C 
ATOM     29  C   UNL     1      -1.224  -4.468  -5.410  0.00  0.00    +0.225 C 
ENDBRANCH  27  29
ENDBRANCH  21  27
ENDBRANCH  20  24
ENDBRANCH  17  20
ENDBRANCH   1  17
TORSDOF 6
