REMARK  Name = ZINC12643902
REMARK  12 active torsions:
REMARK  status: ('A' for Active; 'I' for Inactive)
REMARK    1  A    between atoms: C_1  and  C_2
REMARK    2  A    between atoms: C_2  and  O_3
REMARK    3  A    between atoms: O_3  and  C_4
REMARK    4  A    between atoms: C_4  and  C_6
REMARK    5  A    between atoms: C_7  and  C_34
REMARK    6  A    between atoms: C_8  and  C_28
REMARK    7  A    between atoms: C_10  and  N_11
REMARK    8  A    between atoms: C_12  and  C_14
REMARK    9  A    between atoms: C_14  and  S_15
REMARK   10  A    between atoms: S_15  and  C_16
REMARK   11  A    between atoms: C_19  and  C_22
REMARK   12  A    between atoms: N_20  and  N_21
REMARK                            x       y       z     vdW  Elec       q    Type
REMARK                         _______ _______ _______ _____ _____    ______ ____
ROOT
ATOM      1  N   UNL     1      -0.417   1.069  -2.462  0.00  0.00    -0.279 N 
ATOM      2  C   UNL     1      -0.886   1.344  -1.229  0.00  0.00    +0.228 C 
ATOM      3  O   UNL     1      -1.840   2.080  -1.094  0.00  0.00    -0.275 OA
ATOM      4  H   UNL     1       0.347   0.480  -2.571  0.00  0.00    +0.155 HD
ENDROOT
BRANCH   1   9
ATOM      5  C   UNL     1      -0.688   1.469  -4.918  0.00  0.00    +0.091 A 
ATOM      6  C   UNL     1      -1.466   2.140  -5.863  0.00  0.00    -0.020 A 
ATOM      7  C   UNL     1      -2.492   2.908  -5.406  0.00  0.00    +0.025 A 
ATOM      8  S   UNL     1      -2.387   2.695  -3.639  0.00  0.00    -0.072 S 
ATOM      9  C   UNL     1      -1.024   1.626  -3.575  0.00  0.00    +0.087 A 
ATOM     10  C   UNL     1      -1.176   2.023  -7.337  0.00  0.00    +0.046 C 
BRANCH   7  11
ATOM     11  C   UNL     1      -3.454   3.718  -6.182  0.00  0.00    -0.011 A 
ATOM     12  C   UNL     1      -3.000   4.571  -7.190  0.00  0.00    +0.009 A 
ATOM     13  C   UNL     1      -3.904   5.320  -7.915  0.00  0.00    +0.001 A 
ATOM     14  C   UNL     1      -5.257   5.237  -7.635  0.00  0.00    +0.000 A 
ATOM     15  C   UNL     1      -5.713   4.399  -6.633  0.00  0.00    +0.001 A 
ATOM     16  C   UNL     1      -4.820   3.639  -5.906  0.00  0.00    +0.009 A 
ENDBRANCH   7  11
BRANCH   5  17
ATOM     17  C   UNL     1       0.441   0.627  -5.325  0.00  0.00    +0.342 C 
ATOM     18  O   UNL     1       0.265  -0.553  -5.559  0.00  0.00    -0.245 OA
BRANCH  17  19
ATOM     19  O   UNL     1       1.674   1.161  -5.440  0.00  0.00    -0.461 OA
BRANCH  19  21
ATOM     20  C   UNL     1       4.058   1.048  -5.922  0.00  0.00    +0.048 C 
ATOM     21  C   UNL     1       2.744   0.268  -5.847  0.00  0.00    +0.229 C 
ENDBRANCH  19  21
ENDBRANCH  17  19
ENDBRANCH   5  17
ENDBRANCH   1   9
BRANCH   2  22
ATOM     22  C   UNL     1      -0.224   0.738  -0.019  0.00  0.00    +0.173 C 
BRANCH  22  23
ATOM     23  S   UNL     1      -1.078   1.295   1.477  0.00  0.00    -0.075 S 
BRANCH  23  24
ATOM     24  C   UNL     1      -0.125   0.460   2.702  0.00  0.00    +0.209 A 
ATOM     25  N   UNL     1       0.904  -0.327   2.488  0.00  0.00    -0.121 NA
ATOM     26  N   UNL     1       1.359  -0.765   3.607  0.00  0.00    -0.132 NA
ATOM     27  C   UNL     1       0.654  -0.289   4.594  0.00  0.00    +0.154 A 
ATOM     28  N   UNL     1      -0.313   0.514   4.053  0.00  0.00    -0.228 N 
BRANCH  27  29
ATOM     29  C   UNL     1       0.868  -0.565   6.060  0.00  0.00    +0.059 C 
ATOM     30  C   UNL     1       2.268  -0.101   6.467  0.00  0.00    +0.011 C 
ATOM     31  C   UNL     1       2.486  -0.381   7.955  0.00  0.00    +0.001 C 
ATOM     32  C   UNL     1       2.350  -1.882   8.216  0.00  0.00    +0.000 C 
ATOM     33  C   UNL     1       0.950  -2.346   7.809  0.00  0.00    +0.001 C 
ATOM     34  C   UNL     1       0.732  -2.066   6.321  0.00  0.00    +0.011 C 
ENDBRANCH  27  29
BRANCH  28  35
ATOM     35  N   UNL     1      -1.270   1.220   4.725  0.00  0.00    -0.295 N 
ATOM     36  H   UNL     1      -2.104   0.667   4.852  0.00  0.00    +0.163 HD
ATOM     37  H   UNL     1      -0.918   1.553   5.611  0.00  0.00    +0.163 HD
ENDBRANCH  28  35
ENDBRANCH  23  24
ENDBRANCH  22  23
ENDBRANCH   2  22
TORSDOF 10
