REMARK  Name = ZINC12497142
REMARK  9 active torsions:
REMARK  status: ('A' for Active; 'I' for Inactive)
REMARK    1  A    between atoms: C_1  and  N_2
REMARK    2  A    between atoms: N_2  and  C_3
REMARK    3  A    between atoms: N_2  and  C_4
REMARK    4  A    between atoms: C_7  and  C_10
REMARK    5  A    between atoms: N_18  and  C_21
REMARK    6  A    between atoms: C_27  and  C_28
REMARK    7  A    between atoms: C_27  and  C_34
REMARK    8  A    between atoms: C_34  and  O_36
REMARK    9  A    between atoms: O_36  and  C_37
REMARK                            x       y       z     vdW  Elec       q    Type
REMARK                         _______ _______ _______ _____ _____    ______ ____
ROOT
ATOM      1  C   UNL     1      -0.723   1.536  -1.199  0.00  0.00    -0.026 C 
ATOM      2  C   UNL     1       0.302   2.279  -1.946  0.00  0.00    +0.078 C 
ATOM      3  C   UNL     1       1.221   2.867  -0.808  0.00  0.00    +0.090 C 
ATOM      4  C   UNL     1       2.313   3.384  -1.690  0.00  0.00    +0.229 C 
ATOM      5  O   UNL     1       3.497   3.434  -1.432  0.00  0.00    -0.275 OA
ATOM      6  N   UNL     1       1.704   3.789  -2.844  0.00  0.00    -0.210 N 
ATOM      7  C   UNL     1       0.428   3.299  -2.971  0.00  0.00    +0.229 C 
ATOM      8  O   UNL     1      -0.423   3.651  -3.759  0.00  0.00    -0.275 OA
ATOM      9  C   UNL     1       1.387   1.575  -0.015  0.00  0.00    +0.070 C 
ATOM     10  N   UNL     1       0.002   1.023   0.001  0.00  0.00    +0.398 N 
ATOM     11  H   UNL     1       0.036  -0.003  -0.028  0.00  0.00    -0.083 HD
ATOM     12  H   UNL     1      -0.482   1.326   0.854  0.00  0.00    -0.083 HD
ENDROOT
BRANCH   1  16
ATOM     13  C   UNL     1      -3.902   4.144  -0.033  0.00  0.00    +0.029 A 
ATOM     14  C   UNL     1      -4.073   3.271  -1.099  0.00  0.00    +0.023 A 
ATOM     15  C   UNL     1      -3.044   2.429  -1.474  0.00  0.00    +0.004 A 
ATOM     16  C   UNL     1      -1.843   2.456  -0.788  0.00  0.00    -0.060 A 
ATOM     17  C   UNL     1      -1.671   3.320   0.278  0.00  0.00    +0.004 A 
ATOM     18  C   UNL     1      -2.694   4.168   0.654  0.00  0.00    +0.023 A 
BRANCH  13  20
ATOM     19  C   UNL     1      -6.165   5.061  -0.453  0.00  0.00    +0.129 C 
ATOM     20  N   UNL     1      -4.940   4.997   0.348  0.00  0.00    -0.336 N 
ATOM     21  C   UNL     1      -4.804   5.827   1.548  0.00  0.00    +0.129 C 
ENDBRANCH  13  20
ENDBRANCH   1  16
BRANCH   6  22
ATOM     22  C   UNL     1       2.317   4.616  -3.796  0.00  0.00    +0.044 A 
ATOM     23  C   UNL     1       3.611   5.074  -3.590  0.00  0.00    +0.024 A 
ATOM     24  C   UNL     1       4.214   5.884  -4.533  0.00  0.00    +0.002 A 
ATOM     25  C   UNL     1       3.525   6.248  -5.676  0.00  0.00    +0.000 A 
ATOM     26  C   UNL     1       2.234   5.797  -5.881  0.00  0.00    +0.002 A 
ATOM     27  C   UNL     1       1.628   4.983  -4.945  0.00  0.00    +0.024 A 
ENDBRANCH   6  22
BRANCH   9  28
ATOM     28  C   UNL     1       1.871   1.865   1.382  0.00  0.00    -0.047 A 
ATOM     29  C   UNL     1       2.753   2.905   1.606  0.00  0.00    +0.003 A 
ATOM     30  C   UNL     1       3.192   3.175   2.889  0.00  0.00    +0.000 A 
ATOM     31  C   UNL     1       2.759   2.397   3.946  0.00  0.00    +0.000 A 
ATOM     32  C   UNL     1       1.881   1.352   3.721  0.00  0.00    +0.000 A 
ATOM     33  C   UNL     1       1.438   1.086   2.439  0.00  0.00    +0.003 A 
ENDBRANCH   9  28
BRANCH   9  34
ATOM     34  C   UNL     1       2.328   0.633  -0.722  0.00  0.00    +0.301 C 
ATOM     35  O   UNL     1       3.218   1.073  -1.411  0.00  0.00    -0.252 OA
BRANCH  34  36
ATOM     36  O   UNL     1       2.178  -0.694  -0.586  0.00  0.00    -0.469 OA
ATOM     37  C   UNL     1       3.121  -1.540  -1.295  0.00  0.00    +0.280 C 
ENDBRANCH  34  36
ENDBRANCH   9  34
TORSDOF 6
