REMARK  Name = ZINC03895621
REMARK  6 active torsions:
REMARK  status: ('A' for Active; 'I' for Inactive)
REMARK    1  A    between atoms: C_1  and  C_2
REMARK    2  A    between atoms: C_5  and  S_8
REMARK    3  A    between atoms: S_8  and  N_11
REMARK    4  A    between atoms: N_11  and  N_12
REMARK    5  A    between atoms: C_13  and  C_15
REMARK    6  A    between atoms: C_15  and  C_16
REMARK                            x       y       z     vdW  Elec       q    Type
REMARK                         _______ _______ _______ _____ _____    ______ ____
ROOT
ATOM      1  N   UNL     1      -6.329   1.169   1.513  0.00  0.00    -0.232 N 
ATOM      2  C   UNL     1      -5.045   1.513   1.289  0.00  0.00    +0.228 C 
ATOM      3  O   UNL     1      -4.457   2.214   2.085  0.00  0.00    -0.274 OA
ATOM      4  H   UNL     1      -6.799   0.608   0.875  0.00  0.00    +0.171 HD
ENDROOT
BRANCH   1   5
ATOM      5  N   UNL     1      -6.984   1.621   2.665  0.00  0.00    -0.108 NA
ATOM      6  H   UNL     1      -6.602   1.448   3.540  0.00  0.00    +0.172 HD
BRANCH   5   7
ATOM      7  S   UNL     1      -8.412   2.449   2.534  0.00  0.00    +0.074 S 
ATOM      8  O   UNL     1      -8.894   2.640   3.858  0.00  0.00    -0.152 OA
ATOM      9  O   UNL     1      -8.173   3.533   1.647  0.00  0.00    -0.152 OA
BRANCH   7  14
ATOM     10  C   UNL     1     -12.348  -1.199  -0.223  0.00  0.00    +0.044 C 
ATOM     11  C   UNL     1     -11.365  -0.287   0.466  0.00  0.00    -0.050 A 
ATOM     12  C   UNL     1     -11.260  -0.299   1.844  0.00  0.00    +0.005 A 
ATOM     13  C   UNL     1     -10.359   0.536   2.476  0.00  0.00    +0.029 A 
ATOM     14  C   UNL     1      -9.561   1.384   1.729  0.00  0.00    +0.107 A 
ATOM     15  C   UNL     1      -9.669   1.399   0.351  0.00  0.00    +0.029 A 
ATOM     16  C   UNL     1     -10.568   0.560  -0.281  0.00  0.00    +0.005 A 
ENDBRANCH   7  14
ENDBRANCH   5   7
ENDBRANCH   1   5
BRANCH   2  17
ATOM     17  C   UNL     1      -4.340   1.027   0.049  0.00  0.00    +0.104 C 
BRANCH  17  18
ATOM     18  C   UNL     1      -2.904   1.556   0.038  0.00  0.00    -0.020 C 
ATOM     19  C   UNL     1      -2.188   1.063  -1.221  0.00  0.00    +0.011 C 
ATOM     20  C   UNL     1      -0.753   1.593  -1.232  0.00  0.00    -0.010 C 
ATOM     21  C   UNL     1      -0.013   1.086   0.008  0.00  0.00    +0.007 C 
ATOM     22  C   UNL     1      -0.729   1.579   1.267  0.00  0.00    -0.010 C 
ATOM     23  C   UNL     1      -2.164   1.050   1.278  0.00  0.00    +0.011 C 
ATOM     24  C   UNL     1      -0.750   3.109   1.275  0.00  0.00    +0.007 C 
ATOM     25  C   UNL     1      -1.490   3.616   0.036  0.00  0.00    -0.010 C 
ATOM     26  C   UNL     1      -0.773   3.123  -1.223  0.00  0.00    +0.007 C 
ATOM     27  C   UNL     1      -2.925   3.086   0.047  0.00  0.00    +0.011 C 
ENDBRANCH  17  18
ENDBRANCH   2  17
TORSDOF 5
