REMARK  Name = ZINC45299915
REMARK  10 active torsions:
REMARK  status: ('A' for Active; 'I' for Inactive)
REMARK    1  A    between atoms: C_1  and  O_2
REMARK    2  A    between atoms: O_2  and  C_3
REMARK    3  A    between atoms: C_5  and  C_13
REMARK    4  A    between atoms: C_7  and  O_11
REMARK    5  A    between atoms: C_8  and  O_9
REMARK    6  A    between atoms: O_9  and  C_10
REMARK    7  A    between atoms: O_11  and  C_12
REMARK    8  A    between atoms: N_15  and  C_20
REMARK    9  A    between atoms: C_23  and  S_26
REMARK   10  A    between atoms: S_26  and  N_29
REMARK                            x       y       z     vdW  Elec       q    Type
REMARK                         _______ _______ _______ _____ _____    ______ ____
ROOT
ATOM      1  C   UNL     1       2.507   0.532  -4.240  0.00  0.00    +0.170 C 
ATOM      2  N   UNL     1       3.498  -0.339  -4.901  0.00  0.00    -0.254 N 
ATOM      3  C   UNL     1       3.449  -0.491  -6.218  0.00  0.00    +0.231 C 
ATOM      4  O   UNL     1       4.248  -1.195  -6.799  0.00  0.00    -0.274 OA
ATOM      5  C   UNL     1       2.355   0.247  -6.973  0.00  0.00    +0.167 C 
ATOM      6  S   UNL     1       1.251   0.732  -5.575  0.00  0.00    -0.124 S 
ENDROOT
BRANCH   1   9
ATOM      7  C   UNL     1       0.872  -0.003  -0.875  0.00  0.00    +0.166 A 
ATOM      8  C   UNL     1       1.421   0.616  -1.988  0.00  0.00    +0.056 A 
ATOM      9  C   UNL     1       1.912  -0.145  -3.033  0.00  0.00    -0.010 A 
ATOM     10  C   UNL     1       1.857  -1.525  -2.973  0.00  0.00    +0.056 A 
ATOM     11  C   UNL     1       1.310  -2.151  -1.864  0.00  0.00    +0.166 A 
ATOM     12  C   UNL     1       0.821  -1.390  -0.809  0.00  0.00    +0.204 A 
BRANCH   7  14
ATOM     13  C   UNL     1       0.475   2.166   0.016  0.00  0.00    +0.277 C 
ATOM     14  O   UNL     1       0.390   0.746   0.152  0.00  0.00    -0.491 OA
ENDBRANCH   7  14
BRANCH  12  15
ATOM     15  O   UNL     1       0.288  -2.002   0.284  0.00  0.00    -0.488 OA
ATOM     16  C   UNL     1      -1.114  -2.277   0.254  0.00  0.00    +0.277 C 
ENDBRANCH  12  15
BRANCH  11  17
ATOM     17  O   UNL     1       1.256  -3.509  -1.806  0.00  0.00    -0.491 OA
ATOM     18  C   UNL     1       1.782  -4.227  -2.924  0.00  0.00    +0.277 C 
ENDBRANCH  11  17
ENDBRANCH   1   9
BRANCH   2  19
ATOM     19  C   UNL     1       4.477  -0.995  -4.148  0.00  0.00    +0.038 A 
ATOM     20  C   UNL     1       4.594  -2.378  -4.213  0.00  0.00    +0.025 A 
ATOM     21  C   UNL     1       5.561  -3.023  -3.468  0.00  0.00    +0.030 A 
ATOM     22  C   UNL     1       6.413  -2.295  -2.659  0.00  0.00    +0.109 A 
ATOM     23  C   UNL     1       6.300  -0.918  -2.592  0.00  0.00    +0.030 A 
ATOM     24  C   UNL     1       5.338  -0.266  -3.339  0.00  0.00    +0.025 A 
BRANCH  22  25
ATOM     25  S   UNL     1       7.646  -3.122  -1.710  0.00  0.00    +0.073 S 
ATOM     26  O   UNL     1       7.960  -2.268  -0.618  0.00  0.00    -0.150 OA
ATOM     27  O   UNL     1       7.192  -4.456  -1.528  0.00  0.00    -0.150 OA
BRANCH  25  28
ATOM     28  N   UNL     1       9.009  -3.210  -2.648  0.00  0.00    -0.199 N 
ATOM     29  C   UNL     1       9.673  -2.047  -3.019  0.00  0.00    +0.138 A 
ATOM     30  C   UNL     1      10.814  -2.128  -3.811  0.00  0.00    +0.045 A 
ATOM     31  C   UNL     1      11.466  -0.963  -4.173  0.00  0.00    +0.005 A 
ATOM     32  C   UNL     1      10.953   0.249  -3.728  0.00  0.00    +0.020 A 
ATOM     33  C   UNL     1       9.817   0.256  -2.944  0.00  0.00    +0.113 A 
ATOM     34  N   UNL     1       9.213  -0.872  -2.619  0.00  0.00    -0.239 NA
ATOM     35  H   UNL     1       9.342  -4.073  -2.938  0.00  0.00    +0.175 HD
ENDBRANCH  25  28
ENDBRANCH  22  25
ENDBRANCH   2  19
TORSDOF 7
