REMARK  Name = ZINC39686192
REMARK  7 active torsions:
REMARK  status: ('A' for Active; 'I' for Inactive)
REMARK    1  A    between atoms: C_1  and  C_2
REMARK    2  A    between atoms: C_2  and  C_3
REMARK    3  A    between atoms: C_2  and  C_4
REMARK    4  A    between atoms: C_4  and  C_5
REMARK    5  A    between atoms: C_10  and  N_13
REMARK    6  A    between atoms: C_14  and  C_16
REMARK    7  A    between atoms: C_27  and  C_29
REMARK                            x       y       z     vdW  Elec       q    Type
REMARK                         _______ _______ _______ _____ _____    ______ ____
ROOT
ATOM      1  C   UNL     1      -6.429  -6.769   2.740  0.00  0.00    +0.100 C 
ATOM      2  C   UNL     1      -5.778  -7.136   4.093  0.00  0.00    +0.121 C 
ATOM      3  N   UNL     1      -6.495  -8.355   4.535  0.00  0.00    -0.296 N 
ATOM      4  C   UNL     1      -6.689  -9.140   3.293  0.00  0.00    +0.115 C 
ATOM      5  C   UNL     1      -7.025  -8.087   2.218  0.00  0.00    -0.004 C 
ATOM      6  C   UNL     1      -6.383  -8.468   0.888  0.00  0.00    -0.010 C 
ATOM      7  C   UNL     1      -7.033  -9.750   0.360  0.00  0.00    -0.082 C 
ATOM      8  N   UNL     1      -8.474  -9.534   0.186  0.00  0.00    +0.379 N 
ATOM      9  C   UNL     1      -9.100  -9.260   1.486  0.00  0.00    -0.082 C 
ATOM     10  C   UNL     1      -8.537  -7.957   2.061  0.00  0.00    -0.010 C 
ATOM     11  C   UNL     1      -6.885  -8.677   5.785  0.00  0.00    +0.247 C 
ATOM     12  O   UNL     1      -6.768  -7.868   6.685  0.00  0.00    -0.270 OA
ATOM     13  H   UNL     1      -8.624  -8.749  -0.429  0.00  0.00    -0.086 HD
ATOM     14  H   UNL     1      -8.890 -10.360  -0.218  0.00  0.00    -0.086 HD
ENDROOT
BRANCH  11  15
ATOM     15  C   UNL     1      -7.454 -10.013   6.061  0.00  0.00    +0.038 A 
ATOM     16  C   UNL     1      -7.208 -11.074   5.188  0.00  0.00    +0.013 A 
ATOM     17  C   UNL     1      -7.741 -12.318   5.451  0.00  0.00    +0.002 A 
ATOM     18  C   UNL     1      -8.520 -12.517   6.577  0.00  0.00    +0.015 A 
ATOM     19  C   UNL     1      -8.768 -11.469   7.448  0.00  0.00    +0.019 A 
ATOM     20  C   UNL     1      -8.234 -10.220   7.199  0.00  0.00    +0.028 A 
ATOM     21 BR   UNL     1      -9.834 -11.751   8.984  0.00  0.00    -0.050 Br
ENDBRANCH  11  15
BRANCH   1  23
ATOM     22  N   UNL     1      -5.733  -5.345   0.842  0.00  0.00    -0.312 N 
ATOM     23  C   UNL     1      -5.390  -6.247   1.782  0.00  0.00    +0.218 C 
ATOM     24  O   UNL     1      -4.245  -6.640   1.856  0.00  0.00    -0.275 OA
ATOM     25  H   UNL     1      -6.649  -5.031   0.782  0.00  0.00    +0.149 HD
BRANCH  22  31
ATOM     26  C   UNL     1      -3.360  -1.628  -2.261  0.00  0.00    +0.216 C 
ATOM     27  O   UNL     1      -2.679  -0.791  -1.706  0.00  0.00    -0.276 OA
ATOM     28  N   UNL     1      -3.528  -2.840  -1.698  0.00  0.00    -0.301 N 
ATOM     29  C   UNL     1      -4.344  -3.867  -2.360  0.00  0.00    +0.109 C 
ATOM     30  C   UNL     1      -5.406  -4.364  -1.375  0.00  0.00    +0.041 C 
ATOM     31  C   UNL     1      -4.723  -4.838  -0.090  0.00  0.00    +0.076 C 
ATOM     32  C   UNL     1      -3.977  -3.667   0.554  0.00  0.00    +0.041 C 
ATOM     33  C   UNL     1      -2.894  -3.164  -0.412  0.00  0.00    +0.109 C 
BRANCH  26  34
ATOM     34  C   UNL     1      -4.016  -1.311  -3.579  0.00  0.00    +0.099 C 
BRANCH  34  36
ATOM     35  C   UNL     1      -4.230   0.399  -5.388  0.00  0.00    +0.008 C 
ATOM     36  C   UNL     1      -3.668   0.120  -3.993  0.00  0.00    -0.008 C 
ATOM     37  C   UNL     1      -4.277   1.103  -2.991  0.00  0.00    +0.008 C 
ENDBRANCH  34  36
ENDBRANCH  26  34
ENDBRANCH  22  31
ENDBRANCH   1  23
TORSDOF 5
