REMARK  Name = ZINC36585056
REMARK  15 active torsions:
REMARK  status: ('A' for Active; 'I' for Inactive)
REMARK    1  A    between atoms: C_1  and  C_2
REMARK    2  A    between atoms: C_5  and  S_8
REMARK    3  A    between atoms: S_8  and  C_11
REMARK    4  A    between atoms: C_11  and  N_12
REMARK    5  A    between atoms: C_13  and  C_15
REMARK    6  A    between atoms: C_15  and  C_17
REMARK    7  A    between atoms: C_15  and  N_26
REMARK    8  A    between atoms: C_20  and  O_25
REMARK    9  A    between atoms: C_21  and  O_23
REMARK   10  A    between atoms: O_23  and  C_24
REMARK   11  A    between atoms: N_26  and  C_34
REMARK   12  A    between atoms: C_27  and  C_29
REMARK   13  A    between atoms: C_34  and  C_35
REMARK   14  A    between atoms: C_34  and  C_36
REMARK   15  A    between atoms: C_34  and  C_37
REMARK                            x       y       z     vdW  Elec       q    Type
REMARK                         _______ _______ _______ _____ _____    ______ ____
ROOT
ATOM      1  C   UNL     1       1.852  -6.177   4.118  0.00  0.00    +0.193 C 
ENDROOT
BRANCH   1   2
ATOM      2  C   UNL     1       0.651  -5.546   4.776  0.00  0.00    -0.014 A 
ATOM      3  C   UNL     1      -0.030  -6.229   5.766  0.00  0.00    +0.010 A 
ATOM      4  C   UNL     1      -1.132  -5.655   6.373  0.00  0.00    +0.049 A 
ATOM      5  C   UNL     1      -1.555  -4.392   5.989  0.00  0.00    +0.158 A 
ATOM      6  C   UNL     1      -0.868  -3.705   4.993  0.00  0.00    +0.162 A 
ATOM      7  C   UNL     1       0.238  -4.284   4.392  0.00  0.00    +0.055 A 
BRANCH   6   8
ATOM      8  O   UNL     1      -1.279  -2.466   4.613  0.00  0.00    -0.491 OA
ATOM      9  C   UNL     1      -0.526  -1.820   3.584  0.00  0.00    +0.277 C 
ENDBRANCH   6   8
BRANCH   5  10
ATOM     10  O   UNL     1      -2.639  -3.826   6.585  0.00  0.00    -0.503 OA
ATOM     11  H   UNL     1      -2.427  -3.301   7.368  0.00  0.00    +0.292 HD
ENDBRANCH   5  10
ENDBRANCH   1   2
BRANCH   1  13
ATOM     12  N   UNL     1       0.986  -5.799   1.832  0.00  0.00    -0.294 N 
ATOM     13  C   UNL     1       1.473  -6.664   2.743  0.00  0.00    +0.239 C 
ATOM     14  O   UNL     1       1.606  -7.835   2.457  0.00  0.00    -0.273 OA
ATOM     15  H   UNL     1       0.880  -4.862   2.061  0.00  0.00    +0.150 HD
BRANCH  12  16
ATOM     16  C   UNL     1       0.618  -6.272   0.496  0.00  0.00    +0.278 C 
BRANCH  16  17
ATOM     17  S   UNL     1      -1.157  -6.643   0.453  0.00  0.00    +0.013 S 
ATOM     18  O   UNL     1      -1.522  -7.420   1.586  0.00  0.00    -0.168 OA
ATOM     19  O   UNL     1      -1.543  -7.043  -0.855  0.00  0.00    -0.168 OA
BRANCH  17  24
ATOM     20  C   UNL     1      -3.876  -1.322   1.296  0.00  0.00    +0.044 C 
ATOM     21  C   UNL     1      -3.196  -2.651   1.085  0.00  0.00    -0.050 A 
ATOM     22  C   UNL     1      -2.894  -3.078  -0.194  0.00  0.00    +0.005 A 
ATOM     23  C   UNL     1      -2.271  -4.297  -0.387  0.00  0.00    +0.027 A 
ATOM     24  C   UNL     1      -1.950  -5.089   0.699  0.00  0.00    +0.090 A 
ATOM     25  C   UNL     1      -2.252  -4.662   1.979  0.00  0.00    +0.027 A 
ATOM     26  C   UNL     1      -2.871  -3.441   2.172  0.00  0.00    +0.005 A 
ENDBRANCH  17  24
ENDBRANCH  16  17
ENDBRANCH  12  16
ENDBRANCH   1  13
BRANCH   1  27
ATOM     27  N   UNL     1       2.314  -7.308   4.927  0.00  0.00    -0.274 N 
ATOM     28  C   UNL     1       1.513  -8.376   5.112  0.00  0.00    +0.283 C 
ATOM     29  O   UNL     1       0.372  -8.362   4.688  0.00  0.00    -0.267 OA
BRANCH  28  30
ATOM     30  C   UNL     1       2.017  -9.556   5.823  0.00  0.00    +0.189 A 
ATOM     31  C   UNL     1       1.368 -10.750   5.956  0.00  0.00    +0.054 A 
ATOM     32  C   UNL     1       2.211 -11.585   6.706  0.00  0.00    +0.042 A 
ATOM     33  C   UNL     1       3.322 -10.873   6.995  0.00  0.00    +0.196 A 
ATOM     34  O   UNL     1       3.204  -9.652   6.457  0.00  0.00    -0.458 OA
ENDBRANCH  28  30
BRANCH  27  35
ATOM     35  C   UNL     1       3.646  -7.278   5.535  0.00  0.00    +0.030 C 
ATOM     36  C   UNL     1       4.317  -5.937   5.228  0.00  0.00    +0.031 C 
ATOM     37  C   UNL     1       3.520  -7.449   7.050  0.00  0.00    +0.031 C 
ATOM     38  C   UNL     1       4.494  -8.415   4.962  0.00  0.00    +0.031 C 
ENDBRANCH  27  35
ENDBRANCH   1  27
TORSDOF 10
