REMARK  Name = ZINC13130807
REMARK  15 active torsions:
REMARK  status: ('A' for Active; 'I' for Inactive)
REMARK    1  A    between atoms: C_1  and  C_2
REMARK    2  A    between atoms: C_2  and  C_3
REMARK    3  A    between atoms: C_2  and  C_4
REMARK    4  A    between atoms: C_4  and  C_6
REMARK    5  A    between atoms: C_4  and  N_25
REMARK    6  A    between atoms: C_6  and  O_8
REMARK    7  A    between atoms: O_8  and  C_9
REMARK    8  A    between atoms: C_9  and  C_10
REMARK    9  A    between atoms: C_22  and  C_23
REMARK   10  A    between atoms: C_22  and  C_24
REMARK   11  A    between atoms: C_26  and  C_28
REMARK   12  A    between atoms: C_31  and  C_34
REMARK   13  A    between atoms: C_34  and  C_35
REMARK   14  A    between atoms: C_34  and  C_36
REMARK   15  A    between atoms: C_34  and  C_37
REMARK                            x       y       z     vdW  Elec       q    Type
REMARK                         _______ _______ _______ _____ _____    ______ ____
ROOT
ATOM      1  C   UNL     1      -0.555   1.613   3.134  0.00  0.00    +0.328 C 
ATOM      2  O   UNL     1       0.066   2.467   3.721  0.00  0.00    -0.249 OA
ENDROOT
BRANCH   1   3
ATOM      3  C   UNL     1      -1.704   1.998   2.238  0.00  0.00    +0.185 C 
BRANCH   3   4
ATOM      4  N   UNL     1      -1.866   3.454   2.249  0.00  0.00    -0.298 N 
ATOM      5  C   UNL     1      -3.065   4.001   1.967  0.00  0.00    +0.245 C 
ATOM      6  O   UNL     1      -4.012   3.286   1.703  0.00  0.00    -0.270 OA
ATOM      7  H   UNL     1      -1.110   4.024   2.460  0.00  0.00    +0.150 HD
BRANCH   5   8
ATOM      8  C   UNL     1      -3.228   5.470   1.978  0.00  0.00    +0.037 A 
ATOM      9  C   UNL     1      -2.143   6.293   2.286  0.00  0.00    +0.013 A 
ATOM     10  C   UNL     1      -2.301   7.664   2.290  0.00  0.00    +0.005 A 
ATOM     11  C   UNL     1      -3.533   8.223   2.000  0.00  0.00    -0.042 A 
ATOM     12  C   UNL     1      -4.613   7.412   1.698  0.00  0.00    +0.005 A 
ATOM     13  C   UNL     1      -4.468   6.040   1.686  0.00  0.00    +0.013 A 
BRANCH  11  14
ATOM     14  C   UNL     1      -3.699   9.720   2.011  0.00  0.00    -0.013 C 
ATOM     15  C   UNL     1      -4.756  10.108   3.048  0.00  0.00    +0.015 C 
ATOM     16  C   UNL     1      -2.366  10.379   2.372  0.00  0.00    +0.015 C 
ATOM     17  C   UNL     1      -4.145  10.195   0.627  0.00  0.00    +0.015 C 
ENDBRANCH  11  14
ENDBRANCH   5   8
ENDBRANCH   3   4
BRANCH   3  19
ATOM     18  C   UNL     1      -1.374  -0.002   0.778  0.00  0.00    +0.009 C 
ATOM     19  C   UNL     1      -1.419   1.527   0.811  0.00  0.00    +0.014 C 
ATOM     20  C   UNL     1      -0.072   2.087   0.349  0.00  0.00    +0.009 C 
ENDBRANCH   3  19
ENDBRANCH   1   3
BRANCH   1  21
ATOM     21  O   UNL     1      -0.221   0.321   3.279  0.00  0.00    -0.454 OA
BRANCH  21  22
ATOM     22  C   UNL     1       0.897   0.024   4.157  0.00  0.00    +0.328 C 
BRANCH  22  23
ATOM     23  C   UNL     1       1.123  -1.465   4.196  0.00  0.00    +0.258 C 
ATOM     24  O   UNL     1       0.557  -2.186   3.401  0.00  0.00    -0.271 OA
ATOM     25  N   UNL     1       1.955  -1.997   5.114  0.00  0.00    -0.253 N 
ATOM     26  C   UNL     1       2.530  -1.201   6.117  0.00  0.00    +0.059 A 
ATOM     27  C   UNL     1       2.784   0.142   5.906  0.00  0.00    +0.025 A 
ATOM     28  C   UNL     1       3.356   0.899   6.913  0.00  0.00    +0.002 A 
ATOM     29  C   UNL     1       3.672   0.316   8.127  0.00  0.00    +0.002 A 
ATOM     30  C   UNL     1       3.418  -1.026   8.345  0.00  0.00    +0.025 A 
ATOM     31  C   UNL     1       2.844  -1.791   7.343  0.00  0.00    +0.055 A 
ATOM     32  N   UNL     1       2.570  -3.148   7.547  0.00  0.00    -0.282 N 
ATOM     33  C   UNL     1       2.276  -3.954   6.509  0.00  0.00    +0.241 C 
ATOM     34  O   UNL     1       1.998  -5.117   6.713  0.00  0.00    -0.273 OA
ATOM     35  C   UNL     1       2.284  -3.430   5.100  0.00  0.00    +0.113 C 
ATOM     36  C   UNL     1       1.246  -4.186   4.267  0.00  0.00    +0.042 C 
ATOM     37  C   UNL     1       3.674  -3.630   4.492  0.00  0.00    +0.042 C 
ATOM     38  H   UNL     1       2.591  -3.512   8.446  0.00  0.00    +0.155 HD
ENDBRANCH  22  23
ENDBRANCH  21  22
ENDBRANCH   1  21
TORSDOF 8
