REMARK  Name = ZINC16509269
REMARK  12 active torsions:
REMARK  status: ('A' for Active; 'I' for Inactive)
REMARK    1  A    between atoms: C_1  and  C_2
REMARK    2  A    between atoms: C_5  and  S_8
REMARK    3  A    between atoms: S_8  and  N_11
REMARK    4  A    between atoms: N_11  and  C_12
REMARK    5  A    between atoms: N_11  and  C_15
REMARK    6  A    between atoms: C_12  and  C_13
REMARK    7  A    between atoms: C_15  and  C_16
REMARK    8  A    between atoms: C_26  and  C_28
REMARK    9  A    between atoms: C_31  and  C_34
REMARK   10  A    between atoms: C_34  and  C_35
REMARK   11  A    between atoms: C_34  and  C_36
REMARK   12  A    between atoms: C_34  and  C_37
REMARK                            x       y       z     vdW  Elec       q    Type
REMARK                         _______ _______ _______ _____ _____    ______ ____
ROOT
ATOM      1  C   UNL     1       0.088  -2.137  -4.514  0.00  0.00    +0.232 C 
ATOM      2  O   UNL     1       0.613  -3.193  -4.230  0.00  0.00    -0.274 OA
ATOM      3  N   UNL     1      -1.256  -2.045  -4.563  0.00  0.00    -0.289 N 
ATOM      4  C   UNL     1      -2.092  -3.245  -4.413  0.00  0.00    +0.114 C 
ATOM      5  C   UNL     1      -2.910  -3.098  -3.115  0.00  0.00    +0.062 C 
ATOM      6  C   UNL     1      -3.438  -1.702  -3.039  0.00  0.00    -0.003 A 
ATOM      7  C   UNL     1      -3.030  -0.614  -3.746  0.00  0.00    -0.012 A 
ATOM      8  C   UNL     1      -3.687   0.587  -3.482  0.00  0.00    +0.013 A 
ATOM      9  C   UNL     1      -4.678   0.628  -2.562  0.00  0.00    +0.046 A 
ATOM     10  S   UNL     1      -4.735  -1.070  -2.007  0.00  0.00    -0.101 S 
ATOM     11  C   UNL     1      -1.906  -0.744  -4.772  0.00  0.00    +0.137 C 
ENDROOT
BRANCH  11  12
ATOM     12  C   UNL     1      -0.904   0.365  -4.576  0.00  0.00    -0.023 A 
ATOM     13  C   UNL     1      -0.451   0.671  -3.306  0.00  0.00    +0.006 A 
ATOM     14  C   UNL     1       0.472   1.685  -3.127  0.00  0.00    +0.004 A 
ATOM     15  C   UNL     1       0.934   2.399  -4.217  0.00  0.00    -0.042 A 
ATOM     16  C   UNL     1       0.477   2.096  -5.486  0.00  0.00    +0.004 A 
ATOM     17  C   UNL     1      -0.442   1.079  -5.666  0.00  0.00    +0.006 A 
BRANCH  15  18
ATOM     18  C   UNL     1       1.935   3.508  -4.021  0.00  0.00    -0.013 C 
ATOM     19  C   UNL     1       1.300   4.843  -4.415  0.00  0.00    +0.015 C 
ATOM     20  C   UNL     1       2.359   3.559  -2.551  0.00  0.00    +0.015 C 
ATOM     21  C   UNL     1       3.162   3.248  -4.897  0.00  0.00    +0.015 C 
ENDBRANCH  15  18
ENDBRANCH  11  12
BRANCH   1  22
ATOM     22  C   UNL     1       0.938  -0.929  -4.814  0.00  0.00    +0.205 C 
BRANCH  22  23
ATOM     23  N   UNL     1       2.326  -1.348  -5.021  0.00  0.00    -0.164 NA
BRANCH  23  24
ATOM     24  S   UNL     1       2.917  -1.527  -6.558  0.00  0.00    +0.062 S 
ATOM     25  O   UNL     1       4.334  -1.495  -6.455  0.00  0.00    -0.153 OA
ATOM     26  O   UNL     1       2.192  -0.621  -7.379  0.00  0.00    -0.153 OA
BRANCH  24  31
ATOM     27  C   UNL     1       1.446  -7.080  -8.403  0.00  0.00    +0.044 C 
ATOM     28  C   UNL     1       1.813  -5.693  -7.943  0.00  0.00    -0.050 A 
ATOM     29  C   UNL     1       0.910  -4.656  -8.084  0.00  0.00    +0.005 A 
ATOM     30  C   UNL     1       1.247  -3.384  -7.661  0.00  0.00    +0.029 A 
ATOM     31  C   UNL     1       2.487  -3.148  -7.096  0.00  0.00    +0.106 A 
ATOM     32  C   UNL     1       3.390  -4.186  -6.955  0.00  0.00    +0.029 A 
ATOM     33  C   UNL     1       3.053  -5.458  -7.377  0.00  0.00    +0.005 A 
ENDBRANCH  24  31
ENDBRANCH  23  24
BRANCH  23  34
ATOM     34  C   UNL     1       3.192  -1.609  -3.869  0.00  0.00    +0.136 C 
BRANCH  34  35
ATOM     35  C   UNL     1       3.814  -0.318  -3.405  0.00  0.00    -0.018 C 
ATOM     36  C   UNL     1       3.689   0.058  -2.156  0.00  0.00    +0.005 C 
ENDBRANCH  34  35
ENDBRANCH  23  34
ENDBRANCH  22  23
ENDBRANCH   1  22
TORSDOF 8
