REMARK  Name = ZINC47135762
REMARK  5 active torsions:
REMARK  status: ('A' for Active; 'I' for Inactive)
REMARK    1  A    between atoms: C_1  and  C_2
REMARK    2  A    between atoms: C_2  and  N_3
REMARK    3  A    between atoms: C_4  and  C_6
REMARK    4  A    between atoms: C_10  and  N_11
REMARK    5  A    between atoms: N_11  and  C_12
REMARK                            x       y       z     vdW  Elec       q    Type
REMARK                         _______ _______ _______ _____ _____    ______ ____
ROOT
ATOM      1  C   UNL     1      -2.974  -2.346   0.018  0.00  0.00    +0.068 A 
ATOM      2  C   UNL     1      -3.696  -2.607  -1.217  0.00  0.00    -0.023 A 
ATOM      3  C   UNL     1      -4.950  -3.071  -1.037  0.00  0.00    -0.005 A 
ATOM      4  S   UNL     1      -5.151  -3.153   0.718  0.00  0.00    -0.078 S 
ATOM      5  C   UNL     1      -3.642  -2.603   1.207  0.00  0.00    +0.081 A 
ATOM      6  C   UNL     1      -5.938  -3.430  -2.103  0.00  0.00    +0.043 C 
ATOM      7  C   UNL     1      -5.449  -2.837  -3.433  0.00  0.00    +0.005 C 
ATOM      8  C   UNL     1      -3.968  -3.181  -3.614  0.00  0.00    +0.005 C 
ATOM      9  C   UNL     1      -3.124  -2.391  -2.611  0.00  0.00    +0.037 C 
ENDROOT
BRANCH   1  11
ATOM     10  N   UNL     1      -1.372  -0.511   0.012  0.00  0.00    -0.312 N 
ATOM     11  C   UNL     1      -1.601  -1.839   0.007  0.00  0.00    +0.247 C 
ATOM     12  O   UNL     1      -0.665  -2.618  -0.006  0.00  0.00    -0.270 OA
ATOM     13  H   UNL     1      -2.118   0.109   0.023  0.00  0.00    +0.149 HD
BRANCH  10  15
ATOM     14  C   UNL     1      -0.019   1.526   0.010  0.00  0.00    +0.024 C 
ATOM     15  C   UNL     1       0.002  -0.004   0.002  0.00  0.00    +0.101 C 
ENDBRANCH  10  15
ENDBRANCH   1  11
BRANCH   5  16
ATOM     16  N   UNL     1      -3.172  -2.442   2.497  0.00  0.00    -0.300 N 
ATOM     17  H   UNL     1      -2.273  -2.111   2.648  0.00  0.00    +0.150 HD
BRANCH  16  18
ATOM     18  C   UNL     1      -4.033  -2.770   3.636  0.00  0.00    +0.297 C 
ATOM     19  C   UNL     1      -3.204  -3.327   4.765  0.00  0.00    +0.025 A 
ATOM     20  C   UNL     1      -2.391  -4.429   4.890  0.00  0.00    +0.010 A 
ATOM     21  C   UNL     1      -1.747  -4.681   6.090  0.00  0.00    +0.000 A 
ATOM     22  C   UNL     1      -1.919  -3.827   7.165  0.00  0.00    +0.001 A 
ATOM     23  C   UNL     1      -2.732  -2.718   7.051  0.00  0.00    +0.015 A 
ATOM     24  C   UNL     1      -3.384  -2.459   5.845  0.00  0.00    +0.067 A 
ATOM     25  C   UNL     1      -4.299  -1.387   5.410  0.00  0.00    +0.342 C 
ATOM     26  O   UNL     1      -4.669  -0.462   6.104  0.00  0.00    -0.245 OA
ATOM     27  O   UNL     1      -4.663  -1.585   4.131  0.00  0.00    -0.435 OA
ENDBRANCH  16  18
ENDBRANCH   5  16
TORSDOF 4
