REMARK  Name = ZINC45517085
REMARK  10 active torsions:
REMARK  status: ('A' for Active; 'I' for Inactive)
REMARK    1  A    between atoms: C_1  and  C_2
REMARK    2  A    between atoms: C_2  and  N_3
REMARK    3  A    between atoms: N_3  and  C_4
REMARK    4  A    between atoms: C_6  and  C_11
REMARK    5  A    between atoms: C_9  and  C_10
REMARK    6  A    between atoms: C_12  and  C_14
REMARK    7  A    between atoms: C_14  and  N_15
REMARK    8  A    between atoms: C_20  and  C_27
REMARK    9  A    between atoms: C_23  and  C_25
REMARK   10  A    between atoms: C_23  and  C_26
REMARK                            x       y       z     vdW  Elec       q    Type
REMARK                         _______ _______ _______ _____ _____    ______ ____
ROOT
ATOM      1  N   UNL     1      -2.705  -1.036   3.389  0.00  0.00    -0.215 N 
ATOM      2  C   UNL     1      -3.474  -0.136   4.036  0.00  0.00    +0.247 C 
ATOM      3  O   UNL     1      -3.685   1.014   3.716  0.00  0.00    -0.273 OA
ATOM      4  C   UNL     1      -4.017  -0.863   5.245  0.00  0.00    +0.113 C 
ATOM      5  C   UNL     1      -5.539  -0.923   5.190  0.00  0.00    +0.038 C 
ATOM      6  C   UNL     1      -6.067  -1.689   6.406  0.00  0.00    -0.011 C 
ATOM      7  C   UNL     1      -5.613  -0.986   7.686  0.00  0.00    +0.009 C 
ATOM      8  C   UNL     1      -4.084  -0.954   7.739  0.00  0.00    -0.032 C 
ATOM      9  C   UNL     1      -3.549  -0.185   6.528  0.00  0.00    +0.041 C 
ATOM     10  C   UNL     1      -3.543  -2.385   7.714  0.00  0.00    +0.011 C 
ATOM     11  C   UNL     1      -3.632  -0.260   9.025  0.00  0.00    +0.011 C 
ATOM     12  C   UNL     1      -7.595  -1.730   6.359  0.00  0.00    +0.007 C 
ATOM     13  N   UNL     1      -3.444  -2.211   5.137  0.00  0.00    -0.285 N 
ATOM     14  C   UNL     1      -2.695  -2.218   4.018  0.00  0.00    +0.310 C 
ATOM     15  O   UNL     1      -2.078  -3.188   3.624  0.00  0.00    -0.252 OA
ATOM     16  H   UNL     1      -3.581  -2.951   5.749  0.00  0.00    +0.151 HD
ENDROOT
BRANCH   1  17
ATOM     17  C   UNL     1      -1.976  -0.756   2.150  0.00  0.00    +0.214 C 
BRANCH  17  19
ATOM     18  N   UNL     1      -2.391  -0.891  -0.285  0.00  0.00    -0.270 N 
ATOM     19  C   UNL     1      -2.855  -1.073   0.968  0.00  0.00    +0.238 C 
ATOM     20  O   UNL     1      -3.980  -1.490   1.143  0.00  0.00    -0.274 OA
BRANCH  18  21
ATOM     21  C   UNL     1      -3.207  -1.185  -1.383  0.00  0.00    +0.039 A 
ATOM     22  C   UNL     1      -3.200  -2.459  -1.934  0.00  0.00    +0.027 A 
ATOM     23  C   UNL     1      -4.007  -2.746  -3.017  0.00  0.00    -0.049 A 
ATOM     24  C   UNL     1      -4.821  -1.765  -3.554  0.00  0.00    +0.004 A 
ATOM     25  C   UNL     1      -4.830  -0.495  -3.007  0.00  0.00    +0.005 A 
ATOM     26  C   UNL     1      -4.030  -0.204  -1.920  0.00  0.00    -0.029 A 
ATOM     27  C   UNL     1      -4.045   1.179  -1.321  0.00  0.00    +0.045 C 
ATOM     28  C   UNL     1      -3.999  -4.129  -3.616  0.00  0.00    +0.044 C 
ENDBRANCH  18  21
BRANCH  18  30
ATOM     29  C   UNL     1      -1.060   1.142  -0.560  0.00  0.00    +0.025 C 
ATOM     30  C   UNL     1      -1.032  -0.386  -0.496  0.00  0.00    +0.110 C 
ENDBRANCH  18  30
ENDBRANCH  17  19
ENDBRANCH   1  17
TORSDOF 4
