REMARK  Name = ZINC09196776
REMARK  8 active torsions:
REMARK  status: ('A' for Active; 'I' for Inactive)
REMARK    1  A    between atoms: C_4  and  O_19
REMARK    2  A    between atoms: C_5  and  C_7
REMARK    3  A    between atoms: N_8  and  N_9
REMARK    4  A    between atoms: N_9  and  C_10
REMARK    5  A    between atoms: C_10  and  C_11
REMARK    6  A    between atoms: O_19  and  C_20
REMARK    7  A    between atoms: C_20  and  C_21
REMARK    8  A    between atoms: C_24  and  C_27
REMARK                            x       y       z     vdW  Elec       q    Type
REMARK                         _______ _______ _______ _____ _____    ______ ____
ROOT
ATOM      1  C   UNL     1      -0.013   1.076   0.008  0.00  0.00    +0.001 A 
ATOM      2  C   UNL     1       1.178   1.781   0.000  0.00  0.00    +0.004 A 
ATOM      3  C   UNL     1       1.172   3.164   0.008  0.00  0.00    +0.046 A 
ATOM      4  C   UNL     1      -0.030   3.853   0.023  0.00  0.00    +0.130 A 
ATOM      5  C   UNL     1      -1.238   3.143   0.030  0.00  0.00    +0.036 A 
ATOM      6  C   UNL     1      -1.218   1.746   0.017  0.00  0.00    +0.013 A 
ENDROOT
BRANCH   5   7
ATOM      7  C   UNL     1      -2.522   3.866   0.045  0.00  0.00    +0.141 C 
ATOM      8  N   UNL     1      -2.537   5.163   0.052  0.00  0.00    -0.194 NA
BRANCH   8   9
ATOM      9  N   UNL     1      -3.757   5.850   0.067  0.00  0.00    -0.265 N 
ATOM     10  H   UNL     1      -4.592   5.356   0.072  0.00  0.00    +0.168 HD
BRANCH   9  11
ATOM     11  C   UNL     1      -3.773   7.315   0.075  0.00  0.00    +0.160 C 
BRANCH  11  12
ATOM     12  C   UNL     1      -5.199   7.802   0.091  0.00  0.00    +0.008 A 
ATOM     13  C   UNL     1      -5.863   8.037  -1.100  0.00  0.00    +0.047 A 
ATOM     14  C   UNL     1      -7.174   8.480  -1.085  0.00  0.00    +0.020 A 
ATOM     15  C   UNL     1      -7.817   8.696   0.119  0.00  0.00    +0.003 A 
ATOM     16  C   UNL     1      -7.153   8.466   1.310  0.00  0.00    +0.020 A 
ATOM     17  C   UNL     1      -5.843   8.019   1.296  0.00  0.00    +0.047 A 
ATOM     18 CL   UNL     1      -5.009   7.731   2.790  0.00  0.00    -0.083 Cl
ATOM     19 CL   UNL     1      -5.054   7.772  -2.612  0.00  0.00    -0.083 Cl
ENDBRANCH  11  12
ENDBRANCH   9  11
ENDBRANCH   8   9
ENDBRANCH   5   7
BRANCH   4  20
ATOM     20  O   UNL     1      -0.037   5.211   0.030  0.00  0.00    -0.487 OA
BRANCH  20  21
ATOM     21  C   UNL     1       1.233   5.867   0.023  0.00  0.00    +0.264 C 
BRANCH  21  22
ATOM     22  C   UNL     1       1.027   7.359   0.033  0.00  0.00    -0.010 A 
ATOM     23  C   UNL     1       0.928   8.049  -1.162  0.00  0.00    +0.008 A 
ATOM     24  C   UNL     1       0.736   9.415  -1.160  0.00  0.00    +0.019 A 
ATOM     25  C   UNL     1       0.651  10.103   0.052  0.00  0.00    +0.052 A 
ATOM     26  C   UNL     1       0.757   9.401   1.255  0.00  0.00    +0.019 A 
ATOM     27  C   UNL     1       0.944   8.035   1.238  0.00  0.00    +0.008 A 
BRANCH  25  28
ATOM     28  C   UNL     1       0.455  11.522   0.062  0.00  0.00    +0.099 C 
ATOM     29  N   UNL     1       0.301  12.647   0.070  0.00  0.00    -0.191 NA
ENDBRANCH  25  28
ENDBRANCH  21  22
ENDBRANCH  20  21
ENDBRANCH   4  20
TORSDOF 8
