REMARK  Name = ZINC34830308
REMARK  7 active torsions:
REMARK  status: ('A' for Active; 'I' for Inactive)
REMARK    1  A    between atoms: C_1  and  C_2
REMARK    2  A    between atoms: C_7  and  C_8
REMARK    3  A    between atoms: N_17  and  C_18
REMARK    4  A    between atoms: C_18  and  C_20
REMARK    5  A    between atoms: C_18  and  C_21
REMARK    6  A    between atoms: C_29  and  C_31
REMARK    7  A    between atoms: C_35  and  N_37
REMARK                            x       y       z     vdW  Elec       q    Type
REMARK                         _______ _______ _______ _____ _____    ______ ____
ROOT
ATOM      1  C   UNL     1      -1.741  -0.186   3.469  0.00  0.00    +0.018 C 
ATOM      2  C   UNL     1      -0.791  -1.080   2.670  0.00  0.00    -0.004 C 
ENDROOT
BRANCH   1  11
ATOM      3  C   UNL     1      -1.876   1.460   5.202  0.00  0.00    -0.005 C 
ATOM      4  C   UNL     1      -1.056   2.294   6.182  0.00  0.00    -0.047 A 
ATOM      5  C   UNL     1      -1.548   3.405   6.861  0.00  0.00    +0.010 A 
ATOM      6  C   UNL     1      -0.747   4.089   7.712  0.00  0.00    +0.045 A 
ATOM      7  S   UNL     1       0.783   3.172   7.594  0.00  0.00    -0.101 S 
ATOM      8  C   UNL     1       0.241   1.955   6.429  0.00  0.00    -0.010 A 
ATOM      9  C   UNL     1       0.987   0.808   5.830  0.00  0.00    +0.024 C 
ATOM     10  C   UNL     1      -0.044  -0.118   5.161  0.00  0.00    -0.071 C 
ATOM     11  N   UNL     1      -0.960   0.695   4.348  0.00  0.00    +0.395 N 
ATOM     12  H   UNL     1      -0.421   1.334   3.783  0.00  0.00    -0.079 HD
BRANCH   3  19
ATOM     13  C   UNL     1      -4.483   2.295   6.126  0.00  0.00    +0.044 C 
ATOM     14  C   UNL     1      -3.969   2.769   4.791  0.00  0.00    -0.049 A 
ATOM     15  C   UNL     1      -4.743   3.608   4.011  0.00  0.00    +0.003 A 
ATOM     16  C   UNL     1      -4.271   4.043   2.786  0.00  0.00    +0.000 A 
ATOM     17  C   UNL     1      -3.026   3.639   2.342  0.00  0.00    +0.000 A 
ATOM     18  C   UNL     1      -2.252   2.801   3.123  0.00  0.00    +0.002 A 
ATOM     19  C   UNL     1      -2.722   2.369   4.349  0.00  0.00    -0.054 A 
ENDBRANCH   3  19
ENDBRANCH   1  11
BRANCH   1  20
ATOM     20  C   UNL     1      -2.657  -1.044   4.302  0.00  0.00    +0.202 C 
ATOM     21  O   UNL     1      -2.390  -1.265   5.465  0.00  0.00    -0.277 OA
ATOM     22  N   UNL     1      -3.774  -1.565   3.756  0.00  0.00    -0.300 N 
ATOM     23  C   UNL     1      -4.045  -1.414   2.320  0.00  0.00    +0.126 C 
ATOM     24  C   UNL     1      -4.259  -2.806   1.713  0.00  0.00    +0.127 C 
ATOM     25  N   UNL     1      -5.227  -3.537   2.543  0.00  0.00    -0.295 N 
ATOM     26  C   UNL     1      -4.956  -3.688   3.979  0.00  0.00    +0.127 C 
ATOM     27  C   UNL     1      -4.739  -2.301   4.586  0.00  0.00    +0.126 C 
ATOM     28  C   UNL     1      -6.343  -4.058   1.997  0.00  0.00    +0.247 C 
ATOM     29  O   UNL     1      -7.184  -4.573   2.708  0.00  0.00    -0.270 OA
BRANCH  28  30
ATOM     30  C   UNL     1      -6.545  -4.005   0.533  0.00  0.00    +0.039 A 
ATOM     31  C   UNL     1      -5.498  -4.330  -0.331  0.00  0.00    +0.013 A 
ATOM     32  C   UNL     1      -5.693  -4.279  -1.695  0.00  0.00    +0.003 A 
ATOM     33  C   UNL     1      -6.923  -3.905  -2.208  0.00  0.00    +0.033 A 
ATOM     34  C   UNL     1      -7.964  -3.581  -1.357  0.00  0.00    +0.127 A 
ATOM     35  C   UNL     1      -7.784  -3.634   0.010  0.00  0.00    +0.045 A 
BRANCH  34  36
ATOM     36  N   UNL     1      -9.276  -3.181  -1.914  0.00  0.00    +0.056 N 
ATOM     37  O   UNL     1      -9.437  -3.139  -3.112  0.00  0.00    -0.126 OA
ATOM     38  O   UNL     1     -10.187  -2.898  -1.172  0.00  0.00    -0.126 OA
ENDBRANCH  34  36
ENDBRANCH  28  30
ENDBRANCH   1  20
TORSDOF 5
