REMARK  Name = ZINC15427864
REMARK  6 active torsions:
REMARK  status: ('A' for Active; 'I' for Inactive)
REMARK    1  A    between atoms: C_8  and  C_10
REMARK    2  A    between atoms: N_12  and  N_13
REMARK    3  A    between atoms: C_14  and  C_16
REMARK    4  A    between atoms: C_21  and  N_22
REMARK    5  A    between atoms: N_22  and  S_23
REMARK    6  A    between atoms: S_23  and  C_26
REMARK                            x       y       z     vdW  Elec       q    Type
REMARK                         _______ _______ _______ _____ _____    ______ ____
ROOT
ATOM      1  N   UNL     1      -1.656   3.436   0.319  0.00  0.00    -0.230 N 
ATOM      2  C   UNL     1      -1.532   2.098   0.215  0.00  0.00    +0.262 C 
ATOM      3  O   UNL     1      -2.521   1.405   0.067  0.00  0.00    -0.269 OA
ATOM      4  H   UNL     1      -0.867   3.988   0.437  0.00  0.00    +0.173 HD
ENDROOT
BRANCH   2   5
ATOM      5  C   UNL     1      -0.198   1.473   0.281  0.00  0.00    +0.060 A 
ATOM      6  C   UNL     1       0.941   2.265   0.446  0.00  0.00    +0.015 A 
ATOM      7  C   UNL     1       2.185   1.676   0.501  0.00  0.00    +0.001 A 
ATOM      8  C   UNL     1       2.314   0.300   0.394  0.00  0.00    +0.002 A 
ATOM      9  C   UNL     1       1.199  -0.496   0.232  0.00  0.00    +0.025 A 
ATOM     10  C   UNL     1      -0.065   0.080   0.173  0.00  0.00    +0.060 A 
BRANCH  10  11
ATOM     11  N   UNL     1      -1.189  -0.718   0.010  0.00  0.00    -0.215 N 
ATOM     12  H   UNL     1      -1.937  -0.401  -0.520  0.00  0.00    +0.174 HD
BRANCH  11  13
ATOM     13  S   UNL     1      -1.253  -2.213   0.720  0.00  0.00    +0.079 S 
ATOM     14  O   UNL     1      -2.561  -2.717   0.487  0.00  0.00    -0.149 OA
ATOM     15  O   UNL     1      -0.084  -2.908   0.309  0.00  0.00    -0.149 OA
BRANCH  13  16
ATOM     16  C   UNL     1      -1.110  -1.970   2.459  0.00  0.00    +0.146 A 
ATOM     17  C   UNL     1      -2.087  -1.771   3.377  0.00  0.00    +0.036 A 
ATOM     18  C   UNL     1      -1.737  -1.603   4.704  0.00  0.00    +0.010 A 
ATOM     19  C   UNL     1      -0.427  -1.641   5.048  0.00  0.00    +0.047 A 
ATOM     20  S   UNL     1       0.361  -1.929   3.471  0.00  0.00    -0.077 S 
ENDBRANCH  13  16
ENDBRANCH  11  13
ENDBRANCH  10  11
ENDBRANCH   2   5
BRANCH   1  23
ATOM     21  C   UNL     1      -3.047   5.367   0.360  0.00  0.00    +0.268 C 
ATOM     22  O   UNL     1      -2.058   6.060   0.508  0.00  0.00    -0.268 OA
ATOM     23  N   UNL     1      -2.923   4.029   0.256  0.00  0.00    -0.230 N 
ATOM     24  H   UNL     1      -3.712   3.477   0.138  0.00  0.00    +0.173 HD
BRANCH  21  32
ATOM     25  C   UNL     1      -7.918   9.231   0.257  0.00  0.00    +0.001 A 
ATOM     26  C   UNL     1      -8.811   8.180   0.086  0.00  0.00    +0.001 A 
ATOM     27  C   UNL     1      -8.335   6.887   0.017  0.00  0.00    +0.016 A 
ATOM     28  C   UNL     1      -6.979   6.656   0.118  0.00  0.00    +0.021 A 
ATOM     29  C   UNL     1      -6.047   7.706   0.292  0.00  0.00    +0.008 A 
ATOM     30  C   UNL     1      -6.580   9.019   0.357  0.00  0.00    +0.010 A 
ATOM     31  C   UNL     1      -4.700   7.308   0.384  0.00  0.00    +0.068 A 
ATOM     32  C   UNL     1      -4.375   5.989   0.294  0.00  0.00    +0.095 A 
ATOM     33  S   UNL     1      -5.963   5.201   0.084  0.00  0.00    -0.082 S 
ATOM     34 CL   UNL     1      -3.454   8.496   0.605  0.00  0.00    -0.082 Cl
ENDBRANCH  21  32
ENDBRANCH   1  23
TORSDOF 6
