REMARK  Name = ZINC02770877
REMARK  3 active torsions:
REMARK  status: ('A' for Active; 'I' for Inactive)
REMARK    1  A    between atoms: C_10  and  C_12
REMARK    2  A    between atoms: C_16  and  C_24
REMARK    3  A    between atoms: C_18  and  C_21
REMARK                            x       y       z     vdW  Elec       q    Type
REMARK                         _______ _______ _______ _____ _____    ______ ____
ROOT
ATOM      1  C   UNL     1      -0.075   1.375   0.001  0.00  0.00    +0.150 A 
ATOM      2  C   UNL     1      -1.209   2.195   0.014  0.00  0.00    +0.083 A 
ATOM      3  C   UNL     1      -0.774   3.511   0.021  0.00  0.00    +0.157 A 
ATOM      4  N   UNL     1      -1.431   4.679   0.035  0.00  0.00    -0.232 NA
ATOM      5  C   UNL     1      -0.780   5.817   0.033  0.00  0.00    +0.049 A 
ATOM      6  C   UNL     1       0.623   5.830   0.014  0.00  0.00    +0.052 A 
ATOM      7  C   UNL     1       1.300   4.657  -0.000  0.00  0.00    +0.112 A 
ATOM      8  N   UNL     1       0.598   3.484   0.003  0.00  0.00    -0.212 N 
ATOM      9  N   UNL     1       1.002   2.144  -0.009  0.00  0.00    -0.160 NA
ENDROOT
BRANCH   1  19
ATOM     10  C   UNL     1       1.824  -4.862  -0.503  0.00  0.00    +0.000 A 
ATOM     11  C   UNL     1       0.501  -4.471  -0.398  0.00  0.00    +0.002 A 
ATOM     12  C   UNL     1       0.180  -3.136  -0.271  0.00  0.00    +0.024 A 
ATOM     13  C   UNL     1       1.187  -2.169  -0.241  0.00  0.00    +0.040 A 
ATOM     14  C   UNL     1       2.509  -2.571  -0.354  0.00  0.00    -0.024 A 
ATOM     15  C   UNL     1       2.826  -3.910  -0.481  0.00  0.00    +0.005 A 
ATOM     16  C   UNL     1       3.391  -1.344  -0.301  0.00  0.00    +0.056 C 
ATOM     17  C   UNL     1       2.410  -0.169  -0.150  0.00  0.00    +0.119 C 
ATOM     18  N   UNL     1       1.079  -0.781  -0.127  0.00  0.00    -0.266 N 
ATOM     19  C   UNL     1      -0.080  -0.104  -0.007  0.00  0.00    +0.271 C 
ATOM     20  O   UNL     1      -1.130  -0.708   0.095  0.00  0.00    -0.268 OA
ENDBRANCH   1  19
BRANCH   7  21
ATOM     21  C   UNL     1       2.807   4.645  -0.021  0.00  0.00    +0.390 C 
ATOM     22  F   UNL     1       3.292   5.718   0.735  0.00  0.00    -0.202 F 
ATOM     23  F   UNL     1       3.271   3.443   0.525  0.00  0.00    -0.202 F 
ENDBRANCH   7  21
BRANCH   5  24
ATOM     24  C   UNL     1      -1.542   7.118   0.049  0.00  0.00    +0.038 C 
ATOM     25  C   UNL     1      -0.769   8.384   0.425  0.00  0.00    +0.010 C 
ATOM     26  C   UNL     1      -1.777   7.781   1.407  0.00  0.00    +0.010 C 
ENDBRANCH   5  24
TORSDOF 3
