REMARK  Name = ZINC09599561
REMARK  7 active torsions:
REMARK  status: ('A' for Active; 'I' for Inactive)
REMARK    1  A    between atoms: C_1  and  C_2
REMARK    2  A    between atoms: C_9  and  N_20
REMARK    3  A    between atoms: C_10  and  C_11
REMARK    4  A    between atoms: C_21  and  C_23
REMARK    5  A    between atoms: C_23  and  C_24
REMARK    6  A    between atoms: C_24  and  S_25
REMARK    7  A    between atoms: S_25  and  C_28
REMARK                            x       y       z     vdW  Elec       q    Type
REMARK                         _______ _______ _______ _____ _____    ______ ____
ROOT
ATOM      1  C   UNL     1      -0.019   1.526   0.010  0.00  0.00    +0.008 C 
ATOM      2  C   UNL     1       0.002  -0.004   0.002  0.00  0.00    -0.009 C 
ATOM      3  C   UNL     1       0.742  -0.515   1.242  0.00  0.00    +0.008 C 
ATOM      4  C   UNL     1       0.986  -2.019   1.119  0.00  0.00    +0.037 C 
ATOM      5  C   UNL     1      -0.340  -2.710   0.814  0.00  0.00    -0.026 A 
ATOM      6  C   UNL     1      -1.390  -2.005   0.332  0.00  0.00    -0.004 A 
ATOM      7  S   UNL     1      -2.684  -3.199   0.134  0.00  0.00    -0.077 S 
ATOM      8  C   UNL     1      -1.807  -4.646   0.702  0.00  0.00    +0.082 A 
ATOM      9  C   UNL     1      -0.560  -4.130   1.015  0.00  0.00    +0.039 A 
ATOM     10  C   UNL     1      -1.437  -0.539   0.033  0.00  0.00    +0.046 C 
ENDROOT
BRANCH   9  11
ATOM     11  C   UNL     1       0.511  -4.998   1.535  0.00  0.00    +0.112 A 
ATOM     12  N   UNL     1       1.744  -4.677   1.873  0.00  0.00    -0.239 NA
ATOM     13  C   UNL     1       2.623  -5.585   2.343  0.00  0.00    +0.079 A 
ATOM     14  C   UNL     1       3.964  -5.374   2.744  0.00  0.00    +0.029 A 
ATOM     15  C   UNL     1       4.731  -6.415   3.196  0.00  0.00    +0.002 A 
ATOM     16  C   UNL     1       4.227  -7.705   3.278  0.00  0.00    +0.001 A 
ATOM     17  C   UNL     1       2.921  -7.948   2.895  0.00  0.00    +0.017 A 
ATOM     18  C   UNL     1       2.144  -6.912   2.440  0.00  0.00    +0.040 A 
ATOM     19  S   UNL     1       0.472  -6.755   1.859  0.00  0.00    -0.067 S 
ENDBRANCH   9  11
BRANCH   8  20
ATOM     20  N   UNL     1      -2.259  -5.956   0.803  0.00  0.00    -0.279 N 
ATOM     21  C   UNL     1      -3.522  -6.263   0.445  0.00  0.00    +0.219 C 
ATOM     22  O   UNL     1      -4.263  -5.395   0.034  0.00  0.00    -0.275 OA
ATOM     23  H   UNL     1      -1.667  -6.650   1.132  0.00  0.00    +0.155 HD
BRANCH  21  24
ATOM     24  C   UNL     1      -4.013  -7.683   0.555  0.00  0.00    +0.119 C 
BRANCH  24  25
ATOM     25  C   UNL     1      -5.468  -7.758   0.089  0.00  0.00    +0.181 C 
BRANCH  25  26
ATOM     26  S   UNL     1      -6.058  -9.468   0.221  0.00  0.00    -0.003 S 
ATOM     27  O   UNL     1      -5.385 -10.293  -0.720  0.00  0.00    -0.169 OA
ATOM     28  O   UNL     1      -6.147  -9.851   1.587  0.00  0.00    -0.169 OA
BRANCH  26  29
ATOM     29  C   UNL     1      -7.728  -9.415  -0.340  0.00  0.00    +0.088 A 
ATOM     30  C   UNL     1      -8.752  -9.186   0.558  0.00  0.00    +0.027 A 
ATOM     31  C   UNL     1     -10.062  -9.139   0.117  0.00  0.00    +0.002 A 
ATOM     32  C   UNL     1     -10.347  -9.333  -1.222  0.00  0.00    +0.000 A 
ATOM     33  C   UNL     1      -9.322  -9.568  -2.120  0.00  0.00    +0.002 A 
ATOM     34  C   UNL     1      -8.013  -9.609  -1.679  0.00  0.00    +0.027 A 
ENDBRANCH  26  29
ENDBRANCH  25  26
ENDBRANCH  24  25
ENDBRANCH  21  24
ENDBRANCH   8  20
TORSDOF 6
