REMARK  Name = ZINC39498798
REMARK  11 active torsions:
REMARK  status: ('A' for Active; 'I' for Inactive)
REMARK    1  A    between atoms: C_1  and  C_2
REMARK    2  A    between atoms: C_2  and  C_3
REMARK    3  A    between atoms: C_2  and  S_4
REMARK    4  A    between atoms: S_4  and  C_7
REMARK    5  A    between atoms: C_8  and  C_24
REMARK    6  A    between atoms: C_11  and  S_14
REMARK    7  A    between atoms: S_14  and  O_17
REMARK    8  A    between atoms: O_17  and  C_18
REMARK    9  A    between atoms: C_24  and  C_26
REMARK   10  A    between atoms: C_24  and  N_29
REMARK   11  A    between atoms: C_26  and  C_27
REMARK                            x       y       z     vdW  Elec       q    Type
REMARK                         _______ _______ _______ _____ _____    ______ ____
ROOT
ATOM      1  C   UNL     1      -0.825  -2.436  -0.497  0.00  0.00    +0.109 A 
ATOM      2  C   UNL     1      -1.092  -3.093  -1.683  0.00  0.00    -0.001 A 
ATOM      3  C   UNL     1      -1.488  -4.418  -1.666  0.00  0.00    +0.009 A 
ATOM      4  C   UNL     1      -1.617  -5.085  -0.462  0.00  0.00    +0.032 A 
ATOM      5  C   UNL     1      -1.349  -4.429   0.724  0.00  0.00    +0.144 A 
ATOM      6  C   UNL     1      -0.948  -3.105   0.707  0.00  0.00    +0.071 A 
ATOM      7 BR   UNL     1      -0.576  -2.208   2.330  0.00  0.00    -0.046 Br
ENDROOT
BRANCH   1   8
ATOM      8  S   UNL     1      -0.320  -0.748  -0.519  0.00  0.00    +0.001 S 
ATOM      9  O   UNL     1      -0.632  -0.259   0.777  0.00  0.00    -0.169 OA
ATOM     10  O   UNL     1      -0.945  -0.198  -1.671  0.00  0.00    -0.169 OA
BRANCH   8  12
ATOM     11  C   UNL     1       2.031   0.624  -0.791  0.00  0.00    +0.032 C 
ATOM     12  C   UNL     1       1.479  -0.802  -0.750  0.00  0.00    +0.130 C 
ATOM     13  C   UNL     1       2.119  -1.565   0.411  0.00  0.00    +0.032 C 
ENDBRANCH   8  12
ENDBRANCH   1   8
BRANCH   5  14
ATOM     14  S   UNL     1      -1.513  -5.280   2.259  0.00  0.00    +0.152 S 
ATOM     15  O   UNL     1      -0.260  -5.898   2.516  0.00  0.00    -0.131 OA
ATOM     16  O   UNL     1      -2.114  -4.367   3.167  0.00  0.00    -0.131 OA
BRANCH  14  17
ATOM     17  O   UNL     1      -2.517  -6.404   2.045  0.00  0.00    -0.342 OA
BRANCH  17  18
ATOM     18  C   UNL     1      -3.810  -5.990   2.001  0.00  0.00    +0.157 A 
ATOM     19  C   UNL     1      -4.523  -5.813   3.178  0.00  0.00    +0.048 A 
ATOM     20  C   UNL     1      -5.838  -5.391   3.131  0.00  0.00    +0.004 A 
ATOM     21  C   UNL     1      -6.443  -5.146   1.913  0.00  0.00    +0.000 A 
ATOM     22  C   UNL     1      -5.735  -5.322   0.738  0.00  0.00    +0.004 A 
ATOM     23  C   UNL     1      -4.418  -5.737   0.780  0.00  0.00    +0.048 A 
ENDBRANCH  17  18
ENDBRANCH  14  17
ENDBRANCH   5  14
BRANCH   2  24
ATOM     24  C   UNL     1      -0.953  -2.366  -2.996  0.00  0.00    +0.112 C 
BRANCH  24  25
ATOM     25  N   UNL     1      -2.137  -1.533  -3.221  0.00  0.00    -0.311 N 
ATOM     26  C   UNL     1      -3.362  -2.095  -3.238  0.00  0.00    +0.326 C 
ATOM     27  O   UNL     1      -3.494  -3.272  -2.975  0.00  0.00    -0.280 OA
ATOM     28  H   UNL     1      -2.040  -0.578  -3.358  0.00  0.00    +0.149 HD
ENDBRANCH  24  25
BRANCH  24  29
ATOM     29  C   UNL     1      -0.821  -3.383  -4.131  0.00  0.00    +0.097 C 
BRANCH  29  30
ATOM     30  C   UNL     1      -0.548  -2.659  -5.425  0.00  0.00    +0.225 C 
ATOM     31  O   UNL     1       0.419  -2.949  -6.086  0.00  0.00    -0.301 OA
ENDBRANCH  29  30
ENDBRANCH  24  29
ENDBRANCH   2  24
TORSDOF 9
