REMARK  Name = ZINC28853889
REMARK  16 active torsions:
REMARK  status: ('A' for Active; 'I' for Inactive)
REMARK    1  A    between atoms: C_1  and  C_2
REMARK    2  A    between atoms: C_5  and  S_14
REMARK    3  A    between atoms: N_6  and  C_7
REMARK    4  A    between atoms: C_7  and  C_8
REMARK    5  A    between atoms: S_14  and  C_15
REMARK    6  A    between atoms: C_15  and  C_16
REMARK    7  A    between atoms: N_18  and  C_19
REMARK    8  A    between atoms: N_18  and  C_23
REMARK    9  A    between atoms: C_19  and  C_20
REMARK   10  A    between atoms: C_20  and  C_21
REMARK   11  A    between atoms: C_20  and  C_22
REMARK   12  A    between atoms: C_24  and  N_36
REMARK   13  A    between atoms: N_25  and  C_32
REMARK   14  A    between atoms: C_32  and  C_33
REMARK   15  A    between atoms: C_33  and  C_34
REMARK   16  A    between atoms: C_33  and  C_35
REMARK                            x       y       z     vdW  Elec       q    Type
REMARK                         _______ _______ _______ _____ _____    ______ ____
ROOT
ATOM      1  C   UNL     1      -0.049   5.763  -0.813  0.00  0.00    +0.230 C 
ATOM      2  O   UNL     1       0.984   6.296  -1.158  0.00  0.00    -0.274 OA
ATOM      3  N   UNL     1      -1.135   6.514  -0.531  0.00  0.00    -0.263 N 
ENDROOT
BRANCH   3   4
ATOM      4  C   UNL     1      -1.042   7.921  -0.548  0.00  0.00    +0.140 A 
ATOM      5  C   UNL     1      -0.171   8.577   0.298  0.00  0.00    +0.127 A 
ATOM      6  N   UNL     1      -0.103   9.951   0.259  0.00  0.00    -0.280 N 
ATOM      7  C   UNL     1      -0.877  10.646  -0.593  0.00  0.00    +0.331 A 
ATOM      8  O   UNL     1      -0.803  11.860  -0.612  0.00  0.00    -0.246 OA
ATOM      9  N   UNL     1      -1.732  10.024  -1.425  0.00  0.00    -0.273 N 
ATOM     10  H   UNL     1      -2.360  10.613  -2.110  0.00  0.00    +0.173 HD
ATOM     11  C   UNL     1      -1.833   8.681  -1.430  0.00  0.00    +0.277 A 
ATOM     12  O   UNL     1      -2.608   8.127  -2.192  0.00  0.00    -0.266 OA
BRANCH   5  13
ATOM     13  N   UNL     1       0.620   7.867   1.169  0.00  0.00    -0.343 N 
ATOM     14  H   UNL     1       1.312   8.396   1.840  0.00  0.00    +0.144 HD
ATOM     15  H   UNL     1       0.560   6.769   1.195  0.00  0.00    +0.144 HD
ENDBRANCH   5  13
BRANCH   6  16
ATOM     16  C   UNL     1       0.818  10.660   1.150  0.00  0.00    +0.131 C 
BRANCH  16  17
ATOM     17  C   UNL     1       2.171  10.827   0.457  0.00  0.00    +0.003 C 
ATOM     18  C   UNL     1       2.010  11.735  -0.764  0.00  0.00    +0.009 C 
ATOM     19  C   UNL     1       3.170  11.456   1.431  0.00  0.00    +0.009 C 
ENDBRANCH  16  17
ENDBRANCH   6  16
ENDBRANCH   3   4
BRANCH   1  20
ATOM     20  C   UNL     1      -0.121   4.262  -0.697  0.00  0.00    +0.173 C 
BRANCH  20  21
ATOM     21  S   UNL     1       1.482   3.546  -1.137  0.00  0.00    -0.077 S 
BRANCH  21  26
ATOM     22  C   UNL     1       1.776  -1.755  -0.896  0.00  0.00    +0.088 C 
ATOM     23  C   UNL     1       1.269  -0.337  -0.830  0.00  0.00    +0.131 A 
ATOM     24  N   UNL     1       0.068   0.039  -0.491  0.00  0.00    -0.134 NA
ATOM     25  N   UNL     1      -0.024   1.320  -0.543  0.00  0.00    -0.122 NA
ATOM     26  C   UNL     1       1.123   1.835  -0.921  0.00  0.00    +0.192 A 
ATOM     27  N   UNL     1       1.984   0.793  -1.117  0.00  0.00    -0.302 N 
BRANCH  27  28
ATOM     28  C   UNL     1       3.383   0.871  -1.544  0.00  0.00    +0.160 C 
BRANCH  28  29
ATOM     29  C   UNL     1       3.452   0.813  -3.048  0.00  0.00    -0.028 A 
ATOM     30  C   UNL     1       3.571  -0.407  -3.688  0.00  0.00    +0.005 A 
ATOM     31  C   UNL     1       3.630  -0.460  -5.069  0.00  0.00    +0.000 A 
ATOM     32  C   UNL     1       3.580   0.707  -5.808  0.00  0.00    +0.000 A 
ATOM     33  C   UNL     1       3.467   1.927  -5.168  0.00  0.00    +0.000 A 
ATOM     34  C   UNL     1       3.403   1.980  -3.788  0.00  0.00    +0.005 A 
ENDBRANCH  28  29
ENDBRANCH  27  28
ENDBRANCH  21  26
ENDBRANCH  20  21
ENDBRANCH   1  20
BRANCH   3  35
ATOM     35  C   UNL     1      -2.409   5.867  -0.209  0.00  0.00    +0.117 C 
BRANCH  35  36
ATOM     36  C   UNL     1      -2.456   5.549   1.286  0.00  0.00    +0.001 C 
ATOM     37  C   UNL     1      -2.459   6.854   2.085  0.00  0.00    +0.009 C 
ATOM     38  C   UNL     1      -3.727   4.756   1.599  0.00  0.00    +0.009 C 
ENDBRANCH  35  36
ENDBRANCH   3  35
TORSDOF 11
