REMARK  Name = ZINC08385053
REMARK  9 active torsions:
REMARK  status: ('A' for Active; 'I' for Inactive)
REMARK    1  A    between atoms: C_1  and  C_2
REMARK    2  A    between atoms: C_6  and  N_13
REMARK    3  A    between atoms: C_9  and  C_11
REMARK    4  A    between atoms: C_9  and  C_12
REMARK    5  A    between atoms: N_15  and  C_16
REMARK    6  A    between atoms: N_22  and  C_23
REMARK    7  A    between atoms: C_29  and  O_36
REMARK    8  A    between atoms: C_32  and  C_34
REMARK    9  A    between atoms: C_32  and  C_35
REMARK                            x       y       z     vdW  Elec       q    Type
REMARK                         _______ _______ _______ _____ _____    ______ ____
ROOT
ATOM      1  C   UNL     1      -0.256   2.064   5.568  0.00  0.00    +0.011 C 
ATOM      2  C   UNL     1      -0.339   0.668   4.929  0.00  0.00    -0.025 C 
ATOM      3  C   UNL     1      -0.398   0.863   3.431  0.00  0.00    +0.037 C 
ATOM      4  C   UNL     1       0.161  -0.293   2.631  0.00  0.00    -0.065 C 
ATOM      5  C   UNL     1       0.694  -1.352   3.172  0.00  0.00    -0.017 C 
ATOM      6  C   UNL     1       1.250  -2.489   2.349  0.00  0.00    +0.111 C 
ATOM      7  C   UNL     1       0.793  -2.438   0.897  0.00  0.00    +0.036 C 
ATOM      8  C   UNL     1       0.970  -1.020   0.352  0.00  0.00    -0.029 C 
ATOM      9  C   UNL     1       0.053  -0.093   1.133  0.00  0.00    +0.037 C 
ATOM     10  C   UNL     1       0.566  -0.994  -1.130  0.00  0.00    +0.011 C 
ATOM     11  C   UNL     1       2.423  -0.562   0.480  0.00  0.00    +0.011 C 
ATOM     12  C   UNL     1       0.847  -1.473   4.674  0.00  0.00    +0.090 C 
ATOM     13  C   UNL     1       0.939  -0.079   5.303  0.00  0.00    +0.046 C 
ATOM     14  C   UNL     1      -0.316  -2.221   5.307  0.00  0.00    +0.045 C 
ATOM     15  C   UNL     1      -1.653  -1.505   5.211  0.00  0.00    -0.031 C 
ATOM     16  C   UNL     1      -1.569  -0.015   5.487  0.00  0.00    +0.013 C 
ATOM     17  C   UNL     1      -2.313  -1.764   3.853  0.00  0.00    +0.011 C 
ATOM     18  C   UNL     1      -2.584  -2.120   6.285  0.00  0.00    +0.011 C 
ENDROOT
BRANCH   6  19
ATOM     19  N   UNL     1       0.843  -3.786   2.897  0.00  0.00    -0.351 N 
ATOM     20  C   UNL     1       1.735  -4.711   3.111  0.00  0.00    +0.181 C 
ATOM     21  N   UNL     1       1.374  -5.884   3.735  0.00  0.00    -0.327 N 
ATOM     22  N   UNL     1       3.039  -4.516   2.715  0.00  0.00    -0.327 N 
ATOM     23  H   UNL     1       2.052  -6.536   3.973  0.00  0.00    +0.169 HD
ATOM     24  H   UNL     1       3.309  -3.663   2.341  0.00  0.00    +0.169 HD
ATOM     25  H   UNL     1      -0.090  -3.956   3.100  0.00  0.00    +0.163 HD
BRANCH  21  26
ATOM     26  C   UNL     1       0.029  -6.136   4.026  0.00  0.00    +0.042 A 
ATOM     27  C   UNL     1      -0.942  -5.944   3.052  0.00  0.00    +0.026 A 
ATOM     28  C   UNL     1      -2.268  -6.195   3.342  0.00  0.00    +0.002 A 
ATOM     29  C   UNL     1      -2.631  -6.636   4.601  0.00  0.00    +0.000 A 
ATOM     30  C   UNL     1      -1.667  -6.828   5.574  0.00  0.00    +0.002 A 
ATOM     31  C   UNL     1      -0.337  -6.585   5.288  0.00  0.00    +0.026 A 
ENDBRANCH  21  26
BRANCH  22  32
ATOM     32  C   UNL     1       3.973  -5.548   2.850  0.00  0.00    +0.042 A 
ATOM     33  C   UNL     1       3.611  -6.857   2.564  0.00  0.00    +0.026 A 
ATOM     34  C   UNL     1       4.536  -7.874   2.699  0.00  0.00    +0.002 A 
ATOM     35  C   UNL     1       5.822  -7.588   3.118  0.00  0.00    +0.000 A 
ATOM     36  C   UNL     1       6.187  -6.285   3.404  0.00  0.00    +0.002 A 
ATOM     37  C   UNL     1       5.268  -5.264   3.266  0.00  0.00    +0.026 A 
ENDBRANCH  22  32
ENDBRANCH   6  19
BRANCH  12  38
ATOM     38  O   UNL     1       2.077  -2.163   4.967  0.00  0.00    -0.384 OA
ATOM     39  H   UNL     1       2.247  -2.279   5.912  0.00  0.00    +0.211 HD
ENDBRANCH  12  38
TORSDOF 4
