REMARK  Name = ZINC22755106
REMARK  9 active torsions:
REMARK  status: ('A' for Active; 'I' for Inactive)
REMARK    1  A    between atoms: C_3  and  C_6
REMARK    2  A    between atoms: C_6  and  C_8
REMARK    3  A    between atoms: C_6  and  N_25
REMARK    4  A    between atoms: C_8  and  N_9
REMARK    5  A    between atoms: C_10  and  C_12
REMARK    6  A    between atoms: C_12  and  C_13
REMARK    7  A    between atoms: C_13  and  N_14
REMARK    8  A    between atoms: N_14  and  S_15
REMARK    9  A    between atoms: S_15  and  C_18
REMARK                            x       y       z     vdW  Elec       q    Type
REMARK                         _______ _______ _______ _____ _____    ______ ____
ROOT
ATOM      1  N   UNL     1      -2.767   1.447  -2.984  0.00  0.00    -0.316 N 
ATOM      2  C   UNL     1      -3.751   1.838  -3.817  0.00  0.00    +0.214 C 
ATOM      3  O   UNL     1      -3.490   2.155  -4.958  0.00  0.00    -0.276 OA
ATOM      4  H   UNL     1      -3.004   1.160  -1.949  0.00  0.00    +0.149 HD
ENDROOT
BRANCH   1   5
ATOM      5  C   UNL     1      -1.381   1.404  -3.457  0.00  0.00    +0.094 C 
BRANCH   5   6
ATOM      6  C   UNL     1      -0.488   0.807  -2.367  0.00  0.00    -0.013 C 
BRANCH   6   7
ATOM      7  N   UNL     1       0.915   0.866  -2.797  0.00  0.00    +0.386 N 
ATOM      8  C   UNL     1       1.821   0.373  -1.728  0.00  0.00    -0.078 C 
ATOM      9  C   UNL     1       3.200   0.974  -2.074  0.00  0.00    -0.020 C 
ATOM     10  C   UNL     1       2.886   2.224  -2.927  0.00  0.00    -0.020 C 
ATOM     11  C   UNL     1       1.346   2.270  -3.022  0.00  0.00    -0.078 C 
ATOM     12  H   UNL     1       0.964   0.255  -3.711  0.00  0.00    -0.081 HD
ENDBRANCH   6   7
BRANCH   6  15
ATOM     13  C   UNL     1      -1.881  -2.510  -1.116  0.00  0.00    +0.008 A 
ATOM     14  C   UNL     1      -1.650  -1.148  -1.139  0.00  0.00    +0.009 A 
ATOM     15  C   UNL     1      -0.881  -0.627  -2.126  0.00  0.00    -0.022 A 
ATOM     16  S   UNL     1      -0.459  -2.082  -3.071  0.00  0.00    -0.103 S 
ATOM     17  C   UNL     1      -1.330  -3.286  -2.082  0.00  0.00    +0.045 A 
ENDBRANCH   6  15
ENDBRANCH   5   6
ENDBRANCH   1   5
BRANCH   2  18
ATOM     18  C   UNL     1      -5.177   1.882  -3.330  0.00  0.00    +0.112 C 
BRANCH  18  19
ATOM     19  C   UNL     1      -6.088   2.356  -4.464  0.00  0.00    +0.115 C 
BRANCH  19  20
ATOM     20  N   UNL     1      -7.474   2.399  -3.991  0.00  0.00    -0.189 NA
ATOM     21  H   UNL     1      -7.790   1.759  -3.154  0.00  0.00    +0.148 HD
BRANCH  20  22
ATOM     22  S   UNL     1      -8.622   3.216  -4.862  0.00  0.00    +0.058 S 
ATOM     23  O   UNL     1      -9.851   3.052  -4.169  0.00  0.00    -0.153 OA
ATOM     24  O   UNL     1      -8.076   4.495  -5.154  0.00  0.00    -0.153 OA
BRANCH  22  25
ATOM     25  C   UNL     1      -8.798   2.380  -6.404  0.00  0.00    +0.105 A 
ATOM     26  C   UNL     1      -8.017   2.750  -7.483  0.00  0.00    +0.029 A 
ATOM     27  C   UNL     1      -8.152   2.092  -8.691  0.00  0.00    +0.017 A 
ATOM     28  C   UNL     1      -9.075   1.070  -8.823  0.00  0.00    +0.018 A 
ATOM     29  C   UNL     1      -9.859   0.704  -7.744  0.00  0.00    +0.017 A 
ATOM     30  C   UNL     1      -9.720   1.359  -6.535  0.00  0.00    +0.029 A 
ATOM     31 BR   UNL     1      -9.264   0.173 -10.477  0.00  0.00    -0.050 Br
ENDBRANCH  22  25
ENDBRANCH  20  22
ENDBRANCH  19  20
ENDBRANCH  18  19
ENDBRANCH   2  18
TORSDOF 9
