REMARK  Name = ZINC11936701
REMARK  7 active torsions:
REMARK  status: ('A' for Active; 'I' for Inactive)
REMARK    1  A    between atoms: C_4  and  C_7
REMARK    2  A    between atoms: C_7  and  C_9
REMARK    3  A    between atoms: C_7  and  N_46
REMARK    4  A    between atoms: C_9  and  N_10
REMARK    5  A    between atoms: C_15  and  C_16
REMARK    6  A    between atoms: C_15  and  N_46
REMARK    7  A    between atoms: C_21  and  C_22
REMARK                            x       y       z     vdW  Elec       q    Type
REMARK                         _______ _______ _______ _____ _____    ______ ____
ROOT
ATOM      1  N   UNL     1      -0.374   4.095  -1.323  0.00  0.00    +0.388 N 
ATOM      2  H   UNL     1      -0.556   5.040  -0.965  0.00  0.00    -0.084 HD
ATOM      3  H   UNL     1      -0.904   3.411  -0.770  0.00  0.00    -0.084 HD
ENDROOT
BRANCH   1   4
ATOM      4  C   UNL     1       1.067   3.800  -1.210  0.00  0.00    -0.019 C 
BRANCH   4   8
ATOM      5  C   UNL     1       3.308   7.381  -1.841  0.00  0.00    +0.000 A 
ATOM      6  C   UNL     1       3.675   6.213  -2.483  0.00  0.00    +0.000 A 
ATOM      7  C   UNL     1       2.950   5.054  -2.280  0.00  0.00    +0.002 A 
ATOM      8  C   UNL     1       1.857   5.063  -1.433  0.00  0.00    -0.060 A 
ATOM      9  C   UNL     1       1.487   6.232  -0.794  0.00  0.00    +0.002 A 
ATOM     10  C   UNL     1       2.215   7.390  -0.995  0.00  0.00    +0.000 A 
ENDBRANCH   4   8
BRANCH   4  11
ATOM     11  C   UNL     1       1.360   3.254   0.189  0.00  0.00    +0.132 C 
BRANCH  11  12
ATOM     12  N   UNL     1       0.685   1.965   0.361  0.00  0.00    -0.273 N 
ATOM     13  C   UNL     1       1.272   0.804   0.721  0.00  0.00    +0.108 A 
ATOM     14  C   UNL     1       0.310  -0.146   0.769  0.00  0.00    +0.041 A 
ATOM     15  C   UNL     1      -0.906   0.454   0.427  0.00  0.00    +0.134 A 
ATOM     16  N   UNL     1      -0.682   1.720   0.182  0.00  0.00    -0.180 NA
ENDBRANCH  11  12
ENDBRANCH   4  11
ENDBRANCH   1   4
BRANCH   1  17
ATOM     17  C   UNL     1      -0.804   4.017  -2.732  0.00  0.00    -0.042 C 
BRANCH  17  18
ATOM     18  C   UNL     1      -2.273   4.341  -2.819  0.00  0.00    -0.019 A 
ATOM     19  C   UNL     1      -3.101   4.568  -1.776  0.00  0.00    +0.107 A 
ATOM     20  N   UNL     1      -4.332   4.823  -2.268  0.00  0.00    -0.284 N 
ATOM     21  H   UNL     1      -5.149   5.027  -1.729  0.00  0.00    +0.188 HD
ATOM     22  N   UNL     1      -4.266   4.752  -3.665  0.00  0.00    -0.174 NA
ATOM     23  C   UNL     1      -3.026   4.468  -4.003  0.00  0.00    +0.097 A 
BRANCH  23  24
ATOM     24  C   UNL     1      -2.513   4.306  -5.386  0.00  0.00    +0.038 A 
ATOM     25  C   UNL     1      -1.196   3.903  -5.600  0.00  0.00    +0.016 A 
ATOM     26  C   UNL     1      -0.724   3.748  -6.887  0.00  0.00    +0.039 A 
ATOM     27  C   UNL     1      -1.554   4.002  -7.968  0.00  0.00    +0.126 A 
ATOM     28  C   UNL     1      -2.862   4.408  -7.762  0.00  0.00    +0.077 A 
ATOM     29  C   UNL     1      -3.345   4.561  -6.476  0.00  0.00    +0.135 A 
ATOM     30  F   UNL     1      -4.621   4.957  -6.275  0.00  0.00    -0.205 F 
ATOM     31  F   UNL     1      -1.085   3.854  -9.226  0.00  0.00    -0.205 F 
ENDBRANCH  23  24
ENDBRANCH  17  18
ENDBRANCH   1  17
TORSDOF 7
