REMARK  Name = ZINC65298536
REMARK  8 active torsions:
REMARK  status: ('A' for Active; 'I' for Inactive)
REMARK    1  A    between atoms: C_1  and  C_2
REMARK    2  A    between atoms: C_2  and  C_3
REMARK    3  A    between atoms: C_2  and  N_4
REMARK    4  A    between atoms: C_11  and  C_23
REMARK    5  A    between atoms: C_14  and  C_16
REMARK    6  A    between atoms: C_21  and  O_22
REMARK    7  A    between atoms: C_26  and  O_29
REMARK    8  A    between atoms: O_29  and  C_30
REMARK                            x       y       z     vdW  Elec       q    Type
REMARK                         _______ _______ _______ _____ _____    ______ ____
ROOT
ATOM      1  N   UNL     1      -1.376  -0.512   0.012  0.00  0.00    +0.381 N 
ATOM      2  C   UNL     1      -1.354  -1.980   0.014  0.00  0.00    -0.075 C 
ATOM      3  C   UNL     1      -2.785  -2.515   0.104  0.00  0.00    +0.027 C 
ATOM      4  C   UNL     1      -3.586  -2.019  -1.104  0.00  0.00    +0.109 C 
ATOM      5  C   UNL     1      -3.543  -0.487  -1.132  0.00  0.00    +0.027 C 
ATOM      6  C   UNL     1      -2.085  -0.025  -1.177  0.00  0.00    -0.075 C 
ATOM      7  N   UNL     1      -4.981  -2.460  -0.975  0.00  0.00    -0.286 NA
ATOM      8  C   UNL     1      -5.726  -2.160  -2.209  0.00  0.00    +0.092 C 
ATOM      9  C   UNL     1      -5.175  -3.051  -3.328  0.00  0.00    +0.079 C 
ATOM     10  C   UNL     1      -3.673  -2.997  -3.317  0.00  0.00    +0.050 C 
ATOM     11  N   UNL     1      -2.996  -2.545  -2.330  0.00  0.00    -0.266 NA
ATOM     12  H   UNL     1      -5.030  -3.444  -0.753  0.00  0.00    +0.125 HD
ATOM     13  H   UNL     1      -1.848  -0.184   0.842  0.00  0.00    -0.081 HD
ENDROOT
BRANCH  10  14
ATOM     14  C   UNL     1      -2.945  -3.490  -4.501  0.00  0.00    +0.037 A 
ATOM     15  C   UNL     1      -3.648  -3.986  -5.601  0.00  0.00    +0.013 A 
ATOM     16  C   UNL     1      -2.961  -4.445  -6.705  0.00  0.00    +0.001 A 
ATOM     17  C   UNL     1      -1.576  -4.416  -6.728  0.00  0.00    +0.004 A 
ATOM     18  C   UNL     1      -0.870  -3.928  -5.647  0.00  0.00    +0.046 A 
ATOM     19  C   UNL     1      -1.544  -3.457  -4.530  0.00  0.00    +0.126 A 
BRANCH  19  20
ATOM     20  O   UNL     1      -0.851  -2.972  -3.469  0.00  0.00    -0.506 OA
ATOM     21  H   UNL     1      -0.624  -3.641  -2.809  0.00  0.00    +0.292 HD
ENDBRANCH  19  20
ENDBRANCH  10  14
BRANCH   8  22
ATOM     22  C   UNL     1      -7.190  -2.448  -2.003  0.00  0.00    -0.030 A 
ATOM     23  C   UNL     1      -7.580  -3.562  -1.282  0.00  0.00    +0.009 A 
ATOM     24  C   UNL     1      -8.922  -3.828  -1.092  0.00  0.00    +0.046 A 
ATOM     25  C   UNL     1      -9.879  -2.977  -1.624  0.00  0.00    +0.120 A 
ATOM     26  C   UNL     1      -9.486  -1.860  -2.346  0.00  0.00    +0.046 A 
ATOM     27  C   UNL     1      -8.142  -1.595  -2.530  0.00  0.00    +0.009 A 
BRANCH  25  28
ATOM     28  O   UNL     1     -11.200  -3.237  -1.438  0.00  0.00    -0.495 OA
ATOM     29  C   UNL     1     -12.130  -2.318  -2.015  0.00  0.00    +0.277 C 
ENDBRANCH  25  28
ENDBRANCH   8  22
BRANCH   1  31
ATOM     30  C   UNL     1      -0.019   1.526   0.010  0.00  0.00    -0.014 C 
ATOM     31  C   UNL     1       0.002  -0.004   0.002  0.00  0.00    -0.075 C 
ATOM     32  C   UNL     1       0.742  -0.511   1.242  0.00  0.00    -0.014 C 
ENDBRANCH   1  31
TORSDOF 5
