REMARK  Name = ZINC66187167
REMARK  7 active torsions:
REMARK  status: ('A' for Active; 'I' for Inactive)
REMARK    1  A    between atoms: C_1  and  C_2
REMARK    2  A    between atoms: C_2  and  C_4
REMARK    3  A    between atoms: C_2  and  C_22
REMARK    4  A    between atoms: C_4  and  N_5
REMARK    5  A    between atoms: N_8  and  C_9
REMARK    6  A    between atoms: N_8  and  C_10
REMARK    7  A    between atoms: C_22  and  N_23
REMARK                            x       y       z     vdW  Elec       q    Type
REMARK                         _______ _______ _______ _____ _____    ______ ____
ROOT
ATOM      1  N   UNL     1      -0.040  -0.196   2.441  0.00  0.00    -0.299 N 
ATOM      2  C   UNL     1       0.436  -0.520   3.659  0.00  0.00    +0.302 C 
ATOM      3  O   UNL     1       1.491  -1.116   3.761  0.00  0.00    -0.253 OA
ATOM      4  N   UNL     1      -0.257  -0.184   4.765  0.00  0.00    -0.286 N 
ATOM      5  C   UNL     1      -1.528   0.534   4.643  0.00  0.00    +0.134 C 
ATOM      6  H   UNL     1      -0.882   0.280   2.360  0.00  0.00    +0.150 HD
ENDROOT
BRANCH   4   7
ATOM      7  C   UNL     1       0.260  -0.537   6.090  0.00  0.00    +0.080 C 
ATOM      8  C   UNL     1      -0.745  -1.443   6.805  0.00  0.00    +0.041 C 
ATOM      9  C   UNL     1      -0.185  -1.838   8.175  0.00  0.00    +0.108 C 
ATOM     10  N   UNL     1       0.160  -0.616   8.915  0.00  0.00    -0.317 N 
ATOM     11  C   UNL     1       1.048   0.367   8.281  0.00  0.00    +0.108 C 
ATOM     12  C   UNL     1       0.475   0.737   6.909  0.00  0.00    +0.041 C 
ATOM     13  C   UNL     1      -0.345  -0.395  10.191  0.00  0.00    +0.099 A 
ATOM     14  C   UNL     1       0.091   0.705  10.924  0.00  0.00    +0.042 A 
ATOM     15  C   UNL     1      -0.420   0.913  12.192  0.00  0.00    +0.005 A 
ATOM     16  C   UNL     1      -1.354   0.012  12.687  0.00  0.00    +0.018 A 
ATOM     17  C   UNL     1      -1.742  -1.057  11.905  0.00  0.00    +0.084 A 
ATOM     18  N   UNL     1      -1.242  -1.228  10.696  0.00  0.00    -0.350 N 
ATOM     19  H   UNL     1      -1.534  -1.986  10.166  0.00  0.00    +0.166 HD
ENDBRANCH   4   7
BRANCH   1  20
ATOM     20  C   UNL     1       0.713  -0.561   1.239  0.00  0.00    +0.107 C 
BRANCH  20  22
ATOM     21  C   UNL     1      -0.093   1.450  -0.006  0.00  0.00    +0.007 C 
ATOM     22  C   UNL     1      -0.041  -0.079  -0.002  0.00  0.00    -0.014 C 
BRANCH  22  23
ATOM     23  C   UNL     1       0.681  -0.568  -1.259  0.00  0.00    -0.074 C 
BRANCH  23  24
ATOM     24  N   UNL     1      -0.106  -0.209  -2.447  0.00  0.00    +0.380 N 
ATOM     25  C   UNL     1      -1.386  -0.927  -2.419  0.00  0.00    -0.079 C 
ATOM     26  C   UNL     1      -2.243  -0.495  -3.611  0.00  0.00    -0.019 C 
ATOM     27  C   UNL     1      -1.502  -0.820  -4.911  0.00  0.00    -0.004 C 
ATOM     28  C   UNL     1      -0.137  -0.126  -4.895  0.00  0.00    -0.019 C 
ATOM     29  C   UNL     1       0.642  -0.571  -3.656  0.00  0.00    -0.079 C 
ATOM     30  H   UNL     1      -0.281   0.785  -2.445  0.00  0.00    -0.082 HD
ENDBRANCH  23  24
ENDBRANCH  22  23
ENDBRANCH  20  22
ENDBRANCH   1  20
TORSDOF 5
