REMARK  Name = ZINC01840541
REMARK  5 active torsions:
REMARK  status: ('A' for Active; 'I' for Inactive)
REMARK    1  A    between atoms: C_3  and  C_9
REMARK    2  A    between atoms: C_12  and  C_14
REMARK    3  A    between atoms: N_16  and  C_17
REMARK    4  A    between atoms: C_17  and  N_19
REMARK    5  A    between atoms: C_22  and  C_25
REMARK                            x       y       z     vdW  Elec       q    Type
REMARK                         _______ _______ _______ _____ _____    ______ ____
ROOT
ATOM      1  C   UNL     1      -2.355   1.676   0.022  0.00  0.00    +0.285 C 
ATOM      2  O   UNL     1      -2.339   0.459   0.016  0.00  0.00    -0.266 OA
ATOM      3  N   UNL     1      -1.197   2.366   0.021  0.00  0.00    -0.260 N 
ATOM      4  H   UNL     1      -1.212   3.466   0.027  0.00  0.00    +0.157 HD
ENDROOT
BRANCH   1   8
ATOM      5  C   UNL     1      -5.102   4.025   0.047  0.00  0.00    +0.137 A 
ATOM      6  C   UNL     1      -5.812   2.858   0.044  0.00  0.00    +0.051 A 
ATOM      7  C   UNL     1      -4.884   1.812   0.029  0.00  0.00    +0.055 A 
ATOM      8  C   UNL     1      -3.633   2.391   0.032  0.00  0.00    +0.190 A 
ATOM      9  O   UNL     1      -3.791   3.731   0.040  0.00  0.00    -0.450 OA
BRANCH   5  12
ATOM     10  C   UNL     1      -7.209   7.001  -0.847  0.00  0.00    +0.002 A 
ATOM     11  C   UNL     1      -6.669   5.732  -0.865  0.00  0.00    +0.013 A 
ATOM     12  C   UNL     1      -5.680   5.383   0.057  0.00  0.00    +0.037 A 
ATOM     13  C   UNL     1      -5.236   6.329   0.986  0.00  0.00    +0.070 A 
ATOM     14  C   UNL     1      -5.781   7.598   0.989  0.00  0.00    +0.060 A 
ATOM     15  C   UNL     1      -6.766   7.933   0.074  0.00  0.00    +0.021 A 
ATOM     16 CL   UNL     1      -5.232   8.774   2.141  0.00  0.00    -0.082 Cl
ATOM     17 CL   UNL     1      -4.002   5.909   2.133  0.00  0.00    -0.081 Cl
ENDBRANCH   5  12
ENDBRANCH   1   8
BRANCH   3  18
ATOM     18  C   UNL     1      -0.021   1.708   0.011  0.00  0.00    +0.163 C 
ATOM     19  S   UNL     1       0.002  -0.004   0.002  0.00  0.00    -0.016 S 
BRANCH  18  20
ATOM     20  N   UNL     1       1.137   2.397   0.004  0.00  0.00    -0.169 NA
ATOM     21  C   UNL     1       2.349   1.720  -0.011  0.00  0.00    +0.162 A 
ATOM     22  N   UNL     1       3.577   2.204  -0.020  0.00  0.00    -0.335 N 
ATOM     23  C   UNL     1       4.632   1.403  -0.034  0.00  0.00    +0.055 A 
ATOM     24  C   UNL     1       4.446   0.049  -0.039  0.00  0.00    +0.074 A 
ATOM     25  S   UNL     1       2.660  -0.041  -0.016  0.00  0.00    -0.060 S 
ATOM     26  H   UNL     1       3.739   3.292  -0.017  0.00  0.00    +0.168 HD
BRANCH  23  27
ATOM     27  C   UNL     1       6.002   1.970  -0.044  0.00  0.00    -0.001 A 
ATOM     28  C   UNL     1       7.109   1.123  -0.052  0.00  0.00    +0.011 A 
ATOM     29  C   UNL     1       8.382   1.656  -0.066  0.00  0.00    +0.020 A 
ATOM     30  C   UNL     1       8.561   3.029  -0.061  0.00  0.00    +0.041 A 
ATOM     31  C   UNL     1       7.464   3.874  -0.047  0.00  0.00    +0.020 A 
ATOM     32  C   UNL     1       6.187   3.352  -0.039  0.00  0.00    +0.011 A 
ATOM     33 CL   UNL     1      10.165   3.693  -0.071  0.00  0.00    -0.084 Cl
ENDBRANCH  23  27
ENDBRANCH  18  20
ENDBRANCH   3  18
TORSDOF 5
