REMARK  Name = ZINC05612758
REMARK  9 active torsions:
REMARK  status: ('A' for Active; 'I' for Inactive)
REMARK    1  A    between atoms: C_1  and  C_2
REMARK    2  A    between atoms: C_4  and  C_25
REMARK    3  A    between atoms: C_5  and  O_24
REMARK    4  A    between atoms: C_6  and  N_8
REMARK    5  A    between atoms: N_8  and  C_9
REMARK    6  A    between atoms: C_9  and  N_11
REMARK    7  A    between atoms: C_12  and  C_14
REMARK    8  A    between atoms: C_14  and  O_15
REMARK    9  A    between atoms: O_15  and  C_16
REMARK                            x       y       z     vdW  Elec       q    Type
REMARK                         _______ _______ _______ _____ _____    ______ ____
ROOT
ATOM      1  C   UNL     1       4.766   1.457   0.066  0.00  0.00    +0.141 C 
ATOM      2  S   UNL     1       4.788  -0.255   0.056  0.00  0.00    -0.018 S 
ENDROOT
BRANCH   1   3
ATOM      3  N   UNL     1       5.921   2.145   0.160  0.00  0.00    -0.265 N 
ATOM      4  C   UNL     1       7.093   1.485   0.247  0.00  0.00    +0.256 C 
ATOM      5  O   UNL     1       7.109   0.273   0.240  0.00  0.00    -0.272 OA
ATOM      6  H   UNL     1       5.909   3.115   0.166  0.00  0.00    +0.157 HD
BRANCH   4   7
ATOM      7  C   UNL     1       8.385   2.255   0.352  0.00  0.00    +0.325 C 
BRANCH   7   8
ATOM      8  O   UNL     1       9.479   1.339   0.431  0.00  0.00    -0.481 OA
BRANCH   8   9
ATOM      9  C   UNL     1      10.725   1.874   0.531  0.00  0.00    +0.140 A 
ATOM     10  C   UNL     1      10.890   3.251   0.553  0.00  0.00    +0.048 A 
ATOM     11  C   UNL     1      12.157   3.793   0.655  0.00  0.00    +0.023 A 
ATOM     12  C   UNL     1      13.261   2.964   0.735  0.00  0.00    +0.043 A 
ATOM     13  C   UNL     1      13.100   1.590   0.713  0.00  0.00    +0.043 A 
ATOM     14  C   UNL     1      11.834   1.043   0.617  0.00  0.00    +0.084 A 
ATOM     15 CL   UNL     1      11.630  -0.681   0.598  0.00  0.00    -0.080 Cl
ATOM     16 CL   UNL     1      14.852   3.648   0.863  0.00  0.00    -0.083 Cl
ENDBRANCH   8   9
ENDBRANCH   7   8
ENDBRANCH   4   7
ENDBRANCH   1   3
BRANCH   1  17
ATOM     17  N   UNL     1       3.594   2.116  -0.021  0.00  0.00    -0.294 N 
ATOM     18  H   UNL     1       3.586   3.083  -0.095  0.00  0.00    +0.154 HD
BRANCH  17  24
ATOM     19  C   UNL     1       0.803  -1.438   1.918  0.00  0.00    +0.044 C 
ATOM     20  C   UNL     1       1.007  -0.322   0.925  0.00  0.00    -0.048 A 
ATOM     21  C   UNL     1       0.001  -0.002   0.032  0.00  0.00    +0.010 A 
ATOM     22  C   UNL     1       0.182   1.020  -0.881  0.00  0.00    -0.007 A 
ATOM     23  C   UNL     1       1.374   1.727  -0.903  0.00  0.00    +0.141 A 
ATOM     24  C   UNL     1       2.387   1.405  -0.003  0.00  0.00    +0.075 A 
ATOM     25  C   UNL     1       2.198   0.378   0.910  0.00  0.00    +0.030 A 
ATOM     26  C   UNL     1      -0.914   1.361  -1.857  0.00  0.00    +0.047 C 
BRANCH  23  27
ATOM     27  O   UNL     1       1.554   2.732  -1.801  0.00  0.00    -0.505 OA
ATOM     28  H   UNL     1       1.274   3.600  -1.481  0.00  0.00    +0.292 HD
ENDBRANCH  23  27
ENDBRANCH  17  24
ENDBRANCH   1  17
TORSDOF 7
