REMARK  Name = ZINC12907343
REMARK  9 active torsions:
REMARK  status: ('A' for Active; 'I' for Inactive)
REMARK    1  A    between atoms: C_1  and  C_2
REMARK    2  A    between atoms: C_3  and  C_29
REMARK    3  A    between atoms: C_7  and  N_16
REMARK    4  A    between atoms: C_9  and  C_11
REMARK    5  A    between atoms: C_22  and  C_23
REMARK    6  A    between atoms: C_22  and  N_59
REMARK    7  A    between atoms: N_25  and  C_26
REMARK    8  A    between atoms: C_26  and  C_27
REMARK    9  A    between atoms: C_26  and  C_28
REMARK                            x       y       z     vdW  Elec       q    Type
REMARK                         _______ _______ _______ _____ _____    ______ ____
ROOT
ATOM      1  C   UNL     1       2.875  -3.999  -3.488  0.00  0.00    +0.045 C 
ATOM      2  C   UNL     1       2.356  -5.237  -4.172  0.00  0.00    -0.028 A 
ATOM      3  C   UNL     1       2.784  -5.563  -5.401  0.00  0.00    -0.008 A 
ATOM      4  S   UNL     1       1.900  -7.068  -5.765  0.00  0.00    -0.073 S 
ATOM      5  C   UNL     1       0.979  -7.218  -4.257  0.00  0.00    +0.114 A 
ATOM      6  C   UNL     1       1.382  -6.087  -3.511  0.00  0.00    +0.051 A 
ATOM      7  C   UNL     1       0.788  -5.957  -2.224  0.00  0.00    +0.134 A 
ATOM      8  N   UNL     1      -0.082  -6.864  -1.817  0.00  0.00    -0.211 NA
ATOM      9  C   UNL     1      -0.422  -7.906  -2.573  0.00  0.00    +0.169 A 
ATOM     10  N   UNL     1       0.104  -8.081  -3.782  0.00  0.00    -0.219 NA
ATOM     11  C   UNL     1       3.776  -4.831  -6.268  0.00  0.00    +0.052 C 
ENDROOT
BRANCH   7  12
ATOM     12  N   UNL     1       1.114  -4.888  -1.409  0.00  0.00    -0.316 N 
ATOM     13  C   UNL     1       1.776  -5.350  -0.168  0.00  0.00    +0.104 C 
ATOM     14  C   UNL     1       1.884  -4.238   0.889  0.00  0.00    +0.000 C 
ATOM     15  C   UNL     1       2.269  -2.913   0.281  0.00  0.00    -0.077 C 
ATOM     16  C   UNL     1       0.414  -2.567  -1.228  0.00  0.00    -0.059 C 
ATOM     17  C   UNL     1      -0.035  -4.042  -1.179  0.00  0.00    +0.088 C 
ATOM     18  N   UNL     1       1.001  -2.164   0.000  0.00  0.00    +0.386 N 
ATOM     19  H   UNL     1       0.335  -2.356   0.757  0.00  0.00    -0.081 HD
BRANCH  18  20
ATOM     20  C   UNL     1       1.278  -0.718  -0.034  0.00  0.00    +0.019 C 
BRANCH  20  21
ATOM     21  C   UNL     1      -0.039   0.015  -0.018  0.00  0.00    +0.197 C 
ATOM     22  O   UNL     1      -1.079  -0.609  -0.010  0.00  0.00    -0.278 OA
ATOM     23  N   UNL     1      -0.061   1.362  -0.012  0.00  0.00    -0.315 N 
ATOM     24  H   UNL     1       0.771   1.861  -0.018  0.00  0.00    +0.149 HD
BRANCH  23  25
ATOM     25  C   UNL     1      -1.341   2.074  -0.002  0.00  0.00    +0.067 C 
ATOM     26  C   UNL     1      -1.149   3.462   0.613  0.00  0.00    +0.027 C 
ATOM     27  C   UNL     1      -1.856   2.218  -1.435  0.00  0.00    +0.027 C 
ENDBRANCH  23  25
ENDBRANCH  20  21
ENDBRANCH  18  20
ENDBRANCH   7  12
BRANCH   9  28
ATOM     28  C   UNL     1      -1.400  -8.884  -2.061  0.00  0.00    +0.056 A 
ATOM     29  C   UNL     1      -1.891 -10.013  -2.666  0.00  0.00    +0.019 A 
ATOM     30  C   UNL     1      -2.804 -10.784  -1.984  0.00  0.00    +0.008 A 
ATOM     31  C   UNL     1      -3.199 -10.400  -0.742  0.00  0.00    +0.046 A 
ATOM     32  S   UNL     1      -2.259  -8.903  -0.496  0.00  0.00    -0.094 S 
ENDBRANCH   9  28
TORSDOF 5
