REMARK  Name = ZINC40972519
REMARK  3 active torsions:
REMARK  status: ('A' for Active; 'I' for Inactive)
REMARK    1  A    between atoms: C_4  and  C_7
REMARK    2  A    between atoms: C_7  and  C_20
REMARK    3  A    between atoms: C_15  and  N_19
REMARK                            x       y       z     vdW  Elec       q    Type
REMARK                         _______ _______ _______ _____ _____    ______ ____
ROOT
ATOM      1  C   UNL     1       3.712  -0.678  -0.036  0.00  0.00    +0.075 C 
ATOM      2  C   UNL     1       4.506  -0.058   1.116  0.00  0.00    +0.040 C 
ATOM      3  C   UNL     1       5.909  -0.673   1.154  0.00  0.00    +0.108 C 
ATOM      4  N   UNL     1       5.782  -2.135   1.228  0.00  0.00    -0.317 N 
ATOM      5  C   UNL     1       4.964  -2.825   0.220  0.00  0.00    +0.108 C 
ATOM      6  C   UNL     1       3.573  -2.185   0.193  0.00  0.00    +0.040 C 
ATOM      7  C   UNL     1       6.423  -2.852   2.231  0.00  0.00    +0.100 A 
ATOM      8  C   UNL     1       7.075  -2.173   3.252  0.00  0.00    +0.064 A 
ATOM      9  C   UNL     1       7.712  -2.905   4.249  0.00  0.00    +0.029 A 
ATOM     10  C   UNL     1       7.668  -4.299   4.180  0.00  0.00    +0.040 A 
ATOM     11  C   UNL     1       7.002  -4.900   3.136  0.00  0.00    +0.086 A 
ATOM     12  N   UNL     1       6.402  -4.177   2.207  0.00  0.00    -0.350 N 
ATOM     13  H   UNL     1       5.937  -4.628   1.485  0.00  0.00    +0.166 HD
ENDROOT
BRANCH   1  14
ATOM     14  C   UNL     1       4.437  -0.433  -1.334  0.00  0.00    +0.226 C 
ATOM     15  O   UNL     1       5.565   0.011  -1.325  0.00  0.00    -0.275 OA
ATOM     16  N   UNL     1       3.830  -0.706  -2.506  0.00  0.00    -0.296 N 
ATOM     17  C   UNL     1       4.481  -0.407  -3.793  0.00  0.00    +0.113 C 
ATOM     18  C   UNL     1       4.727  -1.732  -4.513  0.00  0.00    +0.054 C 
ATOM     19  C   UNL     1       3.491  -2.592  -4.491  0.00  0.00    -0.041 A 
ATOM     20  C   UNL     1       3.395  -3.607  -5.436  0.00  0.00    +0.004 A 
ATOM     21  C   UNL     1       2.294  -4.438  -5.464  0.00  0.00    +0.000 A 
ATOM     22  C   UNL     1       1.276  -4.261  -4.546  0.00  0.00    +0.000 A 
ATOM     23  C   UNL     1       1.367  -3.252  -3.610  0.00  0.00    +0.005 A 
ATOM     24  C   UNL     1       2.472  -2.412  -3.583  0.00  0.00    -0.027 A 
ATOM     25  C   UNL     1       2.498  -1.318  -2.551  0.00  0.00    +0.143 C 
ENDBRANCH   1  14
BRANCH   1  29
ATOM     26  C   UNL     1      -0.167   1.100  -0.213  0.00  0.00    +0.000 A 
ATOM     27  C   UNL     1       0.953   1.856  -0.502  0.00  0.00    +0.000 A 
ATOM     28  C   UNL     1       2.209   1.280  -0.444  0.00  0.00    +0.004 A 
ATOM     29  C   UNL     1       2.344  -0.051  -0.098  0.00  0.00    -0.032 A 
ATOM     30  C   UNL     1       1.223  -0.807   0.192  0.00  0.00    +0.004 A 
ATOM     31  C   UNL     1      -0.033  -0.232   0.133  0.00  0.00    +0.000 A 
ENDBRANCH   1  29
BRANCH   9  32
ATOM     32  N   UNL     1       8.377  -2.263   5.290  0.00  0.00    -0.358 N 
ATOM     33  H   UNL     1       8.400  -1.294   5.327  0.00  0.00    +0.142 HD
ATOM     34  H   UNL     1       8.817  -2.784   5.979  0.00  0.00    +0.142 HD
ENDBRANCH   9  32
TORSDOF 3
