REMARK  Name = ZINC20504661
REMARK  6 active torsions:
REMARK  status: ('A' for Active; 'I' for Inactive)
REMARK    1  A    between atoms: C_1  and  C_2
REMARK    2  A    between atoms: C_2  and  N_3
REMARK    3  A    between atoms: C_7  and  C_9
REMARK    4  A    between atoms: C_9  and  C_11
REMARK    5  A    between atoms: C_9  and  N_12
REMARK    6  A    between atoms: N_12  and  C_13
REMARK                            x       y       z     vdW  Elec       q    Type
REMARK                         _______ _______ _______ _____ _____    ______ ____
ROOT
ATOM      1  C   UNL     1      -3.211   3.583  -1.191  0.00  0.00    +0.154 C 
ATOM      2  C   UNL     1      -2.663   4.479  -2.305  0.00  0.00    +0.038 C 
ENDROOT
BRANCH   1   7
ATOM      3  N   UNL     1      -7.744   3.889  -2.763  0.00  0.00    -0.299 N 
ATOM      4  C   UNL     1      -6.855   4.036  -1.760  0.00  0.00    +0.306 C 
ATOM      5  O   UNL     1      -7.228   4.425  -0.670  0.00  0.00    -0.252 OA
ATOM      6  N   UNL     1      -5.554   3.753  -1.965  0.00  0.00    -0.239 N 
ATOM      7  C   UNL     1      -4.666   3.900  -0.962  0.00  0.00    +0.240 C 
ATOM      8  O   UNL     1      -5.038   4.288   0.125  0.00  0.00    -0.273 OA
ATOM      9  H   UNL     1      -7.406   3.537  -3.749  0.00  0.00    +0.150 HD
ATOM     10  H   UNL     1      -5.216   3.401  -2.951  0.00  0.00    +0.159 HD
BRANCH   3  12
ATOM     11  C   UNL     1      -9.944   3.946  -3.828  0.00  0.00    +0.024 C 
ATOM     12  C   UNL     1      -9.158   4.197  -2.540  0.00  0.00    +0.102 C 
ENDBRANCH   3  12
ENDBRANCH   1   7
BRANCH   1  13
ATOM     13  N   UNL     1      -2.456   3.824   0.046  0.00  0.00    -0.331 N 
ATOM     14  H   UNL     1      -2.841   4.530   0.796  0.00  0.00    +0.147 HD
BRANCH  13  15
ATOM     15  C   UNL     1      -1.284   3.061   0.075  0.00  0.00    +0.056 A 
ATOM     16  C   UNL     1      -0.061   3.654  -0.210  0.00  0.00    +0.041 A 
ATOM     17  C   UNL     1       1.095   2.896  -0.187  0.00  0.00    +0.032 A 
ATOM     18  C   UNL     1       1.035   1.551   0.132  0.00  0.00    +0.020 A 
ATOM     19  C   UNL     1      -0.181   0.959   0.421  0.00  0.00    +0.032 A 
ATOM     20  C   UNL     1      -1.341   1.710   0.394  0.00  0.00    +0.041 A 
ATOM     21 BR   UNL     1      -3.003   0.900   0.789  0.00  0.00    -0.048 Br
ATOM     22 BR   UNL     1       2.619   0.519   0.171  0.00  0.00    -0.050 Br
ATOM     23 BR   UNL     1       0.023   5.494  -0.637  0.00  0.00    -0.048 Br
ENDBRANCH  13  15
ENDBRANCH   1  13
TORSDOF 4
