REMARK  Name = ZINC13036284
REMARK  3 active torsions:
REMARK  status: ('A' for Active; 'I' for Inactive)
REMARK    1  A    between atoms: C_10  and  C_22
REMARK    2  A    between atoms: C_13  and  C_16
REMARK    3  A    between atoms: C_26  and  O_28
REMARK                            x       y       z     vdW  Elec       q    Type
REMARK                         _______ _______ _______ _____ _____    ______ ____
ROOT
ATOM      1  C   UNL     1       1.207  -0.682  -0.013  0.00  0.00    +0.001 A 
ATOM      2  C   UNL     1       0.002  -0.004   0.002  0.00  0.00    +0.004 A 
ATOM      3  C   UNL     1      -0.017   1.374   0.010  0.00  0.00    +0.046 A 
ATOM      4  C   UNL     1       1.175   2.099   0.002  0.00  0.00    +0.129 A 
ATOM      5  C   UNL     1       2.378   1.410  -0.032  0.00  0.00    +0.017 A 
ATOM      6  C   UNL     1       2.392   0.028  -0.031  0.00  0.00    +0.009 A 
ATOM      7  C   UNL     1       3.683   2.160  -0.097  0.00  0.00    +0.136 C 
ATOM      8  C   UNL     1       4.667   1.692   0.984  0.00  0.00    +0.086 C 
ATOM      9  C   UNL     1       5.037   2.971   1.708  0.00  0.00    +0.069 C 
ATOM     10  N   UNL     1       4.305   3.942   1.270  0.00  0.00    -0.184 NA
ATOM     11  N   UNL     1       3.385   3.551   0.314  0.00  0.00    -0.204 N 
ATOM     12  C   UNL     1       2.225   4.264  -0.235  0.00  0.00    +0.329 C 
ATOM     13  O   UNL     1       1.081   3.452   0.057  0.00  0.00    -0.463 OA
ENDROOT
BRANCH  12  14
ATOM     14  C   UNL     1       2.374   4.432  -1.725  0.00  0.00    +0.101 A 
ATOM     15  C   UNL     1       1.251   4.414  -2.530  0.00  0.00    +0.029 A 
ATOM     16  C   UNL     1       1.399   4.570  -3.900  0.00  0.00    +0.003 A 
ATOM     17  C   UNL     1       2.677   4.738  -4.410  0.00  0.00    +0.020 A 
ATOM     18  C   UNL     1       3.753   4.745  -3.543  0.00  0.00    +0.111 A 
ATOM     19  N   UNL     1       3.574   4.599  -2.245  0.00  0.00    -0.254 NA
ENDBRANCH  12  14
BRANCH   9  20
ATOM     20  C   UNL     1       6.073   3.089   2.752  0.00  0.00    +0.001 A 
ATOM     21  C   UNL     1       6.799   1.964   3.150  0.00  0.00    +0.010 A 
ATOM     22  C   UNL     1       7.770   2.080   4.123  0.00  0.00    +0.004 A 
ATOM     23  C   UNL     1       8.020   3.305   4.714  0.00  0.00    +0.045 A 
ATOM     24  C   UNL     1       7.300   4.428   4.329  0.00  0.00    +0.117 A 
ATOM     25  C   UNL     1       6.326   4.325   3.350  0.00  0.00    +0.055 A 
BRANCH  24  26
ATOM     26  O   UNL     1       7.550   5.629   4.914  0.00  0.00    -0.507 OA
ATOM     27  H   UNL     1       7.018   5.801   5.702  0.00  0.00    +0.292 HD
ENDBRANCH  24  26
ENDBRANCH   9  20
TORSDOF 3
