REMARK  Name = ZINC63362349
REMARK  8 active torsions:
REMARK  status: ('A' for Active; 'I' for Inactive)
REMARK    1  A    between atoms: C_1  and  C_2
REMARK    2  A    between atoms: C_2  and  C_3
REMARK    3  A    between atoms: C_3  and  C_4
REMARK    4  A    between atoms: C_4  and  C_5
REMARK    5  A    between atoms: C_8  and  N_11
REMARK    6  A    between atoms: C_12  and  C_14
REMARK    7  A    between atoms: C_17  and  N_20
REMARK    8  A    between atoms: C_23  and  C_39
REMARK                            x       y       z     vdW  Elec       q    Type
REMARK                         _______ _______ _______ _____ _____    ______ ____
ROOT
ATOM      1  C   UNL     1       5.436  -4.344  -7.187  0.00  0.00    +0.037 A 
ATOM      2  C   UNL     1       4.707  -4.590  -8.354  0.00  0.00    +0.015 A 
ATOM      3  C   UNL     1       5.363  -4.935  -9.514  0.00  0.00    +0.025 A 
ATOM      4  C   UNL     1       6.750  -5.039  -9.526  0.00  0.00    +0.045 A 
ATOM      5  C   UNL     1       7.479  -4.795  -8.368  0.00  0.00    +0.025 A 
ATOM      6  C   UNL     1       6.830  -4.444  -7.205  0.00  0.00    +0.015 A 
ENDROOT
BRANCH   4   7
ATOM      7  N   UNL     1       7.412  -5.390 -10.706  0.00  0.00    -0.192 N 
ATOM      8  C   UNL     1       8.737  -5.634 -10.788  0.00  0.00    +0.253 C 
ATOM      9  O   UNL     1       9.552  -5.558  -9.894  0.00  0.00    -0.272 OA
ATOM     10  C   UNL     1       8.992  -6.023 -12.227  0.00  0.00    +0.137 C 
ATOM     11  C   UNL     1       9.994  -5.069 -12.874  0.00  0.00    +0.139 C 
ATOM     12  C   UNL     1       9.237  -4.247 -13.907  0.00  0.00    -0.034 C 
ATOM     13  C   UNL     1       9.442  -2.971 -13.589  0.00  0.00    -0.001 A 
ATOM     14  C   UNL     1       9.025  -1.722 -14.245  0.00  0.00    +0.010 A 
ATOM     15  C   UNL     1       9.404  -0.568 -13.634  0.00  0.00    +0.001 A 
ATOM     16  C   UNL     1      10.146  -0.534 -12.450  0.00  0.00    +0.002 A 
ATOM     17  C   UNL     1      10.576  -1.634 -11.781  0.00  0.00    +0.026 A 
ATOM     18  C   UNL     1      10.243  -2.906 -12.329  0.00  0.00    +0.043 A 
ATOM     19  N   UNL     1      10.543  -4.115 -11.908  0.00  0.00    -0.375 N 
ATOM     20  C   UNL     1       8.386  -4.851 -14.996  0.00  0.00    +0.052 C 
ATOM     21  C   UNL     1       7.431  -5.853 -14.318  0.00  0.00    +0.115 C 
ATOM     22  N   UNL     1       7.681  -5.808 -12.875  0.00  0.00    -0.268 N 
ATOM     23  C   UNL     1       6.810  -5.531 -11.895  0.00  0.00    +0.316 C 
ATOM     24  O   UNL     1       5.612  -5.418 -12.065  0.00  0.00    -0.252 OA
ATOM     25  C   UNL     1       9.438  -7.482 -12.339  0.00  0.00    +0.044 C 
ATOM     26  H   UNL     1      11.034  -4.342 -11.103  0.00  0.00    +0.160 HD
ENDBRANCH   4   7
BRANCH   1  28
ATOM     27  N   UNL     1       3.392  -3.878  -5.927  0.00  0.00    -0.282 N 
ATOM     28  C   UNL     1       4.737  -3.974  -5.942  0.00  0.00    +0.248 C 
ATOM     29  O   UNL     1       5.373  -3.755  -4.929  0.00  0.00    -0.270 OA
ATOM     30  H   UNL     1       2.880  -4.126  -6.712  0.00  0.00    +0.155 HD
BRANCH  27  34
ATOM     31  C   UNL     1       1.440  -2.516  -2.509  0.00  0.00    -0.047 A 
ATOM     32  C   UNL     1       0.838  -3.464  -3.315  0.00  0.00    +0.005 A 
ATOM     33  C   UNL     1       1.483  -3.918  -4.449  0.00  0.00    +0.023 A 
ATOM     34  C   UNL     1       2.737  -3.420  -4.779  0.00  0.00    +0.034 A 
ATOM     35  C   UNL     1       3.338  -2.467  -3.967  0.00  0.00    +0.023 A 
ATOM     36  C   UNL     1       2.686  -2.014  -2.838  0.00  0.00    +0.005 A 
BRANCH  31  37
ATOM     37  C   UNL     1       0.734  -2.023  -1.272  0.00  0.00    +0.035 C 
BRANCH  37  38
ATOM     38  C   UNL     1      -0.130  -0.812  -1.626  0.00  0.00    +0.004 C 
BRANCH  38  40
ATOM     39  C   UNL     1      -1.711   0.900  -0.725  0.00  0.00    +0.004 C 
ATOM     40  C   UNL     1      -0.847  -0.312  -0.370  0.00  0.00    -0.003 C 
ENDBRANCH  38  40
ENDBRANCH  37  38
ENDBRANCH  31  37
ENDBRANCH  27  34
ENDBRANCH   1  28
TORSDOF 6
