REMARK  Name = ZINC12258563
REMARK  6 active torsions:
REMARK  status: ('A' for Active; 'I' for Inactive)
REMARK    1  A    between atoms: C_3  and  N_25
REMARK    2  A    between atoms: C_6  and  N_7
REMARK    3  A    between atoms: C_8  and  C_10
REMARK    4  A    between atoms: C_10  and  C_11
REMARK    5  A    between atoms: C_11  and  N_12
REMARK    6  A    between atoms: C_13  and  C_15
REMARK                            x       y       z     vdW  Elec       q    Type
REMARK                         _______ _______ _______ _____ _____    ______ ____
ROOT
ATOM      1  N   UNL     1      -0.011   0.966   0.007  0.00  0.00    -0.285 N 
ATOM      2  C   UNL     1       1.123   1.694   0.006  0.00  0.00    +0.219 C 
ATOM      3  O   UNL     1       1.068   2.903  -0.076  0.00  0.00    -0.275 OA
ATOM      4  H   UNL     1       0.034  -0.003   0.005  0.00  0.00    +0.155 HD
ENDROOT
BRANCH   1  10
ATOM      5  C   UNL     1      -2.326   1.051   0.695  0.00  0.00    +0.025 A 
ATOM      6  C   UNL     1      -3.551   1.687   0.699  0.00  0.00    +0.026 A 
ATOM      7  C   UNL     1      -3.717   2.879   0.006  0.00  0.00    +0.051 A 
ATOM      8  C   UNL     1      -2.649   3.434  -0.686  0.00  0.00    +0.026 A 
ATOM      9  C   UNL     1      -1.422   2.801  -0.686  0.00  0.00    +0.025 A 
ATOM     10  C   UNL     1      -1.256   1.609   0.007  0.00  0.00    +0.033 A 
BRANCH   7  11
ATOM     11  N   UNL     1      -4.960   3.522   0.007  0.00  0.00    -0.207 N 
ATOM     12  C   UNL     1      -5.217   4.959  -0.194  0.00  0.00    +0.133 C 
ATOM     13  C   UNL     1      -6.603   5.181  -0.834  0.00  0.00    +0.045 C 
ATOM     14  C   UNL     1      -7.569   4.259  -0.029  0.00  0.00    +0.190 C 
ATOM     15  S   UNL     1      -6.462   2.815   0.242  0.00  0.00    +0.046 S 
ATOM     16  O   UNL     1      -6.604   1.867  -0.807  0.00  0.00    -0.155 OA
ATOM     17  O   UNL     1      -6.483   2.414   1.605  0.00  0.00    -0.155 OA
ENDBRANCH   7  11
ENDBRANCH   1  10
BRANCH   2  18
ATOM     18  C   UNL     1       2.460   1.006   0.105  0.00  0.00    +0.115 C 
BRANCH  18  19
ATOM     19  C   UNL     1       3.576   2.053   0.081  0.00  0.00    +0.113 C 
BRANCH  19  20
ATOM     20  N   UNL     1       4.875   1.383   0.178  0.00  0.00    -0.314 N 
ATOM     21  C   UNL     1       6.010   2.111   0.176  0.00  0.00    +0.219 C 
ATOM     22  O   UNL     1       5.955   3.320   0.095  0.00  0.00    -0.275 OA
ATOM     23  H   UNL     1       4.920   0.417   0.243  0.00  0.00    +0.149 HD
BRANCH  21  24
ATOM     24  C   UNL     1       7.347   1.423   0.275  0.00  0.00    +0.048 C 
ATOM     25  C   UNL     1       7.417   0.632   1.583  0.00  0.00    +0.019 C 
ATOM     26  C   UNL     1       8.775  -0.067   1.683  0.00  0.00    -0.009 C 
ATOM     27  C   UNL     1       9.890   0.980   1.660  0.00  0.00    +0.007 C 
ATOM     28  C   UNL     1       9.820   1.772   0.352  0.00  0.00    -0.009 C 
ATOM     29  C   UNL     1       8.462   2.470   0.252  0.00  0.00    +0.019 C 
ATOM     30  C   UNL     1       9.991   0.817  -0.831  0.00  0.00    +0.007 C 
ATOM     31  C   UNL     1       8.876  -0.230  -0.808  0.00  0.00    -0.009 C 
ATOM     32  C   UNL     1       8.946  -1.021   0.500  0.00  0.00    +0.007 C 
ATOM     33  C   UNL     1       7.518   0.469  -0.908  0.00  0.00    +0.019 C 
ENDBRANCH  21  24
ENDBRANCH  19  20
ENDBRANCH  18  19
ENDBRANCH   2  18
TORSDOF 6
