REMARK  Name = ZINC47599429
REMARK  11 active torsions:
REMARK  status: ('A' for Active; 'I' for Inactive)
REMARK    1  A    between atoms: C_1  and  C_2
REMARK    2  A    between atoms: C_2  and  CA_3
REMARK    3  A    between atoms: CA_3  and  C_5
REMARK    4  A    between atoms: CA_3  and  N_7
REMARK    5  A    between atoms: C_5  and  O_6
REMARK    6  A    between atoms: N_10  and  C_11
REMARK    7  A    between atoms: C_11  and  C_12
REMARK    8  A    between atoms: C_12  and  C_14
REMARK    9  A    between atoms: C_12  and  C_22
REMARK   10  A    between atoms: C_17  and  O_20
REMARK   11  A    between atoms: O_20  and  C_21
REMARK                            x       y       z     vdW  Elec       q    Type
REMARK                         _______ _______ _______ _____ _____    ______ ____
ROOT
ATOM      1  C   UNL     1       6.310   1.008  -3.224  0.00  0.00    +0.068 C 
ENDROOT
BRANCH   1   2
ATOM      2  C   UNL     1       7.003  -0.095  -2.468  0.00  0.00    -0.013 A 
ATOM      3  C   UNL     1       7.223  -1.346  -2.903  0.00  0.00    +0.088 A 
ATOM      4  N   UNL     1       7.880  -2.066  -1.943  0.00  0.00    -0.360 N 
ATOM      5  H   UNL     1       8.147  -2.994  -2.028  0.00  0.00    +0.165 HD
ATOM      6  C   UNL     1       8.105  -1.276  -0.838  0.00  0.00    +0.047 A 
ATOM      7  C   UNL     1       7.572  -0.005  -1.121  0.00  0.00    +0.003 A 
ATOM      8  C   UNL     1       7.661   1.015  -0.172  0.00  0.00    +0.010 A 
ATOM      9  C   UNL     1       8.271   0.774   1.028  0.00  0.00    +0.001 A 
ATOM     10  C   UNL     1       8.802  -0.476   1.310  0.00  0.00    +0.002 A 
ATOM     11  C   UNL     1       8.716  -1.500   0.391  0.00  0.00    +0.026 A 
ENDBRANCH   1   2
BRANCH   1  12
ATOM     12  C   UNL     1       7.056   1.287  -4.503  0.00  0.00    -0.038 A 
ATOM     13  C   UNL     1       7.209   0.286  -5.445  0.00  0.00    +0.008 A 
ATOM     14  C   UNL     1       7.893   0.538  -6.619  0.00  0.00    +0.046 A 
ATOM     15  C   UNL     1       8.427   1.797  -6.851  0.00  0.00    +0.120 A 
ATOM     16  C   UNL     1       8.273   2.800  -5.905  0.00  0.00    +0.046 A 
ATOM     17  C   UNL     1       7.583   2.544  -4.736  0.00  0.00    +0.008 A 
BRANCH  15  18
ATOM     18  O   UNL     1       9.101   2.048  -8.005  0.00  0.00    -0.495 OA
ATOM     19  C   UNL     1       9.624   3.367  -8.177  0.00  0.00    +0.277 C 
ENDBRANCH  15  18
ENDBRANCH   1  12
BRANCH   1  20
ATOM     20  C   UNL     1       4.878   0.581  -3.552  0.00  0.00    +0.118 C 
BRANCH  20  24
ATOM     21  N   UNL     1       2.125  -0.091  -1.209  0.00  0.00    -0.294 N 
ATOM     22  C   UNL     1       2.824   0.051  -2.353  0.00  0.00    +0.300 C 
ATOM     23  O   UNL     1       2.287  -0.157  -3.424  0.00  0.00    -0.253 OA
ATOM     24  N   UNL     1       4.118   0.425  -2.309  0.00  0.00    -0.299 N 
ATOM     25  H   UNL     1       2.553   0.075  -0.355  0.00  0.00    +0.151 HD
ATOM     26  H   UNL     1       4.546   0.592  -1.455  0.00  0.00    +0.150 HD
BRANCH  21  27
ATOM     27  CA  UNL     1       0.718  -0.497  -1.257  0.00  0.00    +0.099 C 
BRANCH  27  29
ATOM     28  C   UNL     1      -0.019   1.526   0.010  0.00  0.00    +0.006 C 
ATOM     29  C   UNL     1       0.002  -0.004   0.002  0.00  0.00    +0.021 C 
ENDBRANCH  27  29
BRANCH  27  30
ATOM     30  C   UNL     1       0.630  -2.023  -1.329  0.00  0.00    +0.178 C 
BRANCH  30  31
ATOM     31  O   UNL     1       1.146  -2.587  -0.121  0.00  0.00    -0.393 OA
ATOM     32  H   UNL     1       1.122  -3.554  -0.097  0.00  0.00    +0.209 HD
ENDBRANCH  30  31
ENDBRANCH  27  30
ENDBRANCH  21  27
ENDBRANCH  20  24
ENDBRANCH   1  20
TORSDOF 9
