REMARK  Name = ZINC38676803
REMARK  10 active torsions:
REMARK  status: ('A' for Active; 'I' for Inactive)
REMARK    1  A    between atoms: C_1  and  C_2
REMARK    2  A    between atoms: C_2  and  C_3
REMARK    3  A    between atoms: C_6  and  C_9
REMARK    4  A    between atoms: C_14  and  O_23
REMARK    5  A    between atoms: C_18  and  N_22
REMARK    6  A    between atoms: C_19  and  C_20
REMARK    7  A    between atoms: O_23  and  C_24
REMARK    8  A    between atoms: C_24  and  C_26
REMARK    9  A    between atoms: C_31  and  O_32
REMARK   10  A    between atoms: O_32  and  C_33
REMARK                            x       y       z     vdW  Elec       q    Type
REMARK                         _______ _______ _______ _____ _____    ______ ____
ROOT
ATOM      1  C   UNL     1       2.650  -1.890  -4.727  0.00  0.00    +0.098 C 
ATOM      2  C   UNL     1       3.320  -3.210  -4.448  0.00  0.00    +0.008 A 
ATOM      3  C   UNL     1       2.546  -4.347  -4.297  0.00  0.00    +0.012 A 
ATOM      4  C   UNL     1       3.143  -5.566  -4.041  0.00  0.00    +0.047 A 
ATOM      5  C   UNL     1       4.524  -5.653  -3.935  0.00  0.00    +0.135 A 
ATOM      6  C   UNL     1       5.302  -4.516  -4.085  0.00  0.00    +0.093 A 
ATOM      7  C   UNL     1       4.700  -3.291  -4.342  0.00  0.00    +0.138 A 
ATOM      8  O   UNL     1       5.475  -2.188  -4.487  0.00  0.00    -0.441 OA
ATOM      9  C   UNL     1       4.983  -1.100  -5.104  0.00  0.00    +0.199 C 
ATOM     10  C   UNL     1       3.655  -0.901  -5.248  0.00  0.00    +0.098 C 
ENDROOT
BRANCH   1  14
ATOM     11  C   UNL     1       0.926  -0.390  -1.118  0.00  0.00    -0.048 A 
ATOM     12  C   UNL     1       0.122  -0.651  -2.212  0.00  0.00    +0.004 A 
ATOM     13  C   UNL     1       0.680  -1.136  -3.380  0.00  0.00    +0.005 A 
ATOM     14  C   UNL     1       2.042  -1.360  -3.454  0.00  0.00    -0.035 A 
ATOM     15  C   UNL     1       2.846  -1.099  -2.360  0.00  0.00    +0.005 A 
ATOM     16  C   UNL     1       2.289  -0.610  -1.194  0.00  0.00    +0.004 A 
BRANCH  11  18
ATOM     17  C   UNL     1       0.303   1.668   0.116  0.00  0.00    +0.009 C 
ATOM     18  C   UNL     1       0.318   0.139   0.155  0.00  0.00    +0.032 C 
ENDBRANCH  11  18
ENDBRANCH   1  14
BRANCH   9  19
ATOM     19  N   UNL     1       5.856  -0.164  -5.599  0.00  0.00    -0.328 N 
ATOM     20  H   UNL     1       6.813  -0.294  -5.502  0.00  0.00    +0.145 HD
ATOM     21  H   UNL     1       5.517   0.626  -6.047  0.00  0.00    +0.145 HD
ENDBRANCH   9  19
BRANCH  10  22
ATOM     22  C   UNL     1       3.196   0.280  -5.915  0.00  0.00    +0.101 C 
ATOM     23  N   UNL     1       2.831   1.217  -6.443  0.00  0.00    -0.191 NA
ENDBRANCH  10  22
BRANCH   5  24
ATOM     24  O   UNL     1       5.113  -6.852  -3.683  0.00  0.00    -0.422 OA
BRANCH  24  25
ATOM     25  C   UNL     1       5.081  -7.788  -4.651  0.00  0.00    +0.348 C 
ATOM     26  O   UNL     1       4.631  -7.515  -5.746  0.00  0.00    -0.244 OA
BRANCH  25  27
ATOM     27  C   UNL     1       5.593  -9.144  -4.382  0.00  0.00    +0.101 A 
ATOM     28  C   UNL     1       6.106  -9.465  -3.123  0.00  0.00    +0.018 A 
ATOM     29  C   UNL     1       6.583 -10.734  -2.878  0.00  0.00    +0.001 A 
ATOM     30  C   UNL     1       6.556 -11.696  -3.875  0.00  0.00    +0.004 A 
ATOM     31  C   UNL     1       6.051 -11.393  -5.124  0.00  0.00    +0.046 A 
ATOM     32  C   UNL     1       5.561 -10.122  -5.387  0.00  0.00    +0.134 A 
BRANCH  32  33
ATOM     33  O   UNL     1       5.060  -9.824  -6.612  0.00  0.00    -0.494 OA
ATOM     34  C   UNL     1       5.061 -10.871  -7.585  0.00  0.00    +0.277 C 
ENDBRANCH  32  33
ENDBRANCH  25  27
ENDBRANCH  24  25
ENDBRANCH   5  24
TORSDOF 8
