REMARK  Name = ZINC56788588
REMARK  7 active torsions:
REMARK  status: ('A' for Active; 'I' for Inactive)
REMARK    1  A    between atoms: C_1  and  C_2
REMARK    2  A    between atoms: C_5  and  C_7
REMARK    3  A    between atoms: C_7  and  C_9
REMARK    4  A    between atoms: C_7  and  N_10
REMARK    5  A    between atoms: N_10  and  C_11
REMARK    6  A    between atoms: N_14  and  C_15
REMARK    7  A    between atoms: C_18  and  C_21
REMARK                            x       y       z     vdW  Elec       q    Type
REMARK                         _______ _______ _______ _____ _____    ______ ____
ROOT
ATOM      1  N   UNL     1       2.204  -4.270  -1.202  0.00  0.00    -0.281 N 
ATOM      2  C   UNL     1       3.479  -3.555  -1.110  0.00  0.00    +0.134 C 
ATOM      3  C   UNL     1       1.966  -5.093  -2.242  0.00  0.00    +0.307 C 
ATOM      4  O   UNL     1       0.907  -5.686  -2.319  0.00  0.00    -0.252 OA
ATOM      5  N   UNL     1       2.902  -5.258  -3.199  0.00  0.00    -0.269 N 
ATOM      6  H   UNL     1       3.718  -4.735  -3.173  0.00  0.00    +0.156 HD
ENDROOT
BRANCH   5   7
ATOM      7  C   UNL     1       2.695  -6.183  -4.227  0.00  0.00    +0.035 A 
ATOM      8  C   UNL     1       1.417  -6.382  -4.735  0.00  0.00    +0.024 A 
ATOM      9  C   UNL     1       1.211  -7.294  -5.749  0.00  0.00    +0.012 A 
ATOM     10  C   UNL     1       2.285  -8.016  -6.264  0.00  0.00    +0.003 A 
ATOM     11  C   UNL     1       3.567  -7.815  -5.753  0.00  0.00    +0.012 A 
ATOM     12  C   UNL     1       3.769  -6.898  -4.744  0.00  0.00    +0.024 A 
BRANCH  10  13
ATOM     13  C   UNL     1       2.066  -8.999  -7.355  0.00  0.00    +0.102 A 
ATOM     14  C   UNL     1       3.081  -9.741  -7.897  0.00  0.00    +0.097 A 
ATOM     15  S   UNL     1       2.270 -10.651  -9.052  0.00  0.00    +0.029 S 
ATOM     16  N   UNL     1       0.767 -10.097  -8.824  0.00  0.00    -0.110 NA
ATOM     17  N   UNL     1       0.873  -9.232  -7.877  0.00  0.00    -0.141 NA
ENDBRANCH  10  13
ENDBRANCH   5   7
BRANCH   1  18
ATOM     18  C   UNL     1       1.187  -4.090  -0.163  0.00  0.00    +0.111 C 
ATOM     19  C   UNL     1       1.803  -4.375   1.209  0.00  0.00    +0.034 C 
BRANCH  18  24
ATOM     20  C   UNL     1       0.221   1.488  -0.373  0.00  0.00    +0.051 C 
ATOM     21  C   UNL     1       0.216  -0.018  -0.299  0.00  0.00    -0.013 A 
ATOM     22  C   UNL     1      -0.837  -0.864  -0.191  0.00  0.00    +0.011 A 
ATOM     23  C   UNL     1      -0.602  -2.225  -0.140  0.00  0.00    +0.013 A 
ATOM     24  C   UNL     1       0.676  -2.673  -0.199  0.00  0.00    +0.010 A 
ATOM     25  S   UNL     1       1.596  -1.150  -0.338  0.00  0.00    -0.097 S 
ENDBRANCH  18  24
ENDBRANCH   1  18
TORSDOF 4
