REMARK  Name = ZINC04724546
REMARK  10 active torsions:
REMARK  status: ('A' for Active; 'I' for Inactive)
REMARK    1  A    between atoms: C_1  and  C_2
REMARK    2  A    between atoms: C_2  and  C_22
REMARK    3  A    between atoms: N_3  and  N_4
REMARK    4  A    between atoms: C_5  and  C_7
REMARK    5  A    between atoms: C_10  and  C_12
REMARK    6  A    between atoms: C_15  and  C_18
REMARK    7  A    between atoms: C_18  and  C_19
REMARK    8  A    between atoms: C_18  and  C_20
REMARK    9  A    between atoms: C_18  and  C_21
REMARK   10  A    between atoms: C_23  and  C_24
REMARK                            x       y       z     vdW  Elec       q    Type
REMARK                         _______ _______ _______ _____ _____    ______ ____
ROOT
ATOM      1  N   UNL     1      -0.010   0.966  -0.017  0.00  0.00    -0.207 N 
ATOM      2  C   UNL     1       1.147   1.656  -0.029  0.00  0.00    +0.236 C 
ATOM      3  O   UNL     1       1.131   2.869  -0.013  0.00  0.00    -0.274 OA
ATOM      4  H   UNL     1       0.003  -0.004  -0.030  0.00  0.00    +0.177 HD
ENDROOT
BRANCH   1   7
ATOM      5  C   UNL     1      -3.660   1.728  -0.173  0.00  0.00    +0.067 C 
ATOM      6  C   UNL     1      -2.351   0.988  -0.080  0.00  0.00    +0.056 C 
ATOM      7  N   UNL     1      -1.233   1.650   0.007  0.00  0.00    -0.185 NA
BRANCH   6   8
ATOM      8  C   UNL     1      -2.337  -0.430  -0.088  0.00  0.00    +0.025 C 
ATOM      9  C   UNL     1      -3.481  -1.115  -0.289  0.00  0.00    +0.010 C 
BRANCH   9  10
ATOM     10  C   UNL     1      -3.450  -2.582  -0.407  0.00  0.00    -0.021 A 
ATOM     11  C   UNL     1      -2.235  -3.267  -0.311  0.00  0.00    +0.012 A 
ATOM     12  C   UNL     1      -2.208  -4.641  -0.422  0.00  0.00    +0.050 A 
ATOM     13  C   UNL     1      -3.385  -5.348  -0.628  0.00  0.00    +0.166 A 
ATOM     14  C   UNL     1      -4.600  -4.671  -0.725  0.00  0.00    +0.167 A 
ATOM     15  C   UNL     1      -4.636  -3.295  -0.610  0.00  0.00    +0.057 A 
ATOM     16  O   UNL     1      -5.594  -5.586  -0.925  0.00  0.00    -0.453 OA
ATOM     17  C   UNL     1      -5.031  -6.855  -0.541  0.00  0.00    +0.466 C 
ATOM     18  O   UNL     1      -3.619  -6.686  -0.768  0.00  0.00    -0.453 OA
ENDBRANCH   9  10
ENDBRANCH   6   8
ENDBRANCH   1   7
BRANCH   2  19
ATOM     19  C   UNL     1       2.462   0.921  -0.061  0.00  0.00    +0.085 C 
ATOM     20  C   UNL     1       3.343   0.992   1.188  0.00  0.00    +0.022 C 
ATOM     21  C   UNL     1       3.741   1.761  -0.073  0.00  0.00    +0.032 C 
BRANCH  21  22
ATOM     22  C   UNL     1       4.910   1.238  -0.867  0.00  0.00    -0.044 A 
ATOM     23  C   UNL     1       5.469   0.014  -0.550  0.00  0.00    +0.004 A 
ATOM     24  C   UNL     1       6.538  -0.468  -1.282  0.00  0.00    +0.004 A 
ATOM     25  C   UNL     1       7.055   0.278  -2.324  0.00  0.00    -0.042 A 
ATOM     26  C   UNL     1       6.499   1.505  -2.638  0.00  0.00    +0.004 A 
ATOM     27  C   UNL     1       5.427   1.985  -1.909  0.00  0.00    +0.004 A 
BRANCH  25  28
ATOM     28  C   UNL     1       8.223  -0.245  -3.119  0.00  0.00    -0.013 C 
ATOM     29  C   UNL     1       9.396   0.731  -3.006  0.00  0.00    +0.015 C 
ATOM     30  C   UNL     1       8.642  -1.611  -2.571  0.00  0.00    +0.015 C 
ATOM     31  C   UNL     1       7.818  -0.388  -4.588  0.00  0.00    +0.015 C 
ENDBRANCH  25  28
ENDBRANCH  21  22
ENDBRANCH   2  19
TORSDOF 6
