REMARK  Name = ZINC64058232
REMARK  9 active torsions:
REMARK  status: ('A' for Active; 'I' for Inactive)
REMARK    1  A    between atoms: C_1  and  O_2
REMARK    2  A    between atoms: O_2  and  C_3
REMARK    3  A    between atoms: C_3  and  C_5
REMARK    4  A    between atoms: N_8  and  C_11
REMARK    5  A    between atoms: C_14  and  C_28
REMARK    6  A    between atoms: N_16  and  C_18
REMARK    7  A    between atoms: N_30  and  C_31
REMARK    8  A    between atoms: C_31  and  C_32
REMARK    9  A    between atoms: C_32  and  C_33
REMARK                            x       y       z     vdW  Elec       q    Type
REMARK                         _______ _______ _______ _____ _____    ______ ____
ROOT
ATOM      1  C   UNL     1      -0.855  -4.782  -3.778  0.00  0.00    +0.077 C 
ATOM      2  C   UNL     1      -0.456  -3.993  -5.053  0.00  0.00    +0.016 C 
ATOM      3  C   UNL     1      -1.300  -4.705  -6.139  0.00  0.00    +0.021 C 
ATOM      4  N   UNL     1      -1.287  -6.132  -5.752  0.00  0.00    +0.391 N 
ATOM      5  C   UNL     1      -1.035  -6.223  -4.299  0.00  0.00    -0.053 C 
ATOM      6  H   UNL     1      -0.558  -6.614  -6.255  0.00  0.00    -0.080 HD
ENDROOT
BRANCH   4   7
ATOM      7  C   UNL     1      -2.587  -6.741  -6.063  0.00  0.00    -0.061 C 
ATOM      8  C   UNL     1      -2.617  -8.177  -5.537  0.00  0.00    -0.024 C 
ATOM      9  C   UNL     1      -1.502  -8.987  -6.201  0.00  0.00    +0.005 C 
ATOM     10  C   UNL     1      -1.712  -8.995  -7.717  0.00  0.00    -0.010 C 
ATOM     11  C   UNL     1      -3.066  -9.629  -8.041  0.00  0.00    +0.007 C 
ATOM     12  C   UNL     1      -4.180  -8.819  -7.377  0.00  0.00    -0.010 C 
ATOM     13  C   UNL     1      -3.971  -8.811  -5.861  0.00  0.00    +0.005 C 
ATOM     14  C   UNL     1      -4.151  -7.383  -7.903  0.00  0.00    +0.005 C 
ATOM     15  C   UNL     1      -2.796  -6.749  -7.579  0.00  0.00    -0.024 C 
ATOM     16  C   UNL     1      -1.681  -7.559  -8.243  0.00  0.00    +0.005 C 
ENDBRANCH   4   7
BRANCH   1  19
ATOM     17  C   UNL     1       1.513  -4.417  -0.841  0.00  0.00    +0.256 C 
ATOM     18  C   UNL     1       0.082  -4.238  -1.389  0.00  0.00    +0.168 C 
ATOM     19  N   UNL     1       0.212  -4.721  -2.777  0.00  0.00    -0.234 N 
ATOM     20  N   UNL     1       1.540  -5.112  -2.960  0.00  0.00    -0.083 NA
ATOM     21  N   UNL     1       2.263  -4.974  -1.975  0.00  0.00    -0.155 NA
BRANCH  17  22
ATOM     22  C   UNL     1       2.091  -3.087  -0.428  0.00  0.00    +0.335 C 
ATOM     23  O   UNL     1       2.829  -2.490  -1.177  0.00  0.00    -0.248 OA
BRANCH  22  25
ATOM     24  C   UNL     1       2.370  -1.304   1.097  0.00  0.00    +0.280 C 
ATOM     25  O   UNL     1       1.787  -2.567   0.771  0.00  0.00    -0.466 OA
ENDBRANCH  22  25
ENDBRANCH  17  22
ENDBRANCH   1  19
BRANCH   3  26
ATOM     26  C   UNL     1      -0.671  -4.522  -7.496  0.00  0.00    +0.200 C 
ATOM     27  O   UNL     1       0.205  -5.276  -7.865  0.00  0.00    -0.278 OA
ATOM     28  N   UNL     1      -1.082  -3.522  -8.300  0.00  0.00    -0.316 N 
ATOM     29  H   UNL     1      -1.783  -2.919  -8.005  0.00  0.00    +0.149 HD
BRANCH  28  30
ATOM     30  C   UNL     1      -0.471  -3.344  -9.620  0.00  0.00    +0.108 C 
BRANCH  30  31
ATOM     31  C   UNL     1      -1.113  -2.147 -10.322  0.00  0.00    +0.052 C 
BRANCH  31  32
ATOM     32  C   UNL     1      -0.484  -1.964 -11.680  0.00  0.00    -0.040 C 
ATOM     33  C   UNL     1      -0.945  -2.437 -12.860  0.00  0.00    -0.001 A 
ATOM     34  C   UNL     1      -2.124  -3.235 -13.219  0.00  0.00    +0.010 A 
ATOM     35  C   UNL     1      -2.323  -3.563 -14.516  0.00  0.00    +0.001 A 
ATOM     36  C   UNL     1      -1.434  -3.162 -15.523  0.00  0.00    +0.002 A 
ATOM     37  C   UNL     1      -0.330  -2.428 -15.271  0.00  0.00    +0.026 A 
ATOM     38  C   UNL     1      -0.022  -2.026 -13.942  0.00  0.00    +0.043 A 
ATOM     39  N   UNL     1       0.971  -1.325 -13.449  0.00  0.00    -0.380 N 
ATOM     40  C   UNL     1       0.786  -1.208 -11.999  0.00  0.00    +0.144 C 
ATOM     41  H   UNL     1       1.703  -0.945 -13.960  0.00  0.00    +0.160 HD
ENDBRANCH  31  32
ENDBRANCH  30  31
ENDBRANCH  28  30
ENDBRANCH   3  26
TORSDOF 8
