REMARK  Name = ZINC50358381
REMARK  12 active torsions:
REMARK  status: ('A' for Active; 'I' for Inactive)
REMARK    1  A    between atoms: C_1  and  C_2
REMARK    2  A    between atoms: C_2  and  N_3
REMARK    3  A    between atoms: N_3  and  C_4
REMARK    4  A    between atoms: N_3  and  C_6
REMARK    5  A    between atoms: C_4  and  C_5
REMARK    6  A    between atoms: C_6  and  C_7
REMARK    7  A    between atoms: C_7  and  C_8
REMARK    8  A    between atoms: C_8  and  C_9
REMARK    9  A    between atoms: C_9  and  C_11
REMARK   10  A    between atoms: C_9  and  N_12
REMARK   11  A    between atoms: N_12  and  C_13
REMARK   12  A    between atoms: C_13  and  C_14
REMARK                            x       y       z     vdW  Elec       q    Type
REMARK                         _______ _______ _______ _____ _____    ______ ____
ROOT
ATOM      1  C   UNL     1       2.161  -4.518  -3.908  0.00  0.00    -0.075 C 
ATOM      2  C   UNL     1       2.146  -6.047  -3.959  0.00  0.00    -0.014 C 
ENDROOT
BRANCH   1   3
ATOM      3  N   UNL     1       1.584  -3.980  -5.147  0.00  0.00    +0.385 N 
ATOM      4  H   UNL     1       0.663  -4.369  -5.285  0.00  0.00    -0.085 HD
ATOM      5  H   UNL     1       1.518  -2.975  -5.079  0.00  0.00    -0.085 HD
BRANCH   3   6
ATOM      6  C   UNL     1       2.443  -4.339  -6.283  0.00  0.00    -0.006 C 
BRANCH   6   7
ATOM      7  C   UNL     1       1.851  -3.787  -7.554  0.00  0.00    +0.091 A 
ATOM      8  C   UNL     1       2.112  -2.579  -8.084  0.00  0.00    +0.059 A 
ATOM      9  C   UNL     1       1.348  -2.476  -9.269  0.00  0.00    +0.070 A 
ATOM     10  C   UNL     1       0.664  -3.630  -9.393  0.00  0.00    +0.184 A 
ATOM     11  O   UNL     1       0.977  -4.422  -8.354  0.00  0.00    -0.454 OA
ATOM     12 BR   UNL     1      -0.529  -4.064 -10.794  0.00  0.00    -0.007 Br
ATOM     13 BR   UNL     1       1.295  -1.002 -10.453  0.00  0.00    -0.046 Br
ENDBRANCH   6   7
ENDBRANCH   3   6
ENDBRANCH   1   3
BRANCH   1  14
ATOM     14  C   UNL     1       1.336  -4.040  -2.711  0.00  0.00    -0.018 C 
BRANCH  14  15
ATOM     15  C   UNL     1       1.453  -2.519  -2.586  0.00  0.00    -0.020 C 
BRANCH  15  16
ATOM     16  C   UNL     1       0.627  -2.041  -1.389  0.00  0.00    -0.079 C 
BRANCH  16  17
ATOM     17  N   UNL     1       0.827  -0.598  -1.203  0.00  0.00    +0.379 N 
ATOM     18  H   UNL     1       1.813  -0.402  -1.119  0.00  0.00    -0.082 HD
BRANCH  17  20
ATOM     19  C   UNL     1       0.598   1.616  -2.224  0.00  0.00    -0.017 C 
ATOM     20  C   UNL     1       0.280   0.126  -2.359  0.00  0.00    -0.082 C 
ENDBRANCH  17  20
BRANCH  17  21
ATOM     21  C   UNL     1       0.136  -0.162   0.018  0.00  0.00    -0.082 C 
ATOM     22  C   UNL     1       0.810  -0.793   1.238  0.00  0.00    -0.017 C 
ENDBRANCH  17  21
ENDBRANCH  16  17
ENDBRANCH  15  16
ENDBRANCH  14  15
ENDBRANCH   1  14
TORSDOF 9
