REMARK  Name = ZINC49117649
REMARK  7 active torsions:
REMARK  status: ('A' for Active; 'I' for Inactive)
REMARK    1  A    between atoms: C_1  and  C_2
REMARK    2  A    between atoms: C_2  and  C_3
REMARK    3  A    between atoms: C_9  and  N_11
REMARK    4  A    between atoms: N_11  and  S_12
REMARK    5  A    between atoms: S_12  and  C_15
REMARK    6  A    between atoms: C_17  and  N_23
REMARK    7  A    between atoms: C_18  and  C_22
REMARK                            x       y       z     vdW  Elec       q    Type
REMARK                         _______ _______ _______ _____ _____    ______ ____
ROOT
ATOM      1  S   UNL     1       0.158  -3.801  -1.463  0.00  0.00    +0.059 S 
ATOM      2  O   UNL     1       0.619  -3.900  -2.804  0.00  0.00    -0.153 OA
ATOM      3  O   UNL     1       1.044  -3.760  -0.354  0.00  0.00    -0.153 OA
ENDROOT
BRANCH   1   4
ATOM      4  C   UNL     1      -0.918  -5.171  -1.199  0.00  0.00    +0.108 A 
ATOM      5  C   UNL     1      -1.139  -5.637   0.083  0.00  0.00    +0.051 A 
ATOM      6  C   UNL     1      -1.986  -6.717   0.291  0.00  0.00    +0.031 A 
ATOM      7  C   UNL     1      -2.610  -7.327  -0.790  0.00  0.00    -0.011 A 
ATOM      8  C   UNL     1      -2.384  -6.856  -2.070  0.00  0.00    +0.047 A 
ATOM      9  C   UNL     1      -1.543  -5.775  -2.273  0.00  0.00    +0.049 A 
ATOM     10 CL   UNL     1      -3.162  -7.616  -3.423  0.00  0.00    -0.083 Cl
ATOM     11  C   UNL     1      -3.530  -8.499  -0.569  0.00  0.00    +0.047 C 
BRANCH   6  12
ATOM     12  N   UNL     1      -2.211  -7.191   1.586  0.00  0.00    -0.358 N 
ATOM     13  H   UNL     1      -1.776  -6.764   2.341  0.00  0.00    +0.142 HD
ATOM     14  H   UNL     1      -2.804  -7.945   1.731  0.00  0.00    +0.142 HD
ENDBRANCH   6  12
ENDBRANCH   1   4
BRANCH   1  15
ATOM     15  N   UNL     1      -0.767  -2.429  -1.381  0.00  0.00    -0.187 NA
ATOM     16  H   UNL     1      -0.880  -1.873  -2.167  0.00  0.00    +0.148 HD
BRANCH  15  22
ATOM     17  C   UNL     1      -1.433  -0.534   0.013  0.00  0.00    +0.007 C 
ATOM     18  C   UNL     1      -2.110  -0.145   1.329  0.00  0.00    +0.005 C 
ATOM     19  C   UNL     1      -3.546  -0.675   1.340  0.00  0.00    +0.000 C 
ATOM     20  C   UNL     1      -3.528  -2.199   1.206  0.00  0.00    +0.002 C 
ATOM     21  C   UNL     1      -2.851  -2.587  -0.110  0.00  0.00    +0.020 C 
ATOM     22  C   UNL     1      -1.416  -2.058  -0.121  0.00  0.00    +0.080 C 
BRANCH  17  24
ATOM     23  C   UNL     1      -0.019   1.526   0.010  0.00  0.00    +0.004 C 
ATOM     24  C   UNL     1       0.002  -0.004   0.002  0.00  0.00    +0.002 C 
ENDBRANCH  17  24
ENDBRANCH  15  22
ENDBRANCH   1  15
TORSDOF 5
