REMARK  Name = ZINC11174118
REMARK  3 active torsions:
REMARK  status: ('A' for Active; 'I' for Inactive)
REMARK    1  A    between atoms: C_4  and  C_7
REMARK    2  A    between atoms: C_8  and  C_9
REMARK    3  A    between atoms: C_25  and  C_28
REMARK                            x       y       z     vdW  Elec       q    Type
REMARK                         _______ _______ _______ _____ _____    ______ ____
ROOT
ATOM      1  C   UNL     1      -4.506   2.625   3.449  0.00  0.00    +0.156 A 
ATOM      2  N   UNL     1      -3.844   2.250   2.355  0.00  0.00    -0.213 NA
ATOM      3  C   UNL     1      -2.781   1.469   2.413  0.00  0.00    +0.134 A 
ATOM      4  C   UNL     1      -2.325   1.005   3.680  0.00  0.00    +0.051 A 
ATOM      5  C   UNL     1      -1.178   0.148   3.980  0.00  0.00    -0.025 A 
ATOM      6  C   UNL     1      -0.954  -0.143   5.278  0.00  0.00    -0.004 A 
ATOM      7  S   UNL     1      -2.233   0.700   6.170  0.00  0.00    -0.073 S 
ATOM      8  C   UNL     1      -3.070   1.445   4.795  0.00  0.00    +0.114 A 
ATOM      9  N   UNL     1      -4.122   2.225   4.658  0.00  0.00    -0.221 NA
ATOM     10  C   UNL     1       0.143  -0.997   5.840  0.00  0.00    +0.043 C 
ATOM     11  C   UNL     1       0.767  -1.802   4.692  0.00  0.00    +0.005 C 
ATOM     12  C   UNL     1       1.050  -0.853   3.523  0.00  0.00    +0.005 C 
ATOM     13  C   UNL     1      -0.268  -0.406   2.888  0.00  0.00    +0.037 C 
ATOM     14  N   UNL     1      -2.120   1.101   1.254  0.00  0.00    -0.317 N 
ATOM     15  C   UNL     1      -1.629   2.283   0.530  0.00  0.00    +0.087 C 
ATOM     16  C   UNL     1      -0.838   1.831  -0.700  0.00  0.00    -0.062 C 
ATOM     17  C   UNL     1      -2.191  -0.171  -0.836  0.00  0.00    +0.033 C 
ATOM     18  C   UNL     1      -2.983   0.280   0.394  0.00  0.00    +0.100 C 
ATOM     19  N   UNL     1      -1.703   1.012  -1.569  0.00  0.00    +0.389 N 
ATOM     20  H   UNL     1      -1.166   0.705  -2.389  0.00  0.00    -0.085 HD
ATOM     21  H   UNL     1      -2.505   1.575  -1.877  0.00  0.00    -0.085 HD
ENDROOT
BRANCH  17  22
ATOM     22  C   UNL     1      -3.085  -0.981  -1.740  0.00  0.00    +0.198 C 
ATOM     23  O   UNL     1      -3.587  -0.465  -2.716  0.00  0.00    -0.278 OA
ATOM     24  N   UNL     1      -3.326  -2.277  -1.464  0.00  0.00    -0.331 N 
ATOM     25  H   UNL     1      -2.925  -2.690  -0.683  0.00  0.00    +0.145 HD
ATOM     26  H   UNL     1      -3.901  -2.798  -2.046  0.00  0.00    +0.145 HD
ENDBRANCH  17  22
BRANCH   1  28
ATOM     27  C   UNL     1      -6.362   3.882   4.412  0.00  0.00    +0.011 C 
ATOM     28  C   UNL     1      -5.685   3.497   3.317  0.00  0.00    +0.049 C 
BRANCH  27  32
ATOM     29  C   UNL     1      -9.758   6.396   4.032  0.00  0.00    +0.000 A 
ATOM     30  C   UNL     1      -9.350   5.975   5.285  0.00  0.00    +0.001 A 
ATOM     31  C   UNL     1      -8.248   5.157   5.417  0.00  0.00    +0.008 A 
ATOM     32  C   UNL     1      -7.541   4.755   4.280  0.00  0.00    -0.025 A 
ATOM     33  C   UNL     1      -7.956   5.189   3.018  0.00  0.00    +0.008 A 
ATOM     34  C   UNL     1      -9.064   6.002   2.902  0.00  0.00    +0.001 A 
ENDBRANCH  27  32
ENDBRANCH   1  28
TORSDOF 3
