REMARK  Name = ZINC19925142
REMARK  2 active torsions:
REMARK  status: ('A' for Active; 'I' for Inactive)
REMARK    1  A    between atoms: C_4  and  C_7
REMARK    2  A    between atoms: N_16  and  C_18
REMARK                            x       y       z     vdW  Elec       q    Type
REMARK                         _______ _______ _______ _____ _____    ______ ____
ROOT
ATOM      1  C   UNL     1      -0.837  -0.703  -0.788  0.00  0.00    +0.248 C 
ATOM      2  O   UNL     1      -0.830  -1.917  -0.746  0.00  0.00    -0.270 OA
ATOM      3  N   UNL     1       0.095   0.001  -0.115  0.00  0.00    -0.277 N 
ATOM      4  C   UNL     1       0.189   1.463  -0.260  0.00  0.00    +0.147 C 
ATOM      5  C   UNL     1       1.676   1.797  -0.386  0.00  0.00    +0.002 A 
ATOM      6  C   UNL     1       2.135   3.070  -0.771  0.00  0.00    -0.031 A 
ATOM      7  C   UNL     1       3.477   3.256  -0.844  0.00  0.00    -0.005 A 
ATOM      8  S   UNL     1       4.151   1.680  -0.387  0.00  0.00    -0.078 S 
ATOM      9  C   UNL     1       2.611   0.838  -0.118  0.00  0.00    +0.075 A 
ATOM     10  N   UNL     1       2.410  -0.473   0.269  0.00  0.00    -0.305 N 
ATOM     11  C   UNL     1       1.044  -0.672   0.785  0.00  0.00    +0.217 C 
ATOM     12  C   UNL     1       4.206   4.504  -1.225  0.00  0.00    +0.043 C 
ATOM     13  C   UNL     1       3.205   5.465  -1.883  0.00  0.00    +0.005 C 
ATOM     14  C   UNL     1       1.947   5.535  -1.014  0.00  0.00    +0.005 C 
ATOM     15  C   UNL     1       1.180   4.215  -1.098  0.00  0.00    +0.036 C 
ENDROOT
BRANCH   1  19
ATOM     16  C   UNL     1      -3.799   1.325  -3.059  0.00  0.00    +0.000 A 
ATOM     17  C   UNL     1      -3.336   0.090  -3.477  0.00  0.00    +0.001 A 
ATOM     18  C   UNL     1      -2.374  -0.574  -2.745  0.00  0.00    +0.013 A 
ATOM     19  C   UNL     1      -1.868   0.003  -1.579  0.00  0.00    +0.037 A 
ATOM     20  C   UNL     1      -2.343   1.247  -1.160  0.00  0.00    +0.013 A 
ATOM     21  C   UNL     1      -3.301   1.903  -1.904  0.00  0.00    +0.001 A 
ENDBRANCH   1  19
BRANCH  10  22
ATOM     22  C   UNL     1       3.412  -0.890   1.258  0.00  0.00    +0.075 C 
ATOM     23  C   UNL     1       3.206  -2.366   1.602  0.00  0.00    +0.022 C 
ATOM     24  C   UNL     1       4.250  -2.801   2.633  0.00  0.00    +0.002 C 
ATOM     25  C   UNL     1       4.099  -1.956   3.899  0.00  0.00    +0.000 C 
ATOM     26  C   UNL     1       4.306  -0.479   3.555  0.00  0.00    +0.002 C 
ATOM     27  C   UNL     1       3.261  -0.045   2.525  0.00  0.00    +0.022 C 
ENDBRANCH  10  22
TORSDOF 2
