REMARK  Name = ZINC38815256
REMARK  7 active torsions:
REMARK  status: ('A' for Active; 'I' for Inactive)
REMARK    1  A    between atoms: C_1  and  O_2
REMARK    2  A    between atoms: O_2  and  C_3
REMARK    3  A    between atoms: C_7  and  C_10
REMARK    4  A    between atoms: C_8  and  O_9
REMARK    5  A    between atoms: N_11  and  N_12
REMARK    6  A    between atoms: C_13  and  C_15
REMARK    7  A    between atoms: C_18  and  C_21
REMARK                            x       y       z     vdW  Elec       q    Type
REMARK                         _______ _______ _______ _____ _____    ______ ____
ROOT
ATOM      1  C   UNL     1      -0.482  -8.487  -0.007  0.00  0.00    +0.240 C 
ATOM      2  C   UNL     1      -0.690  -9.023   1.398  0.00  0.00    +0.041 C 
ATOM      3  C   UNL     1       0.417  -9.756   1.632  0.00  0.00    +0.092 C 
ATOM      4  N   UNL     1       1.244  -9.721   0.553  0.00  0.00    -0.153 NA
ATOM      5  N   UNL     1       0.824  -9.046  -0.394  0.00  0.00    -0.170 NA
ENDROOT
BRANCH   3   6
ATOM      6  C   UNL     1       0.694 -10.494   2.886  0.00  0.00    +0.010 A 
ATOM      7  C   UNL     1      -0.148 -10.372   3.982  0.00  0.00    +0.011 A 
ATOM      8  C   UNL     1       0.087 -11.054   5.173  0.00  0.00    +0.005 A 
ATOM      9  C   UNL     1       1.169 -11.875   5.300  0.00  0.00    -0.039 A 
ATOM     10  C   UNL     1       2.025 -12.011   4.212  0.00  0.00    -0.011 A 
ATOM     11  C   UNL     1       1.820 -11.344   2.991  0.00  0.00    -0.008 A 
ATOM     12  C   UNL     1       2.744 -11.561   1.960  0.00  0.00    +0.009 A 
ATOM     13  C   UNL     1       3.793 -12.407   2.182  0.00  0.00    +0.001 A 
ATOM     14  C   UNL     1       3.976 -13.064   3.401  0.00  0.00    +0.004 A 
ATOM     15  C   UNL     1       3.101 -12.867   4.426  0.00  0.00    -0.039 A 
ATOM     16  C   UNL     1       2.986 -13.395   5.835  0.00  0.00    +0.040 C 
ATOM     17  C   UNL     1       1.711 -12.741   6.412  0.00  0.00    +0.040 C 
ENDBRANCH   3   6
BRANCH   1  19
ATOM     18  N   UNL     1      -1.581  -6.271   0.001  0.00  0.00    -0.205 N 
ATOM     19  C   UNL     1      -0.435  -6.981  -0.001  0.00  0.00    +0.263 C 
ATOM     20  O   UNL     1       0.634  -6.407   0.004  0.00  0.00    -0.271 OA
ATOM     21  H   UNL     1      -2.435  -6.729  -0.002  0.00  0.00    +0.177 HD
BRANCH  18  23
ATOM     22  C   UNL     1      -2.640  -4.187   0.008  0.00  0.00    +0.142 C 
ATOM     23  N   UNL     1      -1.537  -4.870   0.007  0.00  0.00    -0.188 NA
BRANCH  22  28
ATOM     24  C   UNL     1      -1.331  -0.659   0.026  0.00  0.00    +0.162 A 
ATOM     25  C   UNL     1      -2.515   0.061   0.027  0.00  0.00    +0.049 A 
ATOM     26  C   UNL     1      -3.733  -0.596   0.022  0.00  0.00    +0.004 A 
ATOM     27  C   UNL     1      -3.780  -1.974   0.016  0.00  0.00    +0.013 A 
ATOM     28  C   UNL     1      -2.595  -2.714   0.015  0.00  0.00    +0.040 A 
ATOM     29  C   UNL     1      -1.363  -2.048   0.014  0.00  0.00    +0.167 A 
BRANCH  24  31
ATOM     30  C   UNL     1      -0.180   1.422   0.044  0.00  0.00    +0.277 C 
ATOM     31  O   UNL     1      -0.138  -0.006   0.032  0.00  0.00    -0.491 OA
ENDBRANCH  24  31
BRANCH  29  32
ATOM     32  O   UNL     1      -0.203  -2.757   0.007  0.00  0.00    -0.503 OA
ATOM     33  H   UNL     1       0.132  -2.970   0.889  0.00  0.00    +0.292 HD
ENDBRANCH  29  32
ENDBRANCH  22  28
ENDBRANCH  18  23
ENDBRANCH   1  19
TORSDOF 6
