REMARK  Name = ZINC16651145
REMARK  12 active torsions:
REMARK  status: ('A' for Active; 'I' for Inactive)
REMARK    1  A    between atoms: C_1  and  C_2
REMARK    2  A    between atoms: C_6  and  N_9
REMARK    3  A    between atoms: C_7  and  C_8
REMARK    4  A    between atoms: N_12  and  C_13
REMARK    5  A    between atoms: N_12  and  C_20
REMARK    6  A    between atoms: C_13  and  C_14
REMARK    7  A    between atoms: C_20  and  C_21
REMARK    8  A    between atoms: N_23  and  C_24
REMARK    9  A    between atoms: N_23  and  C_34
REMARK   10  A    between atoms: C_24  and  C_25
REMARK   11  A    between atoms: C_34  and  C_35
REMARK   12  A    between atoms: C_38  and  C_40
REMARK                            x       y       z     vdW  Elec       q    Type
REMARK                         _______ _______ _______ _____ _____    ______ ____
ROOT
ATOM      1  C   UNL     1      -2.177  -1.123   1.298  0.00  0.00    +0.205 C 
ENDROOT
BRANCH   1   5
ATOM      2  N   UNL     1      -1.009  -3.529   3.821  0.00  0.00    -0.269 N 
ATOM      3  C   UNL     1      -1.058  -2.463   2.998  0.00  0.00    +0.307 C 
ATOM      4  O   UNL     1      -0.141  -1.665   2.982  0.00  0.00    -0.252 OA
ATOM      5  N   UNL     1      -2.124  -2.282   2.193  0.00  0.00    -0.274 N 
ATOM      6  H   UNL     1      -1.775  -4.121   3.894  0.00  0.00    +0.156 HD
BRANCH   2  12
ATOM      7  C   UNL     1       1.116  -5.545   7.770  0.00  0.00    +0.044 C 
ATOM      8  C   UNL     1       1.204  -4.757   6.488  0.00  0.00    -0.046 A 
ATOM      9  C   UNL     1       2.428  -4.283   6.051  0.00  0.00    +0.004 A 
ATOM     10  C   UNL     1       2.513  -3.560   4.876  0.00  0.00    +0.002 A 
ATOM     11  C   UNL     1       1.375  -3.308   4.134  0.00  0.00    +0.023 A 
ATOM     12  C   UNL     1       0.145  -3.783   4.570  0.00  0.00    +0.038 A 
ATOM     13  C   UNL     1       0.062  -4.504   5.754  0.00  0.00    -0.026 A 
ATOM     14  C   UNL     1      -1.272  -5.015   6.234  0.00  0.00    +0.046 C 
ENDBRANCH   2  12
BRANCH   5  15
ATOM     15  C   UNL     1      -3.229  -3.243   2.212  0.00  0.00    +0.141 C 
BRANCH  15  16
ATOM     16  C   UNL     1      -2.963  -4.346   1.185  0.00  0.00    +0.136 C 
ATOM     17  C   UNL     1      -4.173  -5.303   1.099  0.00  0.00    +0.035 C 
ATOM     18  C   UNL     1      -3.536  -6.696   0.898  0.00  0.00    +0.031 C 
ATOM     19  C   UNL     1      -2.017  -6.416   0.886  0.00  0.00    +0.160 C 
ATOM     20  O   UNL     1      -1.864  -5.179   1.615  0.00  0.00    -0.375 OA
ENDBRANCH  15  16
ENDBRANCH   5  15
ENDBRANCH   1   5
BRANCH   1  21
ATOM     21  C   UNL     1      -2.835   0.031   2.009  0.00  0.00    +0.234 C 
ATOM     22  O   UNL     1      -3.222  -0.101   3.151  0.00  0.00    -0.274 OA
ATOM     23  N   UNL     1      -2.994   1.210   1.376  0.00  0.00    -0.289 N 
BRANCH  23  24
ATOM     24  C   UNL     1      -3.635   2.332   2.068  0.00  0.00    +0.143 C 
BRANCH  24  25
ATOM     25  C   UNL     1      -5.121   2.289   1.826  0.00  0.00    -0.026 A 
ATOM     26  C   UNL     1      -5.663   2.955   0.742  0.00  0.00    +0.009 A 
ATOM     27  C   UNL     1      -7.026   2.914   0.513  0.00  0.00    +0.050 A 
ATOM     28  C   UNL     1      -7.854   2.214   1.376  0.00  0.00    +0.166 A 
ATOM     29  C   UNL     1      -7.308   1.547   2.470  0.00  0.00    +0.167 A 
ATOM     30  C   UNL     1      -5.941   1.588   2.691  0.00  0.00    +0.054 A 
ATOM     31  O   UNL     1      -8.318   0.940   3.159  0.00  0.00    -0.453 OA
ATOM     32  C   UNL     1      -9.434   0.900   2.250  0.00  0.00    +0.466 C 
ATOM     33  O   UNL     1      -9.205   2.024   1.379  0.00  0.00    -0.453 OA
ENDBRANCH  24  25
ENDBRANCH  23  24
BRANCH  23  34
ATOM     34  C   UNL     1      -2.527   1.371  -0.003  0.00  0.00    +0.182 C 
BRANCH  34  35
ATOM     35  C   UNL     1      -1.099   1.853   0.004  0.00  0.00    +0.122 A 
ATOM     36  C   UNL     1      -0.004   1.072   0.005  0.00  0.00    +0.046 A 
ATOM     37  C   UNL     1       1.115   1.935   0.006  0.00  0.00    +0.045 A 
ATOM     38  C   UNL     1       0.637   3.193   0.010  0.00  0.00    +0.102 A 
ATOM     39  O   UNL     1      -0.704   3.137   0.011  0.00  0.00    -0.463 OA
ATOM     40  C   UNL     1       1.467   4.451   0.012  0.00  0.00    +0.086 C 
ENDBRANCH  34  35
ENDBRANCH  23  34
ENDBRANCH   1  21
TORSDOF 9
