REMARK  Name = ZINC24889318
REMARK  5 active torsions:
REMARK  status: ('A' for Active; 'I' for Inactive)
REMARK    1  A    between atoms: C_4  and  C_7
REMARK    2  A    between atoms: C_7  and  C_9
REMARK    3  A    between atoms: C_7  and  S_12
REMARK    4  A    between atoms: S_12  and  C_13
REMARK    5  A    between atoms: N_26  and  C_27
REMARK                            x       y       z     vdW  Elec       q    Type
REMARK                         _______ _______ _______ _____ _____    ______ ____
ROOT
ATOM      1  C   UNL     1       3.360   3.475   0.329  0.00  0.00    +0.178 A 
ATOM      2  N   UNL     1       4.479   3.967  -0.163  0.00  0.00    -0.215 NA
ATOM      3  C   UNL     1       5.580   3.228  -0.221  0.00  0.00    +0.117 A 
ATOM      4  C   UNL     1       5.612   1.898   0.233  0.00  0.00    +0.076 A 
ATOM      5  C   UNL     1       6.898   1.210   0.104  0.00  0.00    -0.023 A 
ATOM      6  C   UNL     1       7.917   1.911  -0.434  0.00  0.00    -0.004 A 
ATOM      7  S   UNL     1       7.237   3.507  -0.794  0.00  0.00    -0.073 S 
ATOM      8  C   UNL     1       9.318   1.438  -0.671  0.00  0.00    +0.043 C 
ATOM      9  C   UNL     1       9.536   0.144   0.127  0.00  0.00    +0.005 C 
ATOM     10  C   UNL     1       8.351  -0.793  -0.124  0.00  0.00    +0.005 C 
ATOM     11  C   UNL     1       7.096  -0.236   0.550  0.00  0.00    +0.037 C 
ATOM     12  C   UNL     1       4.386   1.391   0.767  0.00  0.00    +0.268 A 
ATOM     13  O   UNL     1       4.321   0.250   1.190  0.00  0.00    -0.267 OA
ATOM     14  N   UNL     1       3.304   2.191   0.793  0.00  0.00    -0.255 N 
ENDROOT
BRANCH  14  15
ATOM     15  C   UNL     1       2.098   1.699   1.309  0.00  0.00    +0.052 A 
ATOM     16  C   UNL     1       1.923   1.587   2.682  0.00  0.00    +0.026 A 
ATOM     17  C   UNL     1       0.733   1.102   3.188  0.00  0.00    +0.002 A 
ATOM     18  C   UNL     1      -0.284   0.728   2.329  0.00  0.00    +0.000 A 
ATOM     19  C   UNL     1      -0.113   0.838   0.962  0.00  0.00    +0.002 A 
ATOM     20  C   UNL     1       1.075   1.322   0.449  0.00  0.00    +0.026 A 
ENDBRANCH  14  15
BRANCH   1  21
ATOM     21  S   UNL     1       1.919   4.486   0.390  0.00  0.00    -0.070 S 
BRANCH  21  22
ATOM     22  C   UNL     1       2.574   6.012  -0.330  0.00  0.00    +0.169 C 
BRANCH  22  26
ATOM     23  C   UNL     1      -0.409   9.065  -0.153  0.00  0.00    +0.000 A 
ATOM     24  C   UNL     1      -0.719   7.825  -0.679  0.00  0.00    +0.000 A 
ATOM     25  C   UNL     1       0.246   6.837  -0.736  0.00  0.00    +0.005 A 
ATOM     26  C   UNL     1       1.522   7.089  -0.268  0.00  0.00    -0.025 A 
ATOM     27  C   UNL     1       1.831   8.328   0.263  0.00  0.00    +0.005 A 
ATOM     28  C   UNL     1       0.867   9.317   0.316  0.00  0.00    +0.000 A 
ENDBRANCH  22  26
BRANCH  22  29
ATOM     29  C   UNL     1       2.957   5.766  -1.766  0.00  0.00    +0.228 C 
ATOM     30  O   UNL     1       4.121   5.829  -2.103  0.00  0.00    -0.274 OA
ATOM     31  N   UNL     1       2.007   5.477  -2.677  0.00  0.00    -0.328 N 
ATOM     32  H   UNL     1       2.287   5.298  -3.726  0.00  0.00    +0.145 HD
ATOM     33  H   UNL     1       0.952   5.420  -2.372  0.00  0.00    +0.145 HD
ENDBRANCH  22  29
ENDBRANCH  21  22
ENDBRANCH   1  21
TORSDOF 5
