REMARK  Name = ZINC06280707
REMARK  8 active torsions:
REMARK  status: ('A' for Active; 'I' for Inactive)
REMARK    1  A    between atoms: C_1  and  C_2
REMARK    2  A    between atoms: C_4  and  C_16
REMARK    3  A    between atoms: C_5  and  C_15
REMARK    4  A    between atoms: N_6  and  C_7
REMARK    5  A    between atoms: C_7  and  C_8
REMARK    6  A    between atoms: C_8  and  C_9
REMARK    7  A    between atoms: N_22  and  C_23
REMARK    8  A    between atoms: C_29  and  C_31
REMARK                            x       y       z     vdW  Elec       q    Type
REMARK                         _______ _______ _______ _____ _____    ______ ____
ROOT
ATOM      1  C   UNL     1      -0.018   1.503   0.010  0.00  0.00    +0.063 C 
ATOM      2  C   UNL     1       0.002  -0.004   0.002  0.00  0.00    +0.017 A 
ATOM      3  C   UNL     1      -0.004  -0.780  -1.097  0.00  0.00    +0.032 A 
ATOM      4  C   UNL     1       0.026  -2.169  -0.628  0.00  0.00    +0.020 A 
ATOM      5  C   UNL     1       0.038  -2.111   0.737  0.00  0.00    +0.025 A 
ATOM      6  N   UNL     1       0.023  -0.802   1.107  0.00  0.00    -0.347 N 
ATOM      7  C   UNL     1       0.063  -3.293   1.671  0.00  0.00    +0.064 C 
ENDROOT
BRANCH   4   8
ATOM      8  C   UNL     1       0.034  -3.383  -1.461  0.00  0.00    +0.083 C 
ATOM      9  N   UNL     1       0.059  -4.536  -0.879  0.00  0.00    -0.150 NA
ATOM     10  N   UNL     1       0.053  -5.759  -1.535  0.00  0.00    -0.127 NA
ATOM     11  C   UNL     1       0.457  -5.917  -2.772  0.00  0.00    +0.176 C 
ATOM     12  S   UNL     1       1.042  -4.533  -3.696  0.00  0.00    -0.083 S 
ATOM     13  C   UNL     1       0.018  -3.234  -2.958  0.00  0.00    +0.135 C 
ATOM     14  N   UNL     1       0.426  -7.164  -3.350  0.00  0.00    -0.319 N 
ATOM     15  H   UNL     1       0.725  -7.281  -4.265  0.00  0.00    +0.148 HD
BRANCH  14  16
ATOM     16  C   UNL     1      -0.060  -8.314  -2.584  0.00  0.00    +0.075 C 
ATOM     17  C   UNL     1       1.085  -8.891  -1.750  0.00  0.00    +0.022 C 
ATOM     18  C   UNL     1       2.218  -9.337  -2.677  0.00  0.00    +0.002 C 
ATOM     19  C   UNL     1       1.698 -10.407  -3.639  0.00  0.00    +0.000 C 
ATOM     20  C   UNL     1       0.553  -9.830  -4.473  0.00  0.00    +0.005 C 
ATOM     21  C   UNL     1      -0.580  -9.384  -3.546  0.00  0.00    +0.006 C 
ATOM     22  C   UNL     1      -1.725  -8.807  -4.380  0.00  0.00    +0.009 C 
ENDBRANCH  14  16
ENDBRANCH   4   8
BRANCH   6  23
ATOM     23  C   UNL     1       0.030  -0.321   2.491  0.00  0.00    +0.126 C 
BRANCH  23  24
ATOM     24  C   UNL     1      -1.409  -0.173   2.986  0.00  0.00    +0.056 C 
BRANCH  24  25
ATOM     25  C   UNL     1      -1.402   0.322   4.410  0.00  0.00    -0.046 A 
ATOM     26  C   UNL     1      -1.385  -0.582   5.456  0.00  0.00    +0.004 A 
ATOM     27  C   UNL     1      -1.373  -0.128   6.761  0.00  0.00    +0.000 A 
ATOM     28  C   UNL     1      -1.389   1.230   7.021  0.00  0.00    +0.000 A 
ATOM     29  C   UNL     1      -1.412   2.134   5.975  0.00  0.00    +0.000 A 
ATOM     30  C   UNL     1      -1.418   1.679   4.669  0.00  0.00    +0.004 A 
ENDBRANCH  24  25
ENDBRANCH  23  24
ENDBRANCH   6  23
TORSDOF 5
