REMARK  Name = ZINC40227136
REMARK  3 active torsions:
REMARK  status: ('A' for Active; 'I' for Inactive)
REMARK    1  A    between atoms: C_4  and  N_19
REMARK    2  A    between atoms: C_6  and  N_7
REMARK    3  A    between atoms: N_7  and  C_8
REMARK                            x       y       z     vdW  Elec       q    Type
REMARK                         _______ _______ _______ _____ _____    ______ ____
ROOT
ATOM      1  N   UNL     1      -1.198  -0.721   0.010  0.00  0.00    -0.337 N 
ATOM      2  H   UNL     1      -1.185  -1.690   0.005  0.00  0.00    +0.147 HD
ENDROOT
BRANCH   1   3
ATOM      3  C   UNL     1      -2.478  -0.007   0.027  0.00  0.00    +0.101 C 
ATOM      4  C   UNL     1      -3.586  -0.907   0.613  0.00  0.00    +0.031 C 
ATOM      5  C   UNL     1      -4.177  -1.570  -0.649  0.00  0.00    +0.037 C 
ATOM      6  C   UNL     1      -3.901  -0.596  -1.774  0.00  0.00    -0.041 A 
ATOM      7  C   UNL     1      -2.923   0.305  -1.386  0.00  0.00    -0.024 A 
ATOM      8  C   UNL     1      -2.507   1.295  -2.260  0.00  0.00    +0.007 A 
ATOM      9  C   UNL     1      -3.064   1.389  -3.521  0.00  0.00    +0.015 A 
ATOM     10  C   UNL     1      -4.041   0.491  -3.912  0.00  0.00    +0.018 A 
ATOM     11  C   UNL     1      -4.461  -0.502  -3.037  0.00  0.00    +0.019 A 
ATOM     12 BR   UNL     1      -4.806   0.616  -5.637  0.00  0.00    -0.050 Br
ENDBRANCH   1   3
BRANCH   1  18
ATOM     13  C   UNL     1      -0.017   1.384   0.010  0.00  0.00    +0.026 A 
ATOM     14  C   UNL     1       1.171   2.090   0.002  0.00  0.00    +0.042 A 
ATOM     15  C   UNL     1       2.379   1.414  -0.013  0.00  0.00    +0.154 A 
ATOM     16  C   UNL     1       2.400   0.030  -0.021  0.00  0.00    +0.163 A 
ATOM     17  C   UNL     1       1.215  -0.680  -0.014  0.00  0.00    +0.058 A 
ATOM     18  C   UNL     1       0.002  -0.004   0.002  0.00  0.00    +0.030 A 
ATOM     19  F   UNL     1       3.539   2.107  -0.020  0.00  0.00    -0.203 F 
BRANCH  16  20
ATOM     20  N   UNL     1       3.693  -0.690  -0.038  0.00  0.00    +0.059 N 
ATOM     21  O   UNL     1       3.712  -1.899  -0.045  0.00  0.00    -0.126 OA
ATOM     22  O   UNL     1       4.731  -0.069  -0.044  0.00  0.00    -0.126 OA
ENDBRANCH  16  20
ENDBRANCH   1  18
TORSDOF 3
