REMARK  Name = ZINC39946793
REMARK  7 active torsions:
REMARK  status: ('A' for Active; 'I' for Inactive)
REMARK    1  A    between atoms: C_1  and  C_2
REMARK    2  A    between atoms: C_2  and  C_3
REMARK    3  A    between atoms: C_10  and  C_12
REMARK    4  A    between atoms: C_12  and  S_13
REMARK    5  A    between atoms: S_13  and  C_14
REMARK    6  A    between atoms: C_18  and  C_27
REMARK    7  A    between atoms: N_19  and  C_20
REMARK                            x       y       z     vdW  Elec       q    Type
REMARK                         _______ _______ _______ _____ _____    ______ ____
ROOT
ATOM      1  C   UNL     1      -2.105   2.086  -5.758  0.00  0.00    +0.241 C 
ATOM      2  N   UNL     1      -3.400   2.650  -5.342  0.00  0.00    -0.237 N 
ATOM      3  N   UNL     1      -4.379   2.004  -6.106  0.00  0.00    -0.169 NA
ATOM      4  C   UNL     1      -3.847   1.132  -6.920  0.00  0.00    +0.151 C 
ATOM      5  N   UNL     1      -2.453   1.099  -6.793  0.00  0.00    -0.254 N 
ATOM      6  H   UNL     1      -3.545   3.335  -4.670  0.00  0.00    +0.171 HD
ENDROOT
BRANCH   4   7
ATOM      7  C   UNL     1      -4.579   0.331  -7.811  0.00  0.00    +0.022 C 
ATOM      8  C   UNL     1      -5.957   0.356  -8.030  0.00  0.00    +0.006 A 
ATOM      9  C   UNL     1      -6.996   1.133  -7.475  0.00  0.00    +0.010 A 
ATOM     10  C   UNL     1      -8.275   0.938  -7.886  0.00  0.00    +0.001 A 
ATOM     11  C   UNL     1      -8.595  -0.018  -8.852  0.00  0.00    +0.002 A 
ATOM     12  C   UNL     1      -7.648  -0.799  -9.427  0.00  0.00    +0.026 A 
ATOM     13  C   UNL     1      -6.288  -0.653  -9.049  0.00  0.00    +0.043 A 
ATOM     14  N   UNL     1      -5.199  -1.278  -9.451  0.00  0.00    -0.380 N 
ATOM     15  C   UNL     1      -4.039  -0.735  -8.738  0.00  0.00    +0.152 C 
ATOM     16  H   UNL     1      -5.169  -1.983 -10.117  0.00  0.00    +0.160 HD
ENDBRANCH   4   7
BRANCH   5  17
ATOM     17  C   UNL     1      -1.565   0.288  -7.507  0.00  0.00    +0.038 A 
ATOM     18  C   UNL     1      -0.755   0.842  -8.491  0.00  0.00    +0.025 A 
ATOM     19  C   UNL     1       0.121   0.038  -9.194  0.00  0.00    +0.022 A 
ATOM     20  C   UNL     1       0.193  -1.316  -8.920  0.00  0.00    +0.041 A 
ATOM     21  C   UNL     1      -0.613  -1.870  -7.940  0.00  0.00    +0.022 A 
ATOM     22  C   UNL     1      -1.486  -1.070  -7.229  0.00  0.00    +0.025 A 
ATOM     23 CL   UNL     1       1.295  -2.322  -9.806  0.00  0.00    -0.084 Cl
ENDBRANCH   5  17
BRANCH   1  24
ATOM     24  S   UNL     1      -1.287   1.275  -4.357  0.00  0.00    -0.108 S 
BRANCH  24  25
ATOM     25  C   UNL     1      -2.495   0.044  -3.795  0.00  0.00    +0.168 C 
BRANCH  25  32
ATOM     26  C   UNL     1      -2.183  -2.337  -0.805  0.00  0.00    +0.076 C 
ATOM     27  C   UNL     1      -2.178  -3.853  -1.024  0.00  0.00    +0.022 C 
ATOM     28  C   UNL     1      -3.568  -4.304  -1.477  0.00  0.00    +0.003 C 
ATOM     29  C   UNL     1      -3.918  -3.627  -2.804  0.00  0.00    +0.019 C 
ATOM     30  C   UNL     1      -3.944  -2.108  -2.606  0.00  0.00    +0.108 C 
ATOM     31  N   UNL     1      -2.660  -1.681  -2.031  0.00  0.00    -0.298 N 
ATOM     32  C   UNL     1      -1.933  -0.711  -2.618  0.00  0.00    +0.226 C 
ATOM     33  O   UNL     1      -0.826  -0.445  -2.200  0.00  0.00    -0.275 OA
BRANCH  26  35
ATOM     34  C   UNL     1      -0.268  -2.549   0.785  0.00  0.00    +0.006 C 
ATOM     35  C   UNL     1      -0.765  -1.859  -0.487  0.00  0.00    +0.019 C 
ENDBRANCH  26  35
ENDBRANCH  25  32
ENDBRANCH  24  25
ENDBRANCH   1  24
TORSDOF 6
