REMARK  Name = ZINC12467962
REMARK  12 active torsions:
REMARK  status: ('A' for Active; 'I' for Inactive)
REMARK    1  A    between atoms: C_1  and  C_2
REMARK    2  A    between atoms: N_4  and  C_5
REMARK    3  A    between atoms: C_8  and  C_13
REMARK    4  A    between atoms: C_10  and  O_11
REMARK    5  A    between atoms: O_11  and  C_12
REMARK    6  A    between atoms: C_13  and  C_15
REMARK    7  A    between atoms: C_15  and  S_16
REMARK    8  A    between atoms: S_16  and  C_17
REMARK    9  A    between atoms: C_20  and  C_29
REMARK   10  A    between atoms: N_21  and  C_22
REMARK   11  A    between atoms: C_22  and  C_23
REMARK   12  A    between atoms: C_32  and  O_35
REMARK                            x       y       z     vdW  Elec       q    Type
REMARK                         _______ _______ _______ _____ _____    ______ ____
ROOT
ATOM      1  C   UNL     1       1.178  -9.695  -0.514  0.00  0.00    +0.192 A 
ATOM      2  N   UNL     1       2.308  -9.031  -0.416  0.00  0.00    -0.122 NA
ATOM      3  N   UNL     1       3.302  -9.845  -0.447  0.00  0.00    -0.128 NA
ATOM      4  C   UNL     1       2.868 -11.078  -0.566  0.00  0.00    +0.165 A 
ATOM      5  N   UNL     1       1.494 -11.021  -0.607  0.00  0.00    -0.300 N 
ENDROOT
BRANCH   4   6
ATOM      6  C   UNL     1       3.699 -12.299  -0.637  0.00  0.00    +0.020 A 
ATOM      7  C   UNL     1       3.169 -13.476  -1.169  0.00  0.00    +0.015 A 
ATOM      8  C   UNL     1       3.947 -14.612  -1.235  0.00  0.00    +0.046 A 
ATOM      9  C   UNL     1       5.256 -14.587  -0.771  0.00  0.00    +0.117 A 
ATOM     10  C   UNL     1       5.787 -13.418  -0.241  0.00  0.00    +0.046 A 
ATOM     11  C   UNL     1       5.017 -12.276  -0.177  0.00  0.00    +0.015 A 
BRANCH   9  12
ATOM     12  O   UNL     1       6.020 -15.709  -0.836  0.00  0.00    -0.507 OA
ATOM     13  H   UNL     1       6.521 -15.796  -1.659  0.00  0.00    +0.292 HD
ENDBRANCH   9  12
ENDBRANCH   4   6
BRANCH   1  14
ATOM     14  S   UNL     1      -0.443  -9.004  -0.516  0.00  0.00    -0.078 S 
BRANCH  14  15
ATOM     15  C   UNL     1      -0.159  -7.218  -0.366  0.00  0.00    +0.157 C 
BRANCH  15  16
ATOM     16  C   UNL     1      -1.483  -6.499  -0.356  0.00  0.00    +0.173 C 
ATOM     17  O   UNL     1      -2.516  -7.128  -0.442  0.00  0.00    -0.291 OA
BRANCH  16  21
ATOM     18  C   UNL     1      -1.590  -2.269  -0.029  0.00  0.00    +0.076 A 
ATOM     19  C   UNL     1      -0.369  -2.935  -0.038  0.00  0.00    +0.028 A 
ATOM     20  C   UNL     1      -0.330  -4.307  -0.144  0.00  0.00    +0.013 A 
ATOM     21  C   UNL     1      -1.522  -5.035  -0.243  0.00  0.00    +0.022 A 
ATOM     22  C   UNL     1      -2.751  -4.364  -0.234  0.00  0.00    +0.059 A 
ATOM     23  C   UNL     1      -2.783  -2.989  -0.121  0.00  0.00    +0.142 A 
BRANCH  18  27
ATOM     24  C   UNL     1      -0.744   1.369  -0.463  0.00  0.00    +0.109 C 
ATOM     25  C   UNL     1      -0.657  -0.135  -0.495  0.00  0.00    +0.214 C 
ATOM     26  O   UNL     1       0.283  -0.676  -1.039  0.00  0.00    -0.276 OA
ATOM     27  N   UNL     1      -1.623  -0.879   0.079  0.00  0.00    -0.283 N 
ATOM     28  H   UNL     1      -2.342  -0.447   0.567  0.00  0.00    +0.155 HD
ENDBRANCH  18  27
BRANCH  23  29
ATOM     29  O   UNL     1      -3.975  -2.335  -0.107  0.00  0.00    -0.493 OA
ATOM     30  C   UNL     1      -5.155  -3.135  -0.205  0.00  0.00    +0.277 C 
ENDBRANCH  23  29
ENDBRANCH  16  21
ENDBRANCH  15  16
ENDBRANCH  14  15
ENDBRANCH   1  14
BRANCH   5  31
ATOM     31  C   UNL     1       0.564 -12.146  -0.728  0.00  0.00    +0.157 C 
BRANCH  31  32
ATOM     32  C   UNL     1       0.204 -12.354  -2.201  0.00  0.00    +0.138 C 
ATOM     33  C   UNL     1      -0.708 -13.596  -2.362  0.00  0.00    +0.035 C 
ATOM     34  C   UNL     1      -1.440 -13.254  -3.688  0.00  0.00    +0.031 C 
ATOM     35  C   UNL     1      -1.570 -11.718  -3.603  0.00  0.00    +0.160 C 
ATOM     36  O   UNL     1      -0.576 -11.248  -2.684  0.00  0.00    -0.375 OA
ENDBRANCH  31  32
ENDBRANCH   5  31
TORSDOF 10
