REMARK  Name = ZINC36063669
REMARK  13 active torsions:
REMARK  status: ('A' for Active; 'I' for Inactive)
REMARK    1  A    between atoms: C_1  and  C_2
REMARK    2  A    between atoms: C_2  and  N_3
REMARK    3  A    between atoms: N_3  and  C_4
REMARK    4  A    between atoms: C_4  and  C_5
REMARK    5  A    between atoms: C_6  and  C_8
REMARK    6  A    between atoms: C_9  and  C_37
REMARK    7  A    between atoms: C_13  and  C_15
REMARK    8  A    between atoms: C_19  and  O_21
REMARK    9  A    between atoms: O_21  and  C_22
REMARK   10  A    between atoms: C_23  and  C_26
REMARK   11  A    between atoms: C_27  and  N_29
REMARK   12  A    between atoms: N_29  and  C_30
REMARK   13  A    between atoms: C_30  and  C_31
REMARK                            x       y       z     vdW  Elec       q    Type
REMARK                         _______ _______ _______ _____ _____    ______ ____
ROOT
ATOM      1  C   UNL     1       2.756  -0.895   2.371  0.00  0.00    +0.060 C 
ATOM      2  C   UNL     1       4.102  -1.165   2.508  0.00  0.00    +0.051 C 
ATOM      3  N   UNL     1       4.574  -1.673   3.636  0.00  0.00    -0.230 NA
ATOM      4  C   UNL     1       3.843  -1.960   4.694  0.00  0.00    +0.166 C 
ATOM      5  N   UNL     1       2.491  -1.768   4.762  0.00  0.00    -0.267 N 
ATOM      6  C   UNL     1       1.853  -1.194   3.547  0.00  0.00    +0.148 C 
ATOM      7  C   UNL     1       1.867  -2.118   5.943  0.00  0.00    +0.048 C 
ATOM      8  C   UNL     1       2.637  -2.621   6.933  0.00  0.00    +0.072 C 
ATOM      9  S   UNL     1       4.256  -2.599   6.189  0.00  0.00    -0.060 S 
ATOM     10  C   UNL     1       5.042  -0.879   1.366  0.00  0.00    +0.066 C 
ENDROOT
BRANCH   6  11
ATOM     11  C   UNL     1       0.793  -2.160   3.085  0.00  0.00    -0.019 A 
ATOM     12  C   UNL     1      -0.441  -1.688   2.678  0.00  0.00    +0.006 A 
ATOM     13  C   UNL     1      -1.416  -2.572   2.253  0.00  0.00    +0.004 A 
ATOM     14  C   UNL     1      -1.159  -3.929   2.236  0.00  0.00    +0.045 A 
ATOM     15  C   UNL     1       0.078  -4.405   2.644  0.00  0.00    +0.120 A 
ATOM     16  C   UNL     1       1.057  -3.515   3.064  0.00  0.00    +0.051 A 
BRANCH  15  17
ATOM     17  O   UNL     1       0.334  -5.740   2.628  0.00  0.00    -0.495 OA
ATOM     18  C   UNL     1      -0.718  -6.596   2.178  0.00  0.00    +0.277 C 
ENDBRANCH  15  17
ENDBRANCH   6  11
BRANCH   1  20
ATOM     19  N   UNL     1       2.337   0.967   0.945  0.00  0.00    -0.298 N 
ATOM     20  C   UNL     1       2.242  -0.357   1.182  0.00  0.00    +0.246 C 
ATOM     21  O   UNL     1       1.709  -1.086   0.363  0.00  0.00    -0.270 OA
BRANCH  19  23
ATOM     22  C   UNL     1       2.711   1.524  -1.407  0.00  0.00    +0.024 C 
ATOM     23  C   UNL     1       1.713   1.544  -0.248  0.00  0.00    +0.104 C 
ENDBRANCH  19  23
BRANCH  19  24
ATOM     24  C   UNL     1       3.066   1.827   1.880  0.00  0.00    +0.104 C 
ATOM     25  C   UNL     1       2.082   2.451   2.872  0.00  0.00    +0.024 C 
ENDBRANCH  19  24
ENDBRANCH   1  20
BRANCH   7  26
ATOM     26  C   UNL     1       0.417  -1.950   6.116  0.00  0.00    +0.091 C 
ATOM     27  C   UNL     1      -0.145  -2.161   7.321  0.00  0.00    +0.239 C 
ATOM     28  O   UNL     1       0.637  -2.392   8.404  0.00  0.00    -0.271 OA
BRANCH  27  29
ATOM     29  N   UNL     1      -1.524  -2.142   7.455  0.00  0.00    -0.309 N 
ATOM     30  H   UNL     1      -2.086  -2.049   6.670  0.00  0.00    +0.149 HD
BRANCH  29  31
ATOM     31  C   UNL     1      -2.133  -2.261   8.782  0.00  0.00    +0.136 C 
BRANCH  31  32
ATOM     32  C   UNL     1      -3.654  -2.336   8.639  0.00  0.00    +0.135 C 
ATOM     33  C   UNL     1      -4.321  -2.428  10.035  0.00  0.00    +0.035 C 
ATOM     34  C   UNL     1      -5.731  -1.853   9.726  0.00  0.00    +0.031 C 
ATOM     35  C   UNL     1      -5.423  -0.789   8.651  0.00  0.00    +0.160 C 
ATOM     36  O   UNL     1      -4.161  -1.125   8.058  0.00  0.00    -0.375 OA
ENDBRANCH  31  32
ENDBRANCH  29  31
ENDBRANCH  27  29
ENDBRANCH   7  26
TORSDOF 9
