REMARK  Name = ZINC13496415
REMARK  10 active torsions:
REMARK  status: ('A' for Active; 'I' for Inactive)
REMARK    1  A    between atoms: C_1  and  C_2
REMARK    2  A    between atoms: C_5  and  S_8
REMARK    3  A    between atoms: S_8  and  N_11
REMARK    4  A    between atoms: C_12  and  C_25
REMARK    5  A    between atoms: N_13  and  C_14
REMARK    6  A    between atoms: C_16  and  C_22
REMARK    7  A    between atoms: C_17  and  O_21
REMARK    8  A    between atoms: C_19  and  C_20
REMARK    9  A    between atoms: C_22  and  C_23
REMARK   10  A    between atoms: C_22  and  C_24
REMARK                            x       y       z     vdW  Elec       q    Type
REMARK                         _______ _______ _______ _____ _____    ______ ____
ROOT
ATOM      1  N   UNL     1       3.066  -6.361  -0.403  0.00  0.00    -0.118 NA
ATOM      2  C   UNL     1       2.086  -6.402   0.440  0.00  0.00    +0.118 C 
ATOM      3  N   UNL     1       1.191  -7.439   0.400  0.00  0.00    -0.302 N 
ATOM      4  C   UNL     1       1.927  -5.309   1.465  0.00  0.00    +0.085 C 
ATOM      5  H   UNL     1       1.474  -8.312   0.085  0.00  0.00    +0.153 HD
ENDROOT
BRANCH   3   6
ATOM      6  C   UNL     1      -0.132  -7.239   0.813  0.00  0.00    +0.036 A 
ATOM      7  C   UNL     1      -0.652  -5.953   0.881  0.00  0.00    +0.031 A 
ATOM      8  C   UNL     1      -1.956  -5.756   1.288  0.00  0.00    -0.002 A 
ATOM      9  C   UNL     1      -2.748  -6.843   1.630  0.00  0.00    +0.121 A 
ATOM     10  C   UNL     1      -2.230  -8.128   1.562  0.00  0.00    +0.050 A 
ATOM     11  C   UNL     1      -0.927  -8.327   1.149  0.00  0.00    -0.026 A 
ATOM     12  C   UNL     1      -0.366  -9.723   1.070  0.00  0.00    +0.046 C 
BRANCH   8  13
ATOM     13  C   UNL     1      -2.520  -4.361   1.363  0.00  0.00    +0.016 C 
ATOM     14  C   UNL     1      -1.627  -3.497   2.256  0.00  0.00    +0.012 C 
ATOM     15  C   UNL     1      -2.573  -3.757  -0.042  0.00  0.00    +0.012 C 
ENDBRANCH   8  13
BRANCH   9  16
ATOM     16  O   UNL     1      -4.033  -6.649   2.031  0.00  0.00    -0.506 OA
ATOM     17  H   UNL     1      -4.676  -6.657   1.310  0.00  0.00    +0.292 HD
ENDBRANCH   9  16
ENDBRANCH   3   6
BRANCH   1  18
ATOM     18  S   UNL     1       3.178  -7.500  -1.600  0.00  0.00    +0.100 S 
ATOM     19  O   UNL     1       2.107  -7.249  -2.500  0.00  0.00    -0.146 OA
ATOM     20  O   UNL     1       3.352  -8.753  -0.953  0.00  0.00    -0.146 OA
BRANCH  18  25
ATOM     21  C   UNL     1       8.275  -6.408  -4.638  0.00  0.00    +0.044 C 
ATOM     22  C   UNL     1       7.002  -6.680  -3.879  0.00  0.00    -0.050 A 
ATOM     23  C   UNL     1       7.034  -7.443  -2.727  0.00  0.00    +0.005 A 
ATOM     24  C   UNL     1       5.866  -7.693  -2.030  0.00  0.00    +0.029 A 
ATOM     25  C   UNL     1       4.667  -7.180  -2.486  0.00  0.00    +0.113 A 
ATOM     26  C   UNL     1       4.635  -6.416  -3.638  0.00  0.00    +0.029 A 
ATOM     27  C   UNL     1       5.803  -6.163  -4.332  0.00  0.00    +0.005 A 
ENDBRANCH  18  25
ENDBRANCH   1  18
TORSDOF 5
