REMARK  Name = ZINC20094966
REMARK  3 active torsions:
REMARK  status: ('A' for Active; 'I' for Inactive)
REMARK    1  A    between atoms: C_4  and  C_7
REMARK    2  A    between atoms: C_8  and  C_24
REMARK    3  A    between atoms: C_9  and  N_23
REMARK                            x       y       z     vdW  Elec       q    Type
REMARK                         _______ _______ _______ _____ _____    ______ ____
ROOT
ATOM      1  C   UNL     1       3.672  -0.566   0.001  0.00  0.00    +0.016 A 
ATOM      2  C   UNL     1       4.488  -0.480  -1.147  0.00  0.00    +0.100 A 
ATOM      3  C   UNL     1       5.714  -1.167  -1.163  0.00  0.00    +0.136 A 
ATOM      4  N   UNL     1       6.100  -1.886  -0.120  0.00  0.00    -0.224 NA
ATOM      5  C   UNL     1       5.365  -1.995   0.975  0.00  0.00    +0.115 A 
ATOM      6  C   UNL     1       4.128  -1.337   1.088  0.00  0.00    +0.056 A 
ATOM      7  C   UNL     1       3.311  -1.437   2.293  0.00  0.00    +0.127 C 
ATOM      8  N   UNL     1       3.659  -1.366   3.513  0.00  0.00    -0.231 NA
ATOM      9  C   UNL     1       4.869  -1.151   4.084  0.00  0.00    +0.080 A 
ATOM     10  C   UNL     1       4.963  -0.234   5.138  0.00  0.00    +0.029 A 
ATOM     11  C   UNL     1       6.177   0.006   5.748  0.00  0.00    +0.002 A 
ATOM     12  C   UNL     1       7.314  -0.656   5.324  0.00  0.00    +0.001 A 
ATOM     13  C   UNL     1       7.239  -1.564   4.281  0.00  0.00    +0.017 A 
ATOM     14  C   UNL     1       6.026  -1.812   3.661  0.00  0.00    +0.040 A 
ATOM     15  S   UNL     1       5.946  -2.975   2.323  0.00  0.00    -0.067 S 
ATOM     16  N   UNL     1       1.966  -1.640   2.076  0.00  0.00    -0.343 N 
ATOM     17  H   UNL     1       1.641  -1.821   1.180  0.00  0.00    +0.144 HD
ATOM     18  H   UNL     1       1.343  -1.602   2.819  0.00  0.00    +0.144 HD
ENDROOT
BRANCH   1  22
ATOM     19  C   UNL     1      -0.056   1.463   0.179  0.00  0.00    +0.000 A 
ATOM     20  C   UNL     1       0.984   1.860   1.001  0.00  0.00    +0.001 A 
ATOM     21  C   UNL     1       2.197   1.205   0.948  0.00  0.00    +0.008 A 
ATOM     22  C   UNL     1       2.374   0.140   0.063  0.00  0.00    -0.016 A 
ATOM     23  C   UNL     1       1.321  -0.254  -0.763  0.00  0.00    +0.008 A 
ATOM     24  C   UNL     1       0.113   0.409  -0.701  0.00  0.00    +0.001 A 
ENDBRANCH   1  22
BRANCH   3  25
ATOM     25  N   UNL     1       6.525  -1.091  -2.278  0.00  0.00    -0.342 N 
ATOM     26  H   UNL     1       6.247  -0.566  -3.045  0.00  0.00    +0.144 HD
ATOM     27  H   UNL     1       7.372  -1.563  -2.295  0.00  0.00    +0.144 HD
ENDBRANCH   3  25
BRANCH   2  28
ATOM     28  C   UNL     1       4.073   0.294  -2.279  0.00  0.00    +0.103 C 
ATOM     29  N   UNL     1       3.744   0.908  -3.176  0.00  0.00    -0.191 NA
ENDBRANCH   2  28
TORSDOF 3
