REMARK  Name = ZINC39696274
REMARK  12 active torsions:
REMARK  status: ('A' for Active; 'I' for Inactive)
REMARK    1  A    between atoms: C_1  and  C_2
REMARK    2  A    between atoms: C_2  and  C_3
REMARK    3  A    between atoms: C_6  and  C_9
REMARK    4  A    between atoms: C_9  and  C_11
REMARK    5  A    between atoms: C_9  and  N_12
REMARK    6  A    between atoms: C_13  and  C_15
REMARK    7  A    between atoms: C_26  and  C_28
REMARK    8  A    between atoms: C_28  and  C_30
REMARK    9  A    between atoms: C_28  and  O_33
REMARK   10  A    between atoms: C_30  and  C_31
REMARK   11  A    between atoms: C_30  and  C_32
REMARK   12  A    between atoms: O_33  and  C_34
REMARK                            x       y       z     vdW  Elec       q    Type
REMARK                         _______ _______ _______ _____ _____    ______ ____
ROOT
ATOM      1  C   UNL     1      -7.222  -5.459  -1.560  0.00  0.00    +0.100 C 
ATOM      2  C   UNL     1      -7.473  -4.685  -2.873  0.00  0.00    +0.121 C 
ATOM      3  N   UNL     1      -8.409  -5.542  -3.639  0.00  0.00    -0.297 N 
ATOM      4  C   UNL     1      -9.344  -6.072  -2.617  0.00  0.00    +0.115 C 
ATOM      5  C   UNL     1      -8.452  -6.367  -1.395  0.00  0.00    -0.004 C 
ATOM      6  C   UNL     1      -9.193  -6.023  -0.106  0.00  0.00    -0.010 C 
ATOM      7  C   UNL     1     -10.379  -6.978   0.066  0.00  0.00    -0.082 C 
ATOM      8  N   UNL     1      -9.892  -8.362   0.111  0.00  0.00    +0.379 N 
ATOM      9  C   UNL     1      -9.262  -8.714  -1.167  0.00  0.00    -0.082 C 
ATOM     10  C   UNL     1      -8.030  -7.833  -1.391  0.00  0.00    -0.010 C 
ATOM     11  C   UNL     1      -8.411  -5.784  -4.965  0.00  0.00    +0.257 C 
ATOM     12  O   UNL     1      -7.522  -5.344  -5.663  0.00  0.00    -0.272 OA
ATOM     13  H   UNL     1      -9.216  -8.455   0.855  0.00  0.00    -0.086 HD
ATOM     14  H   UNL     1     -10.667  -8.984   0.285  0.00  0.00    -0.086 HD
ENDROOT
BRANCH   1  16
ATOM     15  N   UNL     1      -6.454  -4.868   0.716  0.00  0.00    -0.308 N 
ATOM     16  C   UNL     1      -7.116  -4.503  -0.400  0.00  0.00    +0.219 C 
ATOM     17  O   UNL     1      -7.626  -3.405  -0.471  0.00  0.00    -0.275 OA
ATOM     18  H   UNL     1      -6.047  -5.747   0.773  0.00  0.00    +0.149 HD
BRANCH  15  19
ATOM     19  C   UNL     1      -6.351  -3.939   1.844  0.00  0.00    +0.100 C 
ATOM     20  C   UNL     1      -5.164  -3.000   1.624  0.00  0.00    +0.033 C 
BRANCH  19  24
ATOM     21  C   UNL     1      -5.776  -6.144   5.457  0.00  0.00    -0.048 A 
ATOM     22  C   UNL     1      -6.606  -5.038   5.447  0.00  0.00    +0.004 A 
ATOM     23  C   UNL     1      -6.792  -4.325   4.277  0.00  0.00    +0.006 A 
ATOM     24  C   UNL     1      -6.148  -4.716   3.119  0.00  0.00    -0.027 A 
ATOM     25  C   UNL     1      -5.317  -5.821   3.129  0.00  0.00    +0.006 A 
ATOM     26  C   UNL     1      -5.127  -6.532   4.299  0.00  0.00    +0.004 A 
BRANCH  21  28
ATOM     27  C   UNL     1      -4.388  -6.337   7.503  0.00  0.00    +0.009 C 
ATOM     28  C   UNL     1      -5.573  -6.922   6.731  0.00  0.00    +0.032 C 
ENDBRANCH  21  28
ENDBRANCH  19  24
ENDBRANCH  15  19
ENDBRANCH   1  16
BRANCH  11  29
ATOM     29  C   UNL     1      -9.517  -6.602  -5.580  0.00  0.00    +0.261 C 
BRANCH  29  30
ATOM     30  C   UNL     1     -10.845  -5.856  -5.434  0.00  0.00    +0.033 C 
ATOM     31  C   UNL     1     -10.792  -4.559  -6.244  0.00  0.00    +0.011 C 
ATOM     32  C   UNL     1     -11.984  -6.735  -5.954  0.00  0.00    +0.011 C 
ENDBRANCH  29  30
BRANCH  29  33
ATOM     33  O   UNL     1      -9.239  -6.814  -6.965  0.00  0.00    -0.479 OA
BRANCH  33  34
ATOM     34  C   UNL     1      -9.596  -8.016  -7.489  0.00  0.00    +0.122 A 
ATOM     35  C   UNL     1      -9.341  -8.295  -8.824  0.00  0.00    +0.045 A 
ATOM     36  C   UNL     1      -9.704  -9.518  -9.355  0.00  0.00    +0.004 A 
ATOM     37  C   UNL     1     -10.321 -10.463  -8.556  0.00  0.00    +0.000 A 
ATOM     38  C   UNL     1     -10.576 -10.188  -7.226  0.00  0.00    +0.004 A 
ATOM     39  C   UNL     1     -10.210  -8.968  -6.689  0.00  0.00    +0.045 A 
ENDBRANCH  33  34
ENDBRANCH  29  33
ENDBRANCH  11  29
TORSDOF 8
