REMARK  Name = ZINC59422491
REMARK  8 active torsions:
REMARK  status: ('A' for Active; 'I' for Inactive)
REMARK    1  A    between atoms: C_1  and  C_2
REMARK    2  A    between atoms: N_5  and  S_11
REMARK    3  A    between atoms: C_7  and  C_10
REMARK    4  A    between atoms: S_11  and  C_14
REMARK    5  A    between atoms: C_16  and  N_36
REMARK    6  A    between atoms: C_19  and  N_20
REMARK    7  A    between atoms: N_23  and  C_26
REMARK    8  A    between atoms: C_26  and  C_27
REMARK                            x       y       z     vdW  Elec       q    Type
REMARK                         _______ _______ _______ _____ _____    ______ ____
ROOT
ATOM      1  C   UNL     1       2.507   2.409  -2.431  0.00  0.00    +0.129 A 
ATOM      2  C   UNL     1       3.640   3.198  -2.473  0.00  0.00    +0.063 A 
ATOM      3  C   UNL     1       3.607   4.487  -1.974  0.00  0.00    +0.128 A 
ATOM      4  C   UNL     1       2.439   4.990  -1.430  0.00  0.00    +0.034 A 
ATOM      5  C   UNL     1       1.302   4.207  -1.385  0.00  0.00    +0.027 A 
ATOM      6  C   UNL     1       1.331   2.914  -1.891  0.00  0.00    +0.057 A 
ENDROOT
BRANCH   6   7
ATOM      7  N   UNL     1       0.182   2.121  -1.852  0.00  0.00    -0.326 N 
ATOM      8  C   UNL     1      -0.285   1.531  -0.589  0.00  0.00    +0.120 C 
ATOM      9  C   UNL     1      -0.511   0.031  -0.806  0.00  0.00    +0.103 C 
ATOM     10  N   UNL     1      -1.409  -0.165  -1.952  0.00  0.00    -0.295 NA
ATOM     11  C   UNL     1      -0.806   0.341  -3.193  0.00  0.00    +0.103 C 
ATOM     12  C   UNL     1      -0.596   1.858  -3.073  0.00  0.00    +0.120 C 
BRANCH  10  13
ATOM     13  C   UNL     1      -1.788  -1.577  -2.089  0.00  0.00    +0.119 C 
BRANCH  13  14
ATOM     14  C   UNL     1      -2.889  -1.706  -3.109  0.00  0.00    -0.030 A 
ATOM     15  C   UNL     1      -4.211  -1.622  -2.712  0.00  0.00    +0.009 A 
ATOM     16  C   UNL     1      -5.225  -1.739  -3.644  0.00  0.00    +0.050 A 
ATOM     17  C   UNL     1      -4.918  -1.940  -4.980  0.00  0.00    +0.166 A 
ATOM     18  C   UNL     1      -3.587  -2.023  -5.381  0.00  0.00    +0.167 A 
ATOM     19  C   UNL     1      -2.576  -1.900  -4.441  0.00  0.00    +0.054 A 
ATOM     20  O   UNL     1      -3.549  -2.221  -6.731  0.00  0.00    -0.453 OA
ATOM     21  C   UNL     1      -4.871  -2.666  -7.091  0.00  0.00    +0.466 C 
ATOM     22  O   UNL     1      -5.715  -2.085  -6.080  0.00  0.00    -0.453 OA
ENDBRANCH  13  14
ENDBRANCH  10  13
ENDBRANCH   6   7
BRANCH   1  23
ATOM     23  S   UNL     1       2.552   0.767  -3.068  0.00  0.00    +0.063 S 
ATOM     24  O   UNL     1       2.033   0.829  -4.389  0.00  0.00    -0.153 OA
ATOM     25  O   UNL     1       1.990  -0.072  -2.068  0.00  0.00    -0.153 OA
BRANCH  23  29
ATOM     26  C   UNL     1       5.757   1.392  -0.952  0.00  0.00    +0.039 C 
ATOM     27  C   UNL     1       6.084   0.125  -1.744  0.00  0.00    +0.131 C 
ATOM     28  C   UNL     1       4.783  -0.538  -2.210  0.00  0.00    +0.140 C 
ATOM     29  N   UNL     1       4.145   0.338  -3.206  0.00  0.00    -0.172 NA
ATOM     30  C   UNL     1       4.966   0.822  -4.327  0.00  0.00    +0.140 C 
ATOM     31  C   UNL     1       6.258   1.418  -3.759  0.00  0.00    +0.131 C 
ATOM     32  O   UNL     1       6.874   0.466  -2.886  0.00  0.00    -0.371 OA
ATOM     33  C   UNL     1       7.214   1.754  -4.905  0.00  0.00    +0.039 C 
ENDBRANCH  23  29
ENDBRANCH   1  23
BRANCH   3  34
ATOM     34  N   UNL     1       4.823   5.329  -2.020  0.00  0.00    +0.056 N 
ATOM     35  O   UNL     1       5.844   4.890  -2.494  0.00  0.00    -0.126 OA
ATOM     36  O   UNL     1       4.795   6.456  -1.584  0.00  0.00    -0.126 OA
ENDBRANCH   3  34
TORSDOF 6
