REMARK  Name = ZINC02719989
REMARK  7 active torsions:
REMARK  status: ('A' for Active; 'I' for Inactive)
REMARK    1  A    between atoms: C_1  and  C_2
REMARK    2  A    between atoms: C_5  and  C_30
REMARK    3  A    between atoms: C_6  and  N_8
REMARK    4  A    between atoms: C_9  and  C_11
REMARK    5  A    between atoms: C_11  and  S_12
REMARK    6  A    between atoms: S_12  and  C_13
REMARK    7  A    between atoms: N_19  and  C_20
REMARK                            x       y       z     vdW  Elec       q    Type
REMARK                         _______ _______ _______ _____ _____    ______ ____
ROOT
ATOM      1  C   UNL     1       4.213   1.987  -0.168  0.00  0.00    +0.177 A 
ATOM      2  N   UNL     1       3.385   1.004  -0.420  0.00  0.00    -0.227 NA
ATOM      3  C   UNL     1       2.044   1.153  -0.368  0.00  0.00    +0.064 A 
ATOM      4  C   UNL     1       1.570   2.401  -0.018  0.00  0.00    +0.094 A 
ATOM      5  C   UNL     1       2.447   3.462   0.248  0.00  0.00    +0.273 A 
ATOM      6  O   UNL     1       2.018   4.565   0.546  0.00  0.00    -0.266 OA
ATOM      7  N   UNL     1       3.778   3.236   0.167  0.00  0.00    -0.255 N 
ATOM      8  S   UNL     1      -0.204   2.289  -0.004  0.00  0.00    -0.118 S 
ATOM      9  C   UNL     1      -0.366   0.456  -0.048  0.00  0.00    +0.081 C 
ATOM     10  C   UNL     1       1.009   0.094  -0.656  0.00  0.00    +0.068 C 
ENDROOT
BRANCH   7  11
ATOM     11  C   UNL     1       4.693   4.266   0.421  0.00  0.00    +0.052 A 
ATOM     12  C   UNL     1       4.756   5.365  -0.425  0.00  0.00    +0.028 A 
ATOM     13  C   UNL     1       5.655   6.381  -0.169  0.00  0.00    +0.022 A 
ATOM     14  C   UNL     1       6.501   6.300   0.924  0.00  0.00    +0.041 A 
ATOM     15  C   UNL     1       6.443   5.203   1.766  0.00  0.00    +0.022 A 
ATOM     16  C   UNL     1       5.542   4.187   1.517  0.00  0.00    +0.028 A 
ATOM     17 CL   UNL     1       7.635   7.576   1.239  0.00  0.00    -0.084 Cl
ENDBRANCH   7  11
BRANCH   1  18
ATOM     18  S   UNL     1       5.947   1.686  -0.263  0.00  0.00    -0.078 S 
BRANCH  18  19
ATOM     19  C   UNL     1       5.938  -0.064  -0.725  0.00  0.00    +0.173 C 
BRANCH  19  21
ATOM     20  N   UNL     1       7.596  -1.835  -1.209  0.00  0.00    -0.285 N 
ATOM     21  C   UNL     1       7.356  -0.553  -0.868  0.00  0.00    +0.227 C 
ATOM     22  O   UNL     1       8.282   0.207  -0.676  0.00  0.00    -0.275 OA
ATOM     23  H   UNL     1       6.856  -2.427  -1.417  0.00  0.00    +0.155 HD
BRANCH  20  29
ATOM     24  C   UNL     1      12.396  -0.949  -1.790  0.00  0.00    +0.044 C 
ATOM     25  C   UNL     1      11.257  -1.903  -1.542  0.00  0.00    -0.049 A 
ATOM     26  C   UNL     1      11.510  -3.251  -1.368  0.00  0.00    +0.004 A 
ATOM     27  C   UNL     1      10.467  -4.130  -1.141  0.00  0.00    +0.005 A 
ATOM     28  C   UNL     1       9.168  -3.664  -1.088  0.00  0.00    -0.029 A 
ATOM     29  C   UNL     1       8.910  -2.310  -1.262  0.00  0.00    +0.037 A 
ATOM     30  C   UNL     1       9.960  -1.431  -1.495  0.00  0.00    +0.027 A 
ATOM     31  C   UNL     1       8.032  -4.622  -0.840  0.00  0.00    +0.045 C 
ENDBRANCH  20  29
ENDBRANCH  19  21
ENDBRANCH  18  19
ENDBRANCH   1  18
TORSDOF 5
