REMARK  Name = ZINC40372296
REMARK  5 active torsions:
REMARK  status: ('A' for Active; 'I' for Inactive)
REMARK    1  A    between atoms: C_5  and  C_7
REMARK    2  A    between atoms: C_7  and  C_8
REMARK    3  A    between atoms: N_10  and  C_11
REMARK    4  A    between atoms: C_11  and  C_17
REMARK    5  A    between atoms: N_18  and  O_19
REMARK                            x       y       z     vdW  Elec       q    Type
REMARK                         _______ _______ _______ _____ _____    ______ ____
ROOT
ATOM      1  C   UNL     1       1.618  -4.455   2.903  0.00  0.00    +0.093 C 
ATOM      2  C   UNL     1       2.938  -3.849   3.384  0.00  0.00    +0.033 C 
ATOM      3  C   UNL     1       4.049  -4.193   2.390  0.00  0.00    +0.002 C 
ATOM      4  C   UNL     1       4.192  -5.713   2.292  0.00  0.00    +0.000 C 
ATOM      5  C   UNL     1       2.873  -6.320   1.811  0.00  0.00    +0.002 C 
ATOM      6  C   UNL     1       1.761  -5.976   2.805  0.00  0.00    +0.033 C 
ENDROOT
BRANCH   1   7
ATOM      7  C   UNL     1       0.523  -4.116   3.882  0.00  0.00    +0.155 C 
ATOM      8  N   UNL     1       0.659  -4.414   5.131  0.00  0.00    -0.075 NA
ATOM      9  N   UNL     1      -0.622  -3.489   3.444  0.00  0.00    -0.342 N 
ATOM     10  H   UNL     1      -0.757  -3.333   2.496  0.00  0.00    +0.144 HD
ATOM     11  H   UNL     1      -1.293  -3.202   4.083  0.00  0.00    +0.144 HD
BRANCH   8  12
ATOM     12  O   UNL     1       1.781  -5.162   5.563  0.00  0.00    -0.408 OA
ATOM     13  H   UNL     1       1.796  -5.335   6.514  0.00  0.00    +0.328 HD
ENDBRANCH   8  12
ENDBRANCH   1   7
BRANCH   1  16
ATOM     14  C   UNL     1       1.203  -2.577   1.408  0.00  0.00    +0.218 C 
ATOM     15  O   UNL     1       1.315  -1.831   2.357  0.00  0.00    -0.275 OA
ATOM     16  N   UNL     1       1.281  -3.911   1.585  0.00  0.00    -0.303 N 
ATOM     17  H   UNL     1       1.114  -4.510   0.841  0.00  0.00    +0.150 HD
BRANCH  14  18
ATOM     18  C   UNL     1       0.976  -2.013   0.029  0.00  0.00    +0.132 C 
BRANCH  18  23
ATOM     19  C   UNL     1      -0.331   1.521   0.277  0.00  0.00    +0.000 A 
ATOM     20  C   UNL     1       0.842   2.253   0.239  0.00  0.00    +0.001 A 
ATOM     21  C   UNL     1       2.058   1.605   0.133  0.00  0.00    +0.020 A 
ATOM     22  C   UNL     1       2.102   0.224   0.065  0.00  0.00    +0.045 A 
ATOM     23  C   UNL     1       0.928  -0.508   0.103  0.00  0.00    -0.020 A 
ATOM     24  C   UNL     1      -0.287   0.141   0.209  0.00  0.00    +0.005 A 
ATOM     25 CL   UNL     1       3.629  -0.591  -0.069  0.00  0.00    -0.083 Cl
ENDBRANCH  18  23
ENDBRANCH  14  18
ENDBRANCH   1  16
TORSDOF 5
