REMARK  Name = ZINC12156449
REMARK  10 active torsions:
REMARK  status: ('A' for Active; 'I' for Inactive)
REMARK    1  A    between atoms: C_1  and  C_2
REMARK    2  A    between atoms: C_2  and  C_3
REMARK    3  A    between atoms: C_2  and  C_4
REMARK    4  A    between atoms: C_4  and  C_5
REMARK    5  A    between atoms: C_5  and  C_6
REMARK    6  A    between atoms: C_6  and  C_13
REMARK    7  A    between atoms: C_18  and  C_19
REMARK    8  A    between atoms: C_18  and  N_65
REMARK    9  A    between atoms: C_22  and  C_26
REMARK   10  A    between atoms: C_26  and  C_28
REMARK                            x       y       z     vdW  Elec       q    Type
REMARK                         _______ _______ _______ _____ _____    ______ ____
ROOT
ATOM      1  C   UNL     1      -0.011   1.119   0.077  0.00  0.00    +0.018 C 
ATOM      2  C   UNL     1      -0.764   1.379   1.385  0.00  0.00    -0.013 C 
ATOM      3  C   UNL     1      -2.211   0.899   1.238  0.00  0.00    -0.078 C 
ATOM      4  C   UNL     1      -2.178   1.341  -1.144  0.00  0.00    -0.078 C 
ATOM      5  C   UNL     1      -0.731   1.835  -1.069  0.00  0.00    -0.013 C 
ATOM      6  N   UNL     1      -2.854   1.644   0.135  0.00  0.00    +0.382 N 
ATOM      7  H   UNL     1      -2.777   2.650   0.323  0.00  0.00    -0.081 HD
ENDROOT
BRANCH   1   8
ATOM      8  C   UNL     1       1.418   1.651   0.195  0.00  0.00    +0.115 C 
ATOM      9  C   UNL     1       1.423   3.167   0.223  0.00  0.00    +0.244 C 
ATOM     10  O   UNL     1       0.900   3.885   1.047  0.00  0.00    -0.273 OA
ATOM     11  N   UNL     1       2.128   3.549  -0.861  0.00  0.00    -0.238 N 
ATOM     12  C   UNL     1       2.565   2.496  -1.561  0.00  0.00    +0.307 C 
ATOM     13  O   UNL     1       3.223   2.588  -2.579  0.00  0.00    -0.252 OA
ATOM     14  N   UNL     1       2.194   1.324  -1.014  0.00  0.00    -0.285 N 
ATOM     15  H   UNL     1       2.297   4.473  -1.103  0.00  0.00    +0.159 HD
ATOM     16  H   UNL     1       2.398   0.438  -1.350  0.00  0.00    +0.151 HD
BRANCH   8  17
ATOM     17  C   UNL     1       2.101   1.085   1.442  0.00  0.00    +0.036 C 
BRANCH  17  18
ATOM     18  C   UNL     1       3.527   1.631   1.536  0.00  0.00    +0.005 C 
BRANCH  18  20
ATOM     19  C   UNL     1       4.365  -0.450   2.635  0.00  0.00    +0.007 C 
ATOM     20  C   UNL     1       4.209   1.065   2.783  0.00  0.00    -0.017 C 
ATOM     21  C   UNL     1       5.588   1.707   2.945  0.00  0.00    +0.007 C 
ENDBRANCH  18  20
ENDBRANCH  17  18
ENDBRANCH   8  17
ENDBRANCH   1   8
BRANCH   6  22
ATOM     22  C   UNL     1      -4.284   1.280   0.048  0.00  0.00    -0.048 C 
BRANCH  22  23
ATOM     23  C   UNL     1      -4.454  -0.216   0.113  0.00  0.00    -0.090 C 
ATOM     24  C   UNL     1      -4.718  -0.747   1.263  0.00  0.00    -0.029 C 
ATOM     25  C   UNL     1      -4.929  -2.217   1.482  0.00  0.00    +0.035 C 
ATOM     26  C   UNL     1      -4.372  -3.010   0.298  0.00  0.00    +0.018 C 
ATOM     27  C   UNL     1      -4.912  -2.392  -0.997  0.00  0.00    +0.012 C 
ATOM     28  C   UNL     1      -4.302  -0.998  -1.159  0.00  0.00    +0.029 C 
BRANCH  26  29
ATOM     29  C   UNL     1      -4.815  -4.447   0.398  0.00  0.00    -0.076 C 
ATOM     30  C   UNL     1      -3.924  -5.405   0.462  0.00  0.00    +0.007 C 
ATOM     31  C   UNL     1      -6.284  -4.782   0.423  0.00  0.00    +0.039 C 
ENDBRANCH  26  29
ENDBRANCH  22  23
ENDBRANCH   6  22
TORSDOF 7
