REMARK  Name = ZINC62979928
REMARK  3 active torsions:
REMARK  status: ('A' for Active; 'I' for Inactive)
REMARK    1  A    between atoms: C_4  and  C_21
REMARK    2  A    between atoms: C_6  and  N_10
REMARK    3  A    between atoms: C_13  and  N_16
REMARK                            x       y       z     vdW  Elec       q    Type
REMARK                         _______ _______ _______ _____ _____    ______ ____
ROOT
ATOM      1  N   UNL     1       1.044  -0.994   3.495  0.00  0.00    -0.300 NA
ATOM      2  C   UNL     1      -0.035  -0.289   4.234  0.00  0.00    +0.083 C 
ATOM      3  C   UNL     1      -0.409  -1.291   5.355  0.00  0.00    +0.001 C 
ATOM      4  C   UNL     1      -0.292  -2.661   4.648  0.00  0.00    -0.053 C 
ATOM      5  C   UNL     1       0.637  -2.415   3.446  0.00  0.00    +0.069 C 
ENDROOT
BRANCH   1  10
ATOM      6  C   UNL     1       0.046   1.583   0.051  0.00  0.00    +0.000 C 
ATOM      7  C   UNL     1       1.494   2.110   0.011  0.00  0.00    +0.001 C 
ATOM      8  C   UNL     1       2.447   1.305   0.915  0.00  0.00    +0.020 C 
ATOM      9  C   UNL     1       1.829   0.961   2.243  0.00  0.00    +0.109 C 
ATOM     10  C   UNL     1       1.201  -0.444   2.142  0.00  0.00    +0.073 C 
ATOM     11  C   UNL     1      -0.100  -0.425   1.489  0.00  0.00    +0.020 C 
ATOM     12  C   UNL     1      -0.020   0.079   0.033  0.00  0.00    +0.002 C 
BRANCH   9  13
ATOM     13  C   UNL     1       2.865   0.970   3.289  0.00  0.00    +0.067 C 
ATOM     14  N   UNL     1       3.664   0.977   4.096  0.00  0.00    -0.196 NA
ENDBRANCH   9  13
ENDBRANCH   1  10
BRANCH   4  15
ATOM     15  N   UNL     1       0.297  -3.655   5.556  0.00  0.00    +0.382 N 
ATOM     16  C   UNL     1      -0.613  -3.903   6.703  0.00  0.00    -0.078 C 
ATOM     17  C   UNL     1      -0.166  -5.295   7.216  0.00  0.00    -0.020 C 
ATOM     18  C   UNL     1       0.167  -6.053   5.910  0.00  0.00    -0.020 C 
ATOM     19  C   UNL     1       0.439  -4.955   4.866  0.00  0.00    -0.078 C 
ATOM     20  H   UNL     1       1.195  -3.335   5.886  0.00  0.00    -0.081 HD
ENDBRANCH   4  15
TORSDOF 3
