REMARK  Name = ZINC36610102
REMARK  10 active torsions:
REMARK  status: ('A' for Active; 'I' for Inactive)
REMARK    1  A    between atoms: C_1  and  O_2
REMARK    2  A    between atoms: O_2  and  C_3
REMARK    3  A    between atoms: C_12  and  C_13
REMARK    4  A    between atoms: C_13  and  C_15
REMARK    5  A    between atoms: C_13  and  N_24
REMARK    6  A    between atoms: N_17  and  C_18
REMARK    7  A    between atoms: N_24  and  C_25
REMARK    8  A    between atoms: C_31  and  C_33
REMARK    9  A    between atoms: C_34  and  O_40
REMARK   10  A    between atoms: C_38  and  O_39
REMARK                            x       y       z     vdW  Elec       q    Type
REMARK                         _______ _______ _______ _____ _____    ______ ____
ROOT
ATOM      1  C   UNL     1      -0.149  -3.127  -0.184  0.00  0.00    +0.201 C 
ENDROOT
BRANCH   1  11
ATOM      2  C   UNL     1       0.925  -1.154  -1.260  0.00  0.00    +0.126 A 
ATOM      3  C   UNL     1       1.621  -0.538  -2.306  0.00  0.00    +0.046 A 
ATOM      4  C   UNL     1       1.984  -1.240  -3.412  0.00  0.00    +0.012 A 
ATOM      5  C   UNL     1       1.657  -2.604  -3.511  0.00  0.00    -0.017 A 
ATOM      6  C   UNL     1       2.017  -3.359  -4.640  0.00  0.00    +0.008 A 
ATOM      7  C   UNL     1       1.684  -4.678  -4.703  0.00  0.00    +0.001 A 
ATOM      8  C   UNL     1       0.991  -5.293  -3.663  0.00  0.00    +0.001 A 
ATOM      9  C   UNL     1       0.626  -4.594  -2.554  0.00  0.00    +0.009 A 
ATOM     10  C   UNL     1       0.952  -3.230  -2.453  0.00  0.00    -0.009 A 
ATOM     11  C   UNL     1       0.596  -2.478  -1.321  0.00  0.00    +0.031 A 
BRANCH   2  13
ATOM     12  C   UNL     1       0.908   0.964  -0.180  0.00  0.00    +0.277 C 
ATOM     13  O   UNL     1       0.576  -0.426  -0.167  0.00  0.00    -0.495 OA
ENDBRANCH   2  13
ENDBRANCH   1  11
BRANCH   1  14
ATOM     14  C   UNL     1       0.646  -2.977   1.088  0.00  0.00    +0.239 C 
ATOM     15  O   UNL     1       0.170  -2.388   2.035  0.00  0.00    -0.273 OA
ATOM     16  N   UNL     1       1.887  -3.497   1.172  0.00  0.00    -0.311 N 
ATOM     17  H   UNL     1       2.268  -3.968   0.414  0.00  0.00    +0.149 HD
BRANCH  16  18
ATOM     18  C   UNL     1       2.660  -3.351   2.408  0.00  0.00    +0.073 C 
ATOM     19  C   UNL     1       3.384  -2.004   2.401  0.00  0.00    +0.022 C 
ATOM     20  C   UNL     1       4.191  -1.851   3.691  0.00  0.00    +0.002 C 
ATOM     21  C   UNL     1       5.218  -2.982   3.787  0.00  0.00    +0.000 C 
ATOM     22  C   UNL     1       4.494  -4.330   3.794  0.00  0.00    +0.002 C 
ATOM     23  C   UNL     1       3.686  -4.482   2.503  0.00  0.00    +0.022 C 
ENDBRANCH  16  18
ENDBRANCH   1  14
BRANCH   1  24
ATOM     24  N   UNL     1      -1.454  -2.481  -0.022  0.00  0.00    -0.251 N 
ATOM     25  C   UNL     1      -2.321  -2.934   0.904  0.00  0.00    +0.259 C 
ATOM     26  O   UNL     1      -1.987  -3.821   1.667  0.00  0.00    -0.269 OA
BRANCH  24  27
ATOM     27  C   UNL     1      -1.800  -1.393  -0.831  0.00  0.00    +0.038 A 
ATOM     28  C   UNL     1      -2.014  -1.576  -2.191  0.00  0.00    +0.023 A 
ATOM     29  C   UNL     1      -2.356  -0.500  -2.986  0.00  0.00    +0.002 A 
ATOM     30  C   UNL     1      -2.485   0.759  -2.429  0.00  0.00    +0.000 A 
ATOM     31  C   UNL     1      -2.272   0.946  -1.075  0.00  0.00    +0.002 A 
ATOM     32  C   UNL     1      -1.936  -0.128  -0.274  0.00  0.00    +0.023 A 
ENDBRANCH  24  27
BRANCH  25  33
ATOM     33  C   UNL     1      -3.672  -2.357   0.993  0.00  0.00    +0.120 A 
ATOM     34  C   UNL     1      -4.679  -2.777   0.111  0.00  0.00    +0.133 A 
ATOM     35  C   UNL     1      -5.947  -2.228   0.204  0.00  0.00    +0.046 A 
ATOM     36  C   UNL     1      -6.223  -1.269   1.161  0.00  0.00    +0.007 A 
ATOM     37  C   UNL     1      -5.238  -0.848   2.035  0.00  0.00    +0.046 A 
ATOM     38  C   UNL     1      -3.964  -1.388   1.964  0.00  0.00    +0.133 A 
BRANCH  38  39
ATOM     39  O   UNL     1      -3.001  -0.977   2.827  0.00  0.00    -0.506 OA
ATOM     40  H   UNL     1      -2.544  -0.170   2.551  0.00  0.00    +0.292 HD
ENDBRANCH  38  39
BRANCH  34  41
ATOM     41  O   UNL     1      -4.411  -3.718  -0.829  0.00  0.00    -0.506 OA
ATOM     42  H   UNL     1      -4.567  -4.625  -0.534  0.00  0.00    +0.292 HD
ENDBRANCH  34  41
ENDBRANCH  25  33
ENDBRANCH   1  24
TORSDOF 9
