REMARK  Name = ZINC20726743
REMARK  9 active torsions:
REMARK  status: ('A' for Active; 'I' for Inactive)
REMARK    1  A    between atoms: C_1  and  C_2
REMARK    2  A    between atoms: C_2  and  C_3
REMARK    3  A    between atoms: N_9  and  C_10
REMARK    4  A    between atoms: C_10  and  C_11
REMARK    5  A    between atoms: C_11  and  C_12
REMARK    6  A    between atoms: C_12  and  N_13
REMARK    7  A    between atoms: C_14  and  C_16
REMARK    8  A    between atoms: C_16  and  N_17
REMARK    9  A    between atoms: C_26  and  C_27
REMARK                            x       y       z     vdW  Elec       q    Type
REMARK                         _______ _______ _______ _____ _____    ______ ____
ROOT
ATOM      1  N   UNL     1      -2.118   2.061   4.811  0.00  0.00    -0.257 N 
ATOM      2  C   UNL     1      -2.442   0.762   5.180  0.00  0.00    +0.051 A 
ATOM      3  C   UNL     1      -2.709  -0.168   4.176  0.00  0.00    +0.024 A 
ATOM      4  C   UNL     1      -3.034  -1.469   4.497  0.00  0.00    +0.002 A 
ATOM      5  C   UNL     1      -3.100  -1.871   5.819  0.00  0.00    +0.001 A 
ATOM      6  C   UNL     1      -2.829  -0.968   6.822  0.00  0.00    +0.017 A 
ATOM      7  C   UNL     1      -2.508   0.343   6.508  0.00  0.00    +0.034 A 
ATOM      8  S   UNL     1      -2.181   1.505   7.800  0.00  0.00    -0.082 S 
ATOM      9  C   UNL     1      -1.135   2.670   6.966  0.00  0.00    +0.076 C 
ATOM     10  C   UNL     1      -0.079   3.254   7.582  0.00  0.00    +0.028 C 
ATOM     11  C   UNL     1      -1.483   2.968   5.559  0.00  0.00    +0.258 C 
ATOM     12  O   UNL     1      -1.188   4.046   5.079  0.00  0.00    -0.269 OA
ENDROOT
BRANCH  10  13
ATOM     13  C   UNL     1       0.143   3.042   9.021  0.00  0.00    -0.024 A 
ATOM     14  C   UNL     1      -0.946   2.874   9.883  0.00  0.00    +0.008 A 
ATOM     15  C   UNL     1      -0.730   2.670  11.229  0.00  0.00    +0.001 A 
ATOM     16  C   UNL     1       0.560   2.642  11.730  0.00  0.00    +0.000 A 
ATOM     17  C   UNL     1       1.643   2.813  10.885  0.00  0.00    +0.001 A 
ATOM     18  C   UNL     1       1.444   3.012   9.535  0.00  0.00    +0.008 A 
ENDBRANCH  10  13
BRANCH   1  19
ATOM     19  C   UNL     1      -2.518   2.482   3.466  0.00  0.00    +0.209 C 
BRANCH  19  21
ATOM     20  N   UNL     1      -1.555   2.479   1.187  0.00  0.00    -0.314 N 
ATOM     21  C   UNL     1      -1.409   2.176   2.493  0.00  0.00    +0.231 C 
ATOM     22  O   UNL     1      -0.385   1.657   2.884  0.00  0.00    -0.274 OA
ATOM     23  H   UNL     1      -2.484   2.949   0.833  0.00  0.00    +0.149 HD
BRANCH  20  24
ATOM     24  C   UNL     1      -0.477   2.181   0.241  0.00  0.00    +0.102 C 
BRANCH  24  25
ATOM     25  C   UNL     1      -0.895   2.620  -1.163  0.00  0.00    +0.000 C 
BRANCH  25  26
ATOM     26  C   UNL     1       0.231   2.309  -2.151  0.00  0.00    -0.077 C 
BRANCH  26  32
ATOM     27  C   UNL     1       0.971   2.696  -4.423  0.00  0.00    -0.069 C 
ATOM     28  C   UNL     1       0.489   3.000  -5.844  0.00  0.00    -0.015 C 
ATOM     29  C   UNL     1      -0.170   4.382  -5.870  0.00  0.00    -0.003 C 
ATOM     30  C   UNL     1      -1.325   4.407  -4.864  0.00  0.00    -0.019 C 
ATOM     31  C   UNL     1      -0.790   4.062  -3.472  0.00  0.00    -0.078 C 
ATOM     32  N   UNL     1      -0.170   2.731  -3.500  0.00  0.00    +0.382 N 
ATOM     33  H   UNL     1      -0.922   2.019  -3.869  0.00  0.00    -0.081 HD
BRANCH  27  35
ATOM     34  C   UNL     1       2.890   1.315  -5.230  0.00  0.00    +0.002 C 
ATOM     35  C   UNL     1       1.612   1.308  -4.389  0.00  0.00    -0.019 C 
ENDBRANCH  27  35
ENDBRANCH  26  32
ENDBRANCH  25  26
ENDBRANCH  24  25
ENDBRANCH  20  24
ENDBRANCH  19  21
ENDBRANCH   1  19
TORSDOF 8
