REMARK  Name = ZINC38875609
REMARK  7 active torsions:
REMARK  status: ('A' for Active; 'I' for Inactive)
REMARK    1  A    between atoms: C_1  and  C_2
REMARK    2  A    between atoms: C_2  and  O_3
REMARK    3  A    between atoms: O_3  and  C_4
REMARK    4  A    between atoms: N_12  and  C_13
REMARK    5  A    between atoms: C_13  and  C_15
REMARK    6  A    between atoms: N_25  and  C_26
REMARK    7  A    between atoms: C_26  and  C_27
REMARK                            x       y       z     vdW  Elec       q    Type
REMARK                         _______ _______ _______ _____ _____    ______ ____
ROOT
ATOM      1  C   UNL     1      -1.125  -2.339   0.776  0.00  0.00    +0.122 A 
ATOM      2  C   UNL     1      -0.166  -3.298   0.475  0.00  0.00    +0.048 A 
ATOM      3  C   UNL     1      -0.526  -4.583   0.141  0.00  0.00    +0.030 A 
ATOM      4  C   UNL     1      -1.876  -4.959   0.096  0.00  0.00    +0.059 A 
ATOM      5  C   UNL     1      -2.824  -3.973   0.404  0.00  0.00    +0.042 A 
ATOM      6  C   UNL     1      -2.468  -2.690   0.744  0.00  0.00    +0.062 A 
ATOM      7  S   UNL     1      -4.367  -4.832   0.237  0.00  0.00    -0.052 S 
ATOM      8  C   UNL     1      -3.778  -6.344  -0.199  0.00  0.00    +0.168 A 
ATOM      9  N   UNL     1      -4.474  -7.444  -0.468  0.00  0.00    -0.152 NA
ATOM     10  N   UNL     1      -2.429  -6.189  -0.215  0.00  0.00    -0.310 N 
ENDROOT
BRANCH   9  11
ATOM     11  C   UNL     1      -3.841  -8.604  -0.668  0.00  0.00    +0.270 C 
ATOM     12  O   UNL     1      -3.508  -8.930  -1.794  0.00  0.00    -0.268 OA
BRANCH  11  13
ATOM     13  C   UNL     1      -3.545  -9.493   0.479  0.00  0.00    +0.041 A 
ATOM     14  C   UNL     1      -3.937  -9.114   1.774  0.00  0.00    +0.015 A 
ATOM     15  C   UNL     1      -3.677  -9.911   2.842  0.00  0.00    +0.030 A 
ATOM     16  C   UNL     1      -3.006 -11.135   2.660  0.00  0.00    +0.089 A 
ATOM     17  C   UNL     1      -2.606 -11.528   1.358  0.00  0.00    +0.090 A 
ATOM     18  C   UNL     1      -2.890 -10.692   0.266  0.00  0.00    +0.043 A 
ATOM     19  N   UNL     1      -1.968 -12.692   1.186  0.00  0.00    -0.252 NA
ATOM     20  C   UNL     1      -1.720 -13.458   2.223  0.00  0.00    +0.131 A 
ATOM     21  C   UNL     1      -2.115 -13.071   3.506  0.00  0.00    +0.131 A 
ATOM     22  N   UNL     1      -2.741 -11.933   3.700  0.00  0.00    -0.252 NA
ENDBRANCH  11  13
ENDBRANCH   9  11
BRANCH   1  23
ATOM     23  O   UNL     1      -0.753  -1.074   1.105  0.00  0.00    -0.492 OA
BRANCH  23  25
ATOM     24  C   UNL     1       0.871   0.670   1.506  0.00  0.00    +0.048 C 
ATOM     25  C   UNL     1       0.648  -0.792   1.116  0.00  0.00    +0.225 C 
ENDBRANCH  23  25
ENDBRANCH   1  23
BRANCH  10  26
ATOM     26  C   UNL     1      -1.563  -7.319  -0.559  0.00  0.00    +0.212 C 
BRANCH  26  27
ATOM     27  C   UNL     1      -1.446  -7.418  -2.023  0.00  0.00    -0.084 C 
ATOM     28  C   UNL     1      -1.352  -7.497  -3.191  0.00  0.00    +0.005 C 
ENDBRANCH  26  27
ENDBRANCH  10  26
TORSDOF 6
