REMARK  Name = ZINC21226481
REMARK  9 active torsions:
REMARK  status: ('A' for Active; 'I' for Inactive)
REMARK    1  A    between atoms: C_1  and  C_2
REMARK    2  A    between atoms: C_6  and  C_8
REMARK    3  A    between atoms: C_13  and  C_18
REMARK    4  A    between atoms: C_21  and  O_26
REMARK    5  A    between atoms: C_22  and  O_24
REMARK    6  A    between atoms: O_24  and  C_25
REMARK    7  A    between atoms: O_26  and  C_27
REMARK    8  A    between atoms: C_27  and  C_28
REMARK    9  A    between atoms: C_27  and  C_29
REMARK                            x       y       z     vdW  Elec       q    Type
REMARK                         _______ _______ _______ _____ _____    ______ ____
ROOT
ATOM      1  C   UNL     1      -1.286   1.767  -0.056  0.00  0.00    +0.136 C 
ATOM      2  C   UNL     1      -1.500   2.742  -1.181  0.00  0.00    +0.036 C 
ATOM      3  C   UNL     1      -0.587   3.092  -2.104  0.00  0.00    +0.017 C 
ATOM      4  C   UNL     1      -0.940   4.085  -3.199  0.00  0.00    +0.059 C 
ATOM      5  C   UNL     1      -1.949   5.104  -2.672  0.00  0.00    +0.032 C 
ATOM      6  C   UNL     1      -3.199   4.335  -2.228  0.00  0.00    +0.088 C 
ATOM      7  C   UNL     1      -2.794   3.312  -1.209  0.00  0.00    +0.163 C 
ATOM      8  O   UNL     1      -3.607   2.960  -0.377  0.00  0.00    -0.292 OA
ATOM      9  N   UNL     1       0.679   2.607  -2.161  0.00  0.00    -0.316 N 
ATOM     10  C   UNL     1       1.538   2.494  -1.074  0.00  0.00    +0.052 A 
ATOM     11  C   UNL     1       2.739   3.178  -1.007  0.00  0.00    +0.025 A 
ATOM     12  C   UNL     1       3.602   2.932   0.047  0.00  0.00    +0.002 A 
ATOM     13  C   UNL     1       3.266   2.013   1.024  0.00  0.00    +0.002 A 
ATOM     14  C   UNL     1       2.055   1.345   0.970  0.00  0.00    +0.025 A 
ATOM     15  C   UNL     1       1.181   1.602  -0.074  0.00  0.00    +0.049 A 
ATOM     16  N   UNL     1      -0.069   0.989  -0.147  0.00  0.00    -0.331 N 
ATOM     17  H   UNL     1       1.095   2.266  -3.121  0.00  0.00    +0.152 HD
ATOM     18  H   UNL     1      -0.121  -0.102  -0.276  0.00  0.00    +0.147 HD
ENDROOT
BRANCH   1  24
ATOM     19  C   UNL     1       0.894   5.110   2.964  0.00  0.00    +0.044 C 
ATOM     20  C   UNL     1      -0.222   4.136   2.684  0.00  0.00    -0.050 A 
ATOM     21  C   UNL     1      -1.226   3.949   3.616  0.00  0.00    +0.003 A 
ATOM     22  C   UNL     1      -2.249   3.056   3.360  0.00  0.00    +0.001 A 
ATOM     23  C   UNL     1      -2.271   2.353   2.169  0.00  0.00    +0.006 A 
ATOM     24  C   UNL     1      -1.265   2.536   1.240  0.00  0.00    -0.023 A 
ATOM     25  C   UNL     1      -0.241   3.430   1.496  0.00  0.00    +0.009 A 
ENDBRANCH   1  24
BRANCH   5  26
ATOM     26  C   UNL     1      -2.309   6.078  -3.765  0.00  0.00    -0.040 A 
ATOM     27  C   UNL     1      -2.882   5.619  -4.936  0.00  0.00    +0.008 A 
ATOM     28  C   UNL     1      -3.214   6.509  -5.941  0.00  0.00    +0.050 A 
ATOM     29  C   UNL     1      -2.972   7.863  -5.775  0.00  0.00    +0.162 A 
ATOM     30  C   UNL     1      -2.395   8.325  -4.596  0.00  0.00    +0.162 A 
ATOM     31  C   UNL     1      -2.070   7.428  -3.591  0.00  0.00    +0.053 A 
BRANCH  30  32
ATOM     32  O   UNL     1      -2.156   9.653  -4.428  0.00  0.00    -0.491 OA
ATOM     33  C   UNL     1      -1.561  10.054  -3.192  0.00  0.00    +0.277 C 
ENDBRANCH  30  32
BRANCH  29  34
ATOM     34  O   UNL     1      -3.298   8.740  -6.763  0.00  0.00    -0.486 OA
BRANCH  34  35
ATOM     35  C   UNL     1      -3.993   8.213  -7.894  0.00  0.00    +0.167 C 
ATOM     36  C   UNL     1      -4.800   9.328  -8.562  0.00  0.00    +0.051 C 
ATOM     37  C   UNL     1      -2.984   7.645  -8.894  0.00  0.00    +0.051 C 
ENDBRANCH  34  35
ENDBRANCH  29  34
ENDBRANCH   5  26
TORSDOF 5
