REMARK  Name = ZINC59404793
REMARK  2 active torsions:
REMARK  status: ('A' for Active; 'I' for Inactive)
REMARK    1  A    between atoms: C_8  and  C_10
REMARK    2  A    between atoms: C_11  and  C_12
REMARK                            x       y       z     vdW  Elec       q    Type
REMARK                         _______ _______ _______ _____ _____    ______ ____
ROOT
ATOM      1  C   UNL     1       2.979  -4.008  -0.047  0.00  0.00    +0.036 C 
ATOM      2  C   UNL     1       4.277  -4.371  -0.062  0.00  0.00    +0.014 C 
ENDROOT
BRANCH   2   3
ATOM      3  C   UNL     1       4.642  -5.796  -0.072  0.00  0.00    +0.020 A 
ATOM      4  C   UNL     1       3.646  -6.781  -0.073  0.00  0.00    +0.012 A 
ATOM      5  C   UNL     1       3.995  -8.114  -0.084  0.00  0.00    +0.004 A 
ATOM      6  C   UNL     1       5.329  -8.491  -0.093  0.00  0.00    +0.049 A 
ATOM      7  C   UNL     1       6.323  -7.526  -0.092  0.00  0.00    +0.162 A 
ATOM      8  C   UNL     1       5.987  -6.181  -0.087  0.00  0.00    +0.169 A 
ATOM      9  O   UNL     1       6.973  -5.240  -0.094  0.00  0.00    -0.488 OA
ATOM     10  C   UNL     1       7.766  -5.156   1.093  0.00  0.00    +0.232 C 
ATOM     11  C   UNL     1       8.893  -6.176   1.061  0.00  0.00    +0.082 C 
ATOM     12  C   UNL     1       8.379  -7.607   1.076  0.00  0.00    +0.232 C 
ATOM     13  O   UNL     1       7.637  -7.893  -0.102  0.00  0.00    -0.488 OA
ENDBRANCH   2   3
BRANCH   1  21
ATOM     14  C   UNL     1      -0.016   1.355   0.009  0.00  0.00    +0.002 A 
ATOM     15  C   UNL     1       1.155   2.101   0.002  0.00  0.00    +0.001 A 
ATOM     16  C   UNL     1       2.373   1.448  -0.013  0.00  0.00    +0.017 A 
ATOM     17  C   UNL     1       2.404   0.075  -0.020  0.00  0.00    +0.040 A 
ATOM     18  C   UNL     1       1.228  -0.713  -0.013  0.00  0.00    +0.079 A 
ATOM     19  C   UNL     1       0.002  -0.004   0.002  0.00  0.00    +0.029 A 
ATOM     20  N   UNL     1       1.415  -2.041  -0.022  0.00  0.00    -0.240 NA
ATOM     21  C   UNL     1       2.615  -2.588  -0.037  0.00  0.00    +0.102 A 
ATOM     22  S   UNL     1       3.685  -1.156  -0.039  0.00  0.00    -0.068 S 
ENDBRANCH   1  21
TORSDOF 2
