REMARK  Name = ZINC64604405
REMARK  9 active torsions:
REMARK  status: ('A' for Active; 'I' for Inactive)
REMARK    1  A    between atoms: C_1  and  C_2
REMARK    2  A    between atoms: C_6  and  S_12
REMARK    3  A    between atoms: C_10  and  C_11
REMARK    4  A    between atoms: S_12  and  C_13
REMARK    5  A    between atoms: C_13  and  C_14
REMARK    6  A    between atoms: C_16  and  C_19
REMARK    7  A    between atoms: C_19  and  C_20
REMARK    8  A    between atoms: C_20  and  C_21
REMARK    9  A    between atoms: N_23  and  C_24
REMARK                            x       y       z     vdW  Elec       q    Type
REMARK                         _______ _______ _______ _____ _____    ______ ____
ROOT
ATOM      1  C   UNL     1      -4.551  -7.788  -0.968  0.00  0.00    +0.182 A 
ATOM      2  N   UNL     1      -5.613  -7.472  -1.717  0.00  0.00    -0.195 NA
ATOM      3  C   UNL     1      -5.910  -8.461  -2.513  0.00  0.00    +0.228 A 
ATOM      4  O   UNL     1      -5.036  -9.451  -2.295  0.00  0.00    -0.338 OA
ATOM      5  N   UNL     1      -4.153  -8.987  -1.284  0.00  0.00    -0.060 NA
ENDROOT
BRANCH   1   6
ATOM      6  C   UNL     1      -3.914  -6.899   0.069  0.00  0.00    +0.152 C 
BRANCH   6   7
ATOM      7  S   UNL     1      -2.628  -5.885  -0.711  0.00  0.00    -0.107 S 
BRANCH   7  13
ATOM      8  C   UNL     1      -4.853  -4.023   5.884  0.00  0.00    +0.044 C 
ATOM      9  C   UNL     1      -3.938  -4.508   4.789  0.00  0.00    -0.045 A 
ATOM     10  C   UNL     1      -4.041  -3.951   3.566  0.00  0.00    +0.031 A 
ATOM     11  C   UNL     1      -3.159  -4.409   2.484  0.00  0.00    +0.061 A 
ATOM     12  N   UNL     1      -3.036  -4.063   1.235  0.00  0.00    -0.355 N 
ATOM     13  C   UNL     1      -1.969  -4.886   0.652  0.00  0.00    +0.236 C 
ATOM     14  N   UNL     1      -1.485  -5.760   1.729  0.00  0.00    -0.355 N 
ATOM     15  C   UNL     1      -2.177  -5.483   2.797  0.00  0.00    +0.061 A 
ATOM     16  C   UNL     1      -2.155  -6.015   4.166  0.00  0.00    +0.031 A 
ATOM     17  C   UNL     1      -3.007  -5.519   5.086  0.00  0.00    -0.045 A 
ATOM     18  C   UNL     1      -2.964  -6.075   6.486  0.00  0.00    +0.044 C 
ATOM     19  H   UNL     1      -3.555  -3.385   0.774  0.00  0.00    +0.162 HD
ATOM     20  H   UNL     1      -0.779  -6.421   1.658  0.00  0.00    +0.162 HD
ENDBRANCH   7  13
ENDBRANCH   6   7
ENDBRANCH   1   6
BRANCH   3  21
ATOM     21  C   UNL     1      -7.041  -8.485  -3.508  0.00  0.00    +0.108 C 
BRANCH  21  22
ATOM     22  C   UNL     1      -6.550  -7.944  -4.853  0.00  0.00    +0.105 C 
BRANCH  22  23
ATOM     23  C   UNL     1      -7.681  -7.968  -5.848  0.00  0.00    +0.218 C 
ATOM     24  O   UNL     1      -8.773  -8.378  -5.514  0.00  0.00    -0.275 OA
ATOM     25  N   UNL     1      -7.480  -7.535  -7.108  0.00  0.00    -0.281 N 
ATOM     26  H   UNL     1      -6.629  -7.139  -7.355  0.00  0.00    +0.155 HD
BRANCH  25  27
ATOM     27  C   UNL     1      -8.500  -7.655  -8.062  0.00  0.00    +0.105 A 
ATOM     28  C   UNL     1      -8.605  -8.810  -8.828  0.00  0.00    +0.147 A 
ATOM     29  C   UNL     1      -9.613  -8.925  -9.768  0.00  0.00    +0.040 A 
ATOM     30  C   UNL     1     -10.515  -7.893  -9.947  0.00  0.00    +0.006 A 
ATOM     31  C   UNL     1     -10.414  -6.742  -9.187  0.00  0.00    +0.040 A 
ATOM     32  C   UNL     1      -9.413  -6.622  -8.240  0.00  0.00    +0.147 A 
ATOM     33  F   UNL     1      -9.318  -5.500  -7.494  0.00  0.00    -0.203 F 
ATOM     34  F   UNL     1      -7.723  -9.819  -8.655  0.00  0.00    -0.203 F 
ENDBRANCH  25  27
ENDBRANCH  22  23
ENDBRANCH  21  22
ENDBRANCH   3  21
TORSDOF 7
