REMARK  Name = ZINC13064506
REMARK  15 active torsions:
REMARK  status: ('A' for Active; 'I' for Inactive)
REMARK    1  A    between atoms: C_1  and  C_2
REMARK    2  A    between atoms: C_2  and  C_3
REMARK    3  A    between atoms: C_3  and  C_5
REMARK    4  A    between atoms: C_3  and  N_75
REMARK    5  A    between atoms: N_9  and  C_10
REMARK    6  A    between atoms: C_10  and  C_11
REMARK    7  A    between atoms: C_14  and  O_17
REMARK    8  A    between atoms: O_17  and  C_18
REMARK    9  A    between atoms: C_19  and  C_20
REMARK   10  A    between atoms: C_19  and  N_75
REMARK   11  A    between atoms: C_24  and  O_34
REMARK   12  A    between atoms: C_25  and  O_32
REMARK   13  A    between atoms: O_32  and  C_33
REMARK   14  A    between atoms: O_34  and  C_35
REMARK   15  A    between atoms: C_36  and  N_75
REMARK                            x       y       z     vdW  Elec       q    Type
REMARK                         _______ _______ _______ _____ _____    ______ ____
ROOT
ATOM      1  N   UNL     1      -6.162   3.492  -0.873  0.00  0.00    +0.391 N 
ATOM      2  H   UNL     1      -5.303   4.045  -0.969  0.00  0.00    -0.080 HD
ENDROOT
BRANCH   1   3
ATOM      3  C   UNL     1      -6.139   2.394  -1.862  0.00  0.00    -0.067 C 
ATOM      4  C   UNL     1      -4.697   1.862  -1.995  0.00  0.00    -0.015 C 
ATOM      5  C   UNL     1      -4.546   1.548  -3.505  0.00  0.00    -0.002 C 
ATOM      6  C   UNL     1      -5.328   2.706  -4.174  0.00  0.00    -0.002 C 
ATOM      7  C   UNL     1      -6.540   2.930  -3.247  0.00  0.00    -0.015 C 
ENDBRANCH   1   3
BRANCH   1   8
ATOM      8  C   UNL     1      -7.327   4.368  -1.118  0.00  0.00    +0.003 C 
BRANCH   8   9
ATOM      9  C   UNL     1      -8.607   3.575  -1.059  0.00  0.00    +0.138 A 
ATOM     10  N   UNL     1      -8.826   2.495  -0.349  0.00  0.00    -0.115 NA
ATOM     11  N   UNL     1     -10.038   2.115  -0.567  0.00  0.00    -0.023 NA
ATOM     12  N   UNL     1     -10.595   2.920  -1.403  0.00  0.00    -0.044 NA
ATOM     13  N   UNL     1      -9.744   3.834  -1.730  0.00  0.00    -0.226 N 
BRANCH  13  14
ATOM     14  C   UNL     1      -9.974   4.944  -2.658  0.00  0.00    +0.182 C 
BRANCH  14  15
ATOM     15  C   UNL     1      -9.732   4.476  -4.070  0.00  0.00    -0.026 A 
ATOM     16  C   UNL     1      -8.508   4.703  -4.672  0.00  0.00    +0.009 A 
ATOM     17  C   UNL     1      -8.282   4.270  -5.965  0.00  0.00    +0.046 A 
ATOM     18  C   UNL     1      -9.289   3.618  -6.663  0.00  0.00    +0.120 A 
ATOM     19  C   UNL     1     -10.518   3.397  -6.058  0.00  0.00    +0.046 A 
ATOM     20  C   UNL     1     -10.737   3.827  -4.764  0.00  0.00    +0.009 A 
BRANCH  18  21
ATOM     21  O   UNL     1      -9.070   3.196  -7.936  0.00  0.00    -0.495 OA
ATOM     22  C   UNL     1      -7.781   3.458  -8.494  0.00  0.00    +0.277 C 
ENDBRANCH  18  21
ENDBRANCH  14  15
ENDBRANCH  13  14
ENDBRANCH   8   9
BRANCH   8  24
ATOM     23  C   UNL     1      -6.062   6.276  -0.116  0.00  0.00    +0.002 C 
ATOM     24  C   UNL     1      -7.358   5.465  -0.052  0.00  0.00    -0.011 C 
ENDBRANCH   8  24
ENDBRANCH   1   8
BRANCH   1  25
ATOM     25  C   UNL     1      -6.226   2.938   0.496  0.00  0.00    -0.036 C 
BRANCH  25  26
ATOM     26  C   UNL     1      -4.948   2.192   0.780  0.00  0.00    +0.001 A 
ATOM     27  C   UNL     1      -3.897   2.841   1.344  0.00  0.00    +0.017 A 
ATOM     28  C   UNL     1      -2.671   2.090   1.607  0.00  0.00    +0.002 A 
ATOM     29  C   UNL     1      -1.556   2.708   2.188  0.00  0.00    +0.059 A 
ATOM     30  C   UNL     1      -0.415   1.974   2.422  0.00  0.00    +0.162 A 
ATOM     31  C   UNL     1      -0.367   0.617   2.085  0.00  0.00    +0.163 A 
ATOM     32  C   UNL     1      -1.462  -0.003   1.511  0.00  0.00    +0.075 A 
ATOM     33  C   UNL     1      -2.619   0.725   1.262  0.00  0.00    +0.053 A 
ATOM     34  N   UNL     1      -3.724   0.124   0.696  0.00  0.00    -0.322 N 
ATOM     35  H   UNL     1      -3.689  -0.817   0.462  0.00  0.00    +0.169 HD
ATOM     36  C   UNL     1      -4.847   0.824   0.458  0.00  0.00    +0.251 A 
ATOM     37  O   UNL     1      -5.802   0.261  -0.049  0.00  0.00    -0.268 OA
BRANCH  31  38
ATOM     38  O   UNL     1       0.764  -0.097   2.322  0.00  0.00    -0.491 OA
ATOM     39  C   UNL     1       0.748  -1.478   1.953  0.00  0.00    +0.277 C 
ENDBRANCH  31  38
BRANCH  30  40
ATOM     40  O   UNL     1       0.671   2.570   2.986  0.00  0.00    -0.491 OA
ATOM     41  C   UNL     1       0.555   3.957   3.306  0.00  0.00    +0.277 C 
ENDBRANCH  30  40
ENDBRANCH  25  26
ENDBRANCH   1  25
TORSDOF 11
