REMARK  Name = ZINC46024065
REMARK  5 active torsions:
REMARK  status: ('A' for Active; 'I' for Inactive)
REMARK    1  A    between atoms: C_4  and  C_7
REMARK    2  A    between atoms: C_10  and  N_13
REMARK    3  A    between atoms: N_19  and  C_22
REMARK    4  A    between atoms: C_22  and  C_23
REMARK    5  A    between atoms: N_25  and  C_26
REMARK                            x       y       z     vdW  Elec       q    Type
REMARK                         _______ _______ _______ _____ _____    ______ ____
ROOT
ATOM      1  N   UNL     1       6.511  -3.926  -0.083  0.00  0.00    -0.296 N 
ATOM      2  C   UNL     1       6.625  -5.086  -0.759  0.00  0.00    +0.302 C 
ATOM      3  O   UNL     1       5.646  -5.586  -1.279  0.00  0.00    -0.253 OA
ATOM      4  N   UNL     1       7.825  -5.692  -0.860  0.00  0.00    -0.283 N 
ATOM      5  C   UNL     1       7.995  -6.896  -1.688  0.00  0.00    +0.124 C 
ATOM      6  C   UNL     1       9.187  -6.676  -2.626  0.00  0.00    +0.104 C 
ATOM      7  N   UNL     1      10.365  -6.294  -1.835  0.00  0.00    -0.291 NA
ATOM      8  C   UNL     1      10.150  -5.016  -1.142  0.00  0.00    +0.104 C 
ATOM      9  C   UNL     1       8.999  -5.165  -0.148  0.00  0.00    +0.124 C 
ATOM     10  H   UNL     1       7.275  -3.565   0.394  0.00  0.00    +0.151 HD
ENDROOT
BRANCH   1  14
ATOM     11  C   UNL     1       3.714  -0.705  -0.041  0.00  0.00    +0.019 C 
ATOM     12  C   UNL     1       3.817  -1.590   1.203  0.00  0.00    +0.010 C 
ATOM     13  C   UNL     1       5.152  -2.338   1.187  0.00  0.00    +0.023 C 
ATOM     14  C   UNL     1       5.233  -3.210  -0.068  0.00  0.00    +0.074 C 
ATOM     15  C   UNL     1       5.129  -2.325  -1.311  0.00  0.00    +0.023 C 
ATOM     16  C   UNL     1       3.794  -1.577  -1.295  0.00  0.00    +0.010 C 
BRANCH  11  20
ATOM     17  C   UNL     1      -0.013   1.383   0.002  0.00  0.00    +0.000 A 
ATOM     18  C   UNL     1       1.175   2.090  -0.004  0.00  0.00    +0.000 A 
ATOM     19  C   UNL     1       2.381   1.414  -0.018  0.00  0.00    +0.004 A 
ATOM     20  C   UNL     1       2.399   0.032  -0.025  0.00  0.00    -0.044 A 
ATOM     21  C   UNL     1       1.211  -0.675  -0.018  0.00  0.00    +0.004 A 
ATOM     22  C   UNL     1       0.005   0.001  -0.006  0.00  0.00    +0.000 A 
ENDBRANCH  11  20
ENDBRANCH   1  14
BRANCH   7  23
ATOM     23  C   UNL     1      11.569  -6.241  -2.675  0.00  0.00    +0.180 C 
BRANCH  23  24
ATOM     24  C   UNL     1      12.786  -6.091  -1.800  0.00  0.00    +0.227 C 
ATOM     25  O   UNL     1      12.663  -6.033  -0.595  0.00  0.00    -0.274 OA
ATOM     26  N   UNL     1      14.011  -6.020  -2.356  0.00  0.00    -0.311 N 
ATOM     27  H   UNL     1      14.110  -6.066  -3.320  0.00  0.00    +0.149 HD
BRANCH  26  28
ATOM     28  C   UNL     1      15.195  -5.874  -1.505  0.00  0.00    +0.073 C 
ATOM     29  C   UNL     1      16.262  -4.869  -1.945  0.00  0.00    +0.024 C 
ATOM     30  C   UNL     1      16.531  -6.370  -2.061  0.00  0.00    +0.024 C 
ENDBRANCH  26  28
ENDBRANCH  23  24
ENDBRANCH   7  23
TORSDOF 5
