REMARK  Name = ZINC67089414
REMARK  9 active torsions:
REMARK  status: ('A' for Active; 'I' for Inactive)
REMARK    1  A    between atoms: C_1  and  C_2
REMARK    2  A    between atoms: C_2  and  C_3
REMARK    3  A    between atoms: C_2  and  C_4
REMARK    4  A    between atoms: C_2  and  S_5
REMARK    5  A    between atoms: S_5  and  C_6
REMARK    6  A    between atoms: C_6  and  C_7
REMARK    7  A    between atoms: C_7  and  N_8
REMARK    8  A    between atoms: N_11  and  C_12
REMARK    9  A    between atoms: C_12  and  C_13
REMARK                            x       y       z     vdW  Elec       q    Type
REMARK                         _______ _______ _______ _____ _____    ______ ____
ROOT
ATOM      1  C   UNL     1       9.133   0.984  -4.005  0.00  0.00    -0.014 A 
ATOM      2  C   UNL     1       9.355   2.296  -4.405  0.00  0.00    +0.010 A 
ATOM      3  C   UNL     1      10.552   2.897  -4.061  0.00  0.00    +0.042 A 
ATOM      4  C   UNL     1      11.488   2.171  -3.330  0.00  0.00    +0.099 A 
ATOM      5  N   UNL     1      11.239   0.922  -2.968  0.00  0.00    -0.349 N 
ATOM      6  C   UNL     1      10.103   0.326  -3.277  0.00  0.00    +0.089 A 
ATOM      7  N   UNL     1      12.696   2.762  -2.978  0.00  0.00    -0.312 N 
ATOM      8  C   UNL     1      13.066   4.099  -3.471  0.00  0.00    +0.111 C 
ATOM      9  C   UNL     1      13.159   5.035  -2.267  0.00  0.00    +0.054 C 
ATOM     10  C   UNL     1      13.964   4.405  -1.160  0.00  0.00    -0.041 A 
ATOM     11  C   UNL     1      14.502   5.247  -0.195  0.00  0.00    +0.004 A 
ATOM     12  C   UNL     1      15.241   4.735   0.851  0.00  0.00    +0.000 A 
ATOM     13  C   UNL     1      15.449   3.371   0.942  0.00  0.00    +0.000 A 
ATOM     14  C   UNL     1      14.919   2.533  -0.017  0.00  0.00    +0.005 A 
ATOM     15  C   UNL     1      14.180   3.048  -1.073  0.00  0.00    -0.027 A 
ATOM     16  C   UNL     1      13.650   2.082  -2.096  0.00  0.00    +0.141 C 
ATOM     17  H   UNL     1      11.906   0.435  -2.459  0.00  0.00    +0.167 HD
ENDROOT
BRANCH   1  18
ATOM     18  C   UNL     1       7.843   0.289  -4.358  0.00  0.00    +0.142 C 
BRANCH  18  22
ATOM     19  N   UNL     1       4.715   0.210  -2.427  0.00  0.00    -0.299 N 
ATOM     20  C   UNL     1       5.622  -0.005  -3.400  0.00  0.00    +0.300 C 
ATOM     21  O   UNL     1       5.325  -0.677  -4.370  0.00  0.00    -0.253 OA
ATOM     22  N   UNL     1       6.857   0.524  -3.300  0.00  0.00    -0.295 N 
ATOM     23  H   UNL     1       4.951   0.746  -1.654  0.00  0.00    +0.150 HD
ATOM     24  H   UNL     1       7.094   1.060  -2.526  0.00  0.00    +0.151 HD
BRANCH  19  25
ATOM     25  C   UNL     1       3.372  -0.365  -2.536  0.00  0.00    +0.116 C 
BRANCH  25  26
ATOM     26  C   UNL     1       2.547   0.028  -1.309  0.00  0.00    +0.088 C 
BRANCH  26  27
ATOM     27  S   UNL     1       0.884  -0.684  -1.445  0.00  0.00    -0.153 S 
BRANCH  27  29
ATOM     28  C   UNL     1       0.017   1.397   0.104  0.00  0.00    +0.022 C 
ATOM     29  C   UNL     1       0.046  -0.132   0.066  0.00  0.00    +0.008 C 
ATOM     30  C   UNL     1       0.800  -0.658   1.289  0.00  0.00    +0.022 C 
ATOM     31  C   UNL     1      -1.386  -0.670   0.080  0.00  0.00    +0.022 C 
ENDBRANCH  27  29
ENDBRANCH  26  27
ENDBRANCH  25  26
ENDBRANCH  19  25
ENDBRANCH  18  22
ENDBRANCH   1  18
TORSDOF 6
