REMARK  Name = ZINC03214660
REMARK  2 active torsions:
REMARK  status: ('A' for Active; 'I' for Inactive)
REMARK    1  A    between atoms: C_5  and  C_7
REMARK    2  A    between atoms: N_8  and  N_9
REMARK                            x       y       z     vdW  Elec       q    Type
REMARK                         _______ _______ _______ _____ _____    ______ ____
ROOT
ATOM      1  N   UNL     1       3.595   5.956  -0.000  0.00  0.00    -0.226 N 
ATOM      2  C   UNL     1       3.571   7.327   0.007  0.00  0.00    +0.088 C 
ATOM      3  C   UNL     1       2.404   9.412   0.031  0.00  0.00    +0.113 C 
ATOM      4  C   UNL     1       2.808   9.928  -1.351  0.00  0.00    +0.021 C 
ATOM      5  C   UNL     1       4.318  10.069  -1.452  0.00  0.00    +0.002 C 
ATOM      6  C   UNL     1       5.051   8.740  -1.379  0.00  0.00    +0.007 C 
ATOM      7  C   UNL     1       4.870   8.101   0.005  0.00  0.00    +0.071 C 
ATOM      8  H   UNL     1       4.443   5.486  -0.010  0.00  0.00    +0.176 HD
ATOM      9  N   UNL     1       2.388   7.901   0.020  0.00  0.00    -0.375 N 
ATOM     10  H   UNL     1       1.515   7.361   0.023  0.00  0.00    +0.161 HD
ENDROOT
BRANCH   1  12
ATOM     11  C   UNL     1       2.417   3.936   0.000  0.00  0.00    +0.139 C 
ATOM     12  N   UNL     1       2.394   5.234   0.007  0.00  0.00    -0.189 NA
BRANCH  11  17
ATOM     13  C   UNL     1      -0.013   1.076   0.008  0.00  0.00    +0.001 A 
ATOM     14  C   UNL     1      -1.221   1.750   0.017  0.00  0.00    +0.001 A 
ATOM     15  C   UNL     1      -1.250   3.133   0.030  0.00  0.00    +0.015 A 
ATOM     16  C   UNL     1      -0.071   3.850   0.022  0.00  0.00    +0.022 A 
ATOM     17  C   UNL     1       1.153   3.177   0.008  0.00  0.00    +0.008 A 
ATOM     18  C   UNL     1       1.173   1.780   0.000  0.00  0.00    +0.010 A 
ATOM     19  I   UNL     1      -0.117   5.945   0.033  0.00  0.00    -0.043 I 
ENDBRANCH  11  17
ENDBRANCH   1  12
TORSDOF 2
