REMARK  Name = ZINC04163850
REMARK  4 active torsions:
REMARK  status: ('A' for Active; 'I' for Inactive)
REMARK    1  A    between atoms: C_1  and  N_2
REMARK    2  A    between atoms: N_2  and  C_3
REMARK    3  A    between atoms: C_9  and  C_11
REMARK    4  A    between atoms: C_14  and  N_17
REMARK                            x       y       z     vdW  Elec       q    Type
REMARK                         _______ _______ _______ _____ _____    ______ ____
ROOT
ATOM      1  C   UNL     1      -1.277   7.378   0.341  0.00  0.00    +0.037 A 
ATOM      2  C   UNL     1      -0.079   8.092   0.431  0.00  0.00    +0.015 A 
ATOM      3  C   UNL     1      -0.104   9.461   0.578  0.00  0.00    +0.025 A 
ATOM      4  C   UNL     1      -1.320  10.132   0.647  0.00  0.00    +0.044 A 
ATOM      5  C   UNL     1      -2.514   9.425   0.563  0.00  0.00    +0.025 A 
ATOM      6  C   UNL     1      -2.497   8.056   0.411  0.00  0.00    +0.015 A 
ENDROOT
BRANCH   4   7
ATOM      7  N   UNL     1      -1.341  11.521   0.801  0.00  0.00    -0.210 N 
ATOM      8  C   UNL     1      -2.496  12.265   0.873  0.00  0.00    +0.231 C 
ATOM      9  O   UNL     1      -3.621  11.869   1.088  0.00  0.00    -0.274 OA
ATOM     10  C   UNL     1      -2.055  13.672   0.629  0.00  0.00    +0.095 C 
ATOM     11  C   UNL     1      -2.668  14.891   1.323  0.00  0.00    +0.025 C 
ATOM     12  C   UNL     1      -1.794  15.094   2.648  0.00  0.00    +0.016 C 
ATOM     13  C   UNL     1      -0.415  14.918   1.855  0.00  0.00    +0.025 C 
ATOM     14  C   UNL     1      -0.709  13.530   1.450  0.00  0.00    +0.095 C 
ATOM     15  C   UNL     1      -0.203  12.304   0.894  0.00  0.00    +0.231 C 
ATOM     16  O   UNL     1       0.936  12.025   0.584  0.00  0.00    -0.274 OA
ATOM     17  C   UNL     1      -0.690  15.939   0.753  0.00  0.00    -0.027 C 
ATOM     18  C   UNL     1      -1.979  15.993   0.468  0.00  0.00    -0.027 C 
ENDBRANCH   4   7
BRANCH   1  21
ATOM     19  C   UNL     1       0.950   5.883   1.216  0.00  0.00    +0.138 C 
ATOM     20  N   UNL     1      -0.161   5.210   0.538  0.00  0.00    -0.271 N 
ATOM     21  C   UNL     1      -1.254   5.911   0.178  0.00  0.00    +0.251 C 
ATOM     22  O   UNL     1      -2.222   5.336  -0.281  0.00  0.00    -0.270 OA
BRANCH  20  23
ATOM     23  C   UNL     1      -0.087   3.841   0.266  0.00  0.00    +0.036 A 
ATOM     24  C   UNL     1       0.966   3.087   0.767  0.00  0.00    +0.023 A 
ATOM     25  C   UNL     1       1.035   1.734   0.497  0.00  0.00    +0.002 A 
ATOM     26  C   UNL     1       0.057   1.131  -0.273  0.00  0.00    +0.000 A 
ATOM     27  C   UNL     1      -0.990   1.879  -0.778  0.00  0.00    +0.002 A 
ATOM     28  C   UNL     1      -1.068   3.231  -0.507  0.00  0.00    +0.023 A 
ENDBRANCH  20  23
ENDBRANCH   1  21
TORSDOF 3
