REMARK  Name = ZINC58915280
REMARK  13 active torsions:
REMARK  status: ('A' for Active; 'I' for Inactive)
REMARK    1  A    between atoms: C_1  and  C_2
REMARK    2  A    between atoms: C_7  and  N_8
REMARK    3  A    between atoms: N_8  and  C_9
REMARK    4  A    between atoms: N_8  and  S_30
REMARK    5  A    between atoms: C_9  and  C_10
REMARK    6  A    between atoms: N_12  and  N_13
REMARK    7  A    between atoms: C_14  and  C_15
REMARK    8  A    between atoms: C_17  and  C_29
REMARK    9  A    between atoms: N_18  and  C_21
REMARK   10  A    between atoms: C_19  and  C_20
REMARK   11  A    between atoms: C_23  and  C_28
REMARK   12  A    between atoms: C_25  and  C_27
REMARK   13  A    between atoms: S_30  and  C_33
REMARK                            x       y       z     vdW  Elec       q    Type
REMARK                         _______ _______ _______ _____ _____    ______ ____
ROOT
ATOM      1  C   UNL     1       1.417   1.865   2.850  0.00  0.00    +0.251 C 
ATOM      2  O   UNL     1       0.793   2.527   2.047  0.00  0.00    -0.272 OA
ATOM      3  N   UNL     1       2.541   2.362   3.404  0.00  0.00    -0.206 N 
ATOM      4  H   UNL     1       3.040   1.832   4.046  0.00  0.00    +0.177 HD
ENDROOT
BRANCH   3   5
ATOM      5  N   UNL     1       2.989   3.642   3.053  0.00  0.00    -0.188 NA
ATOM      6  C   UNL     1       4.072   4.120   3.587  0.00  0.00    +0.140 C 
BRANCH   6   7
ATOM      7  C   UNL     1       4.543   5.467   3.218  0.00  0.00    +0.016 A 
ATOM      8  C   UNL     1       5.740   6.147   3.719  0.00  0.00    +0.032 A 
ATOM      9  C   UNL     1       5.780   7.350   3.115  0.00  0.00    +0.022 A 
ATOM     10  N   UNL     1       4.703   7.462   2.283  0.00  0.00    -0.317 N 
ATOM     11  C   UNL     1       3.954   6.327   2.336  0.00  0.00    +0.030 A 
ATOM     12  C   UNL     1       2.691   6.066   1.556  0.00  0.00    +0.064 C 
ATOM     13  C   UNL     1       6.840   8.400   3.324  0.00  0.00    +0.064 C 
BRANCH  10  14
ATOM     14  C   UNL     1       4.415   8.580   1.488  0.00  0.00    +0.047 A 
ATOM     15  C   UNL     1       3.275   9.334   1.735  0.00  0.00    +0.029 A 
ATOM     16  C   UNL     1       2.994  10.434   0.950  0.00  0.00    -0.048 A 
ATOM     17  C   UNL     1       3.845  10.786  -0.081  0.00  0.00    +0.006 A 
ATOM     18  C   UNL     1       4.981  10.037  -0.329  0.00  0.00    -0.048 A 
ATOM     19  C   UNL     1       5.271   8.939   0.456  0.00  0.00    +0.029 A 
ATOM     20  C   UNL     1       5.906  10.424  -1.454  0.00  0.00    +0.044 C 
ATOM     21  C   UNL     1       1.757  11.253   1.217  0.00  0.00    +0.044 C 
ENDBRANCH  10  14
ENDBRANCH   6   7
ENDBRANCH   3   5
BRANCH   1  22
ATOM     22  C   UNL     1       0.936   0.488   3.227  0.00  0.00    +0.228 C 
BRANCH  22  23
ATOM     23  N   UNL     1      -0.215   0.128   2.394  0.00  0.00    -0.198 N 
BRANCH  23  30
ATOM     24  C   UNL     1      -0.256  -2.710   2.204  0.00  0.00    +0.046 C 
ATOM     25  C   UNL     1      -0.026  -1.833   1.000  0.00  0.00    -0.028 A 
ATOM     26  C   UNL     1       0.167  -2.402  -0.244  0.00  0.00    +0.005 A 
ATOM     27  C   UNL     1       0.378  -1.597  -1.348  0.00  0.00    +0.000 A 
ATOM     28  C   UNL     1       0.397  -0.221  -1.212  0.00  0.00    +0.002 A 
ATOM     29  C   UNL     1       0.204   0.354   0.028  0.00  0.00    +0.025 A 
ATOM     30  C   UNL     1      -0.014  -0.451   1.139  0.00  0.00    +0.054 A 
ENDBRANCH  23  30
BRANCH  23  31
ATOM     31  S   UNL     1      -1.752   0.407   2.941  0.00  0.00    +0.043 S 
ATOM     32  O   UNL     1      -1.647   1.577   3.740  0.00  0.00    -0.155 OA
ATOM     33  O   UNL     1      -2.560   0.399   1.772  0.00  0.00    -0.155 OA
ATOM     34  C   UNL     1      -2.145  -1.026   3.981  0.00  0.00    +0.218 C 
ENDBRANCH  23  31
ENDBRANCH  22  23
ENDBRANCH   1  22
TORSDOF 7
