REMARK  Name = ZINC02311558
REMARK  3 active torsions:
REMARK  status: ('A' for Active; 'I' for Inactive)
REMARK    1  A    between atoms: C_1  and  C_2
REMARK    2  A    between atoms: C_10  and  C_22
REMARK    3  A    between atoms: C_13  and  C_15
REMARK                            x       y       z     vdW  Elec       q    Type
REMARK                         _______ _______ _______ _____ _____    ______ ____
ROOT
ATOM      1  C   UNL     1      -0.018   1.503   0.010  0.00  0.00    +0.109 C 
ATOM      2  C   UNL     1       0.002  -0.004   0.002  0.00  0.00    +0.216 C 
ATOM      3  O   UNL     1       0.020  -0.616   1.049  0.00  0.00    -0.276 OA
ATOM      4  N   UNL     1       0.000  -0.672  -1.169  0.00  0.00    -0.253 N 
ATOM      5  C   UNL     1       0.019  -2.070  -1.177  0.00  0.00    +0.242 A 
ATOM      6  N   UNL     1       0.034  -2.849  -0.090  0.00  0.00    -0.176 NA
ATOM      7  C   UNL     1       0.052  -4.109  -0.451  0.00  0.00    +0.251 A 
ATOM      8  N   UNL     1       0.040  -4.146  -1.819  0.00  0.00    -0.220 N 
ATOM      9  N   UNL     1       0.019  -2.826  -2.255  0.00  0.00    -0.131 NA
ATOM     10  C   UNL     1       0.037  -5.399  -2.573  0.00  0.00    +0.147 C 
ATOM     11  C   UNL     1       0.760  -6.460  -1.734  0.00  0.00    +0.087 C 
ATOM     12  C   UNL     1       0.350  -6.378  -0.291  0.00  0.00    +0.055 C 
ATOM     13  N   UNL     1       0.057  -5.247   0.293  0.00  0.00    -0.215 NA
ATOM     14  H   UNL     1      -0.015  -0.182  -2.006  0.00  0.00    +0.158 HD
ENDROOT
BRANCH  12  15
ATOM     15  C   UNL     1       0.275  -7.619   0.495  0.00  0.00    -0.003 A 
ATOM     16  C   UNL     1       0.588  -8.846  -0.099  0.00  0.00    +0.011 A 
ATOM     17  C   UNL     1       0.517 -10.005   0.643  0.00  0.00    +0.020 A 
ATOM     18  C   UNL     1       0.136  -9.957   1.974  0.00  0.00    +0.041 A 
ATOM     19  C   UNL     1      -0.175  -8.745   2.569  0.00  0.00    +0.020 A 
ATOM     20  C   UNL     1      -0.103  -7.577   1.841  0.00  0.00    +0.011 A 
ATOM     21 CL   UNL     1       0.048 -11.422   2.901  0.00  0.00    -0.084 Cl
ENDBRANCH  12  15
BRANCH  10  22
ATOM     22  C   UNL     1       0.757  -5.207  -3.883  0.00  0.00    -0.023 A 
ATOM     23  C   UNL     1       2.086  -4.826  -3.892  0.00  0.00    +0.006 A 
ATOM     24  C   UNL     1       2.747  -4.649  -5.093  0.00  0.00    +0.000 A 
ATOM     25  C   UNL     1       2.079  -4.854  -6.286  0.00  0.00    +0.000 A 
ATOM     26  C   UNL     1       0.750  -5.237  -6.277  0.00  0.00    +0.000 A 
ATOM     27  C   UNL     1       0.091  -5.417  -5.076  0.00  0.00    +0.006 A 
ENDBRANCH  10  22
TORSDOF 2
