REMARK  Name = ZINC54620374
REMARK  6 active torsions:
REMARK  status: ('A' for Active; 'I' for Inactive)
REMARK    1  A    between atoms: C_1  and  C_2
REMARK    2  A    between atoms: C_8  and  C_13
REMARK    3  A    between atoms: C_9  and  O_12
REMARK    4  A    between atoms: C_13  and  C_15
REMARK    5  A    between atoms: C_13  and  N_21
REMARK    6  A    between atoms: N_21  and  C_22
REMARK                            x       y       z     vdW  Elec       q    Type
REMARK                         _______ _______ _______ _____ _____    ______ ____
ROOT
ATOM      1  C   UNL     1       0.086  -4.769   3.747  0.00  0.00    +0.153 C 
ENDROOT
BRANCH   1   9
ATOM      2  C   UNL     1       0.068   1.416  -0.132  0.00  0.00    +0.065 C 
ATOM      3  C   UNL     1       0.132  -0.089  -0.104  0.00  0.00    +0.039 A 
ATOM      4  C   UNL     1       0.241  -0.786  -1.306  0.00  0.00    +0.023 A 
ATOM      5  C   UNL     1       0.301  -2.150  -1.299  0.00  0.00    +0.012 A 
ATOM      6  C   UNL     1       0.248  -2.811  -0.057  0.00  0.00    +0.004 A 
ATOM      7  C   UNL     1       0.305  -4.212   0.028  0.00  0.00    +0.010 A 
ATOM      8  C   UNL     1       0.252  -4.817   1.247  0.00  0.00    +0.010 A 
ATOM      9  C   UNL     1       0.142  -4.066   2.415  0.00  0.00    +0.022 A 
ATOM     10  C   UNL     1       0.085  -2.702   2.371  0.00  0.00    +0.148 A 
ATOM     11  C   UNL     1       0.137  -2.041   1.126  0.00  0.00    +0.113 A 
ATOM     12  N   UNL     1       0.089  -0.708   1.050  0.00  0.00    -0.248 NA
BRANCH  10  13
ATOM     13  O   UNL     1      -0.022  -1.986   3.521  0.00  0.00    -0.504 OA
ATOM     14  H   UNL     1       0.827  -1.740   3.912  0.00  0.00    +0.292 HD
ENDBRANCH  10  13
ENDBRANCH   1   9
BRANCH   1  15
ATOM     15  C   UNL     1       1.477  -4.883   4.314  0.00  0.00    +0.066 A 
ATOM     16  C   UNL     1       1.741  -4.396   5.580  0.00  0.00    +0.025 A 
ATOM     17  C   UNL     1       3.025  -4.507   6.092  0.00  0.00    +0.003 A 
ATOM     18  C   UNL     1       3.999  -5.106   5.308  0.00  0.00    +0.020 A 
ATOM     19  C   UNL     1       3.661  -5.569   4.051  0.00  0.00    +0.111 A 
ATOM     20  N   UNL     1       2.428  -5.452   3.598  0.00  0.00    -0.258 NA
ENDBRANCH   1  15
BRANCH   1  21
ATOM     21  N   UNL     1      -0.481  -6.108   3.568  0.00  0.00    -0.331 N 
ATOM     22  H   UNL     1      -0.394  -6.562   2.715  0.00  0.00    +0.147 HD
BRANCH  21  23
ATOM     23  C   UNL     1      -1.147  -6.732   4.627  0.00  0.00    +0.048 A 
ATOM     24  C   UNL     1      -1.277  -6.082   5.847  0.00  0.00    +0.046 A 
ATOM     25  C   UNL     1      -1.936  -6.701   6.892  0.00  0.00    +0.061 A 
ATOM     26  C   UNL     1      -2.466  -7.970   6.724  0.00  0.00    +0.061 A 
ATOM     27  C   UNL     1      -2.337  -8.620   5.510  0.00  0.00    +0.043 A 
ATOM     28  C   UNL     1      -1.685  -8.003   4.459  0.00  0.00    +0.063 A 
ATOM     29 CL   UNL     1      -1.530  -8.817   2.934  0.00  0.00    -0.082 Cl
ATOM     30 CL   UNL     1      -3.292  -8.745   8.039  0.00  0.00    -0.082 Cl
ATOM     31 CL   UNL     1      -2.100  -5.888   8.417  0.00  0.00    -0.082 Cl
ENDBRANCH  21  23
ENDBRANCH   1  21
TORSDOF 5
