REMARK  Name = ZINC09939039
REMARK  6 active torsions:
REMARK  status: ('A' for Active; 'I' for Inactive)
REMARK    1  A    between atoms: C_1  and  C_2
REMARK    2  A    between atoms: C_4  and  C_30
REMARK    3  A    between atoms: C_8  and  C_29
REMARK    4  A    between atoms: C_19  and  C_21
REMARK    5  A    between atoms: C_21  and  S_22
REMARK    6  A    between atoms: S_22  and  C_23
REMARK                            x       y       z     vdW  Elec       q    Type
REMARK                         _______ _______ _______ _____ _____    ______ ____
ROOT
ATOM      1  C   UNL     1       0.344   7.308   9.222  0.00  0.00    +0.044 C 
ATOM      2  C   UNL     1      -0.116   8.037   7.986  0.00  0.00    -0.049 A 
ATOM      3  C   UNL     1      -0.314   9.416   8.036  0.00  0.00    +0.008 A 
ATOM      4  C   UNL     1      -0.729  10.107   6.938  0.00  0.00    -0.024 A 
ATOM      5  C   UNL     1      -0.961   9.423   5.736  0.00  0.00    +0.079 A 
ATOM      6  C   UNL     1      -0.759   8.019   5.686  0.00  0.00    +0.022 A 
ATOM      7  C   UNL     1      -0.332   7.340   6.836  0.00  0.00    +0.015 A 
ATOM      8  C   UNL     1      -0.998   7.352   4.470  0.00  0.00    +0.051 A 
ATOM      9  N   UNL     1      -1.398   8.060   3.434  0.00  0.00    -0.219 NA
ATOM     10  C   UNL     1      -1.578   9.376   3.517  0.00  0.00    +0.222 A 
ATOM     11  N   UNL     1      -1.365  10.055   4.627  0.00  0.00    -0.214 NA
ATOM     12  N   UNL     1      -2.000  10.062   2.388  0.00  0.00    -0.254 N 
ATOM     13  C   UNL     1      -2.224   9.384   1.216  0.00  0.00    +0.202 A 
ATOM     14  N   UNL     1      -2.638  10.069   0.116  0.00  0.00    -0.295 N 
ATOM     15  H   UNL     1      -2.773  11.028   0.162  0.00  0.00    +0.172 HD
ATOM     16  C   UNL     1      -2.860   9.408  -1.041  0.00  0.00    +0.253 A 
ATOM     17  O   UNL     1      -3.231  10.007  -2.037  0.00  0.00    -0.268 OA
ATOM     18  C   UNL     1      -2.650   8.018  -1.076  0.00  0.00    +0.094 A 
ATOM     19  C   UNL     1      -2.240   7.384   0.060  0.00  0.00    +0.060 A 
ATOM     20  N   UNL     1      -2.034   8.081   1.176  0.00  0.00    -0.220 NA
ATOM     21  C   UNL     1      -0.800   5.862   4.356  0.00  0.00    +0.066 C 
ATOM     22  C   UNL     1      -0.937  11.598   7.014  0.00  0.00    +0.046 C 
ATOM     23  H   UNL     1      -2.137  11.022   2.427  0.00  0.00    +0.158 HD
ENDROOT
BRANCH  19  24
ATOM     24  C   UNL     1      -2.012   5.894   0.051  0.00  0.00    +0.131 C 
BRANCH  24  25
ATOM     25  S   UNL     1      -0.230   5.555   0.033  0.00  0.00    -0.100 S 
BRANCH  25  26
ATOM     26  C   UNL     1      -0.132   3.796   0.023  0.00  0.00    +0.097 A 
ATOM     27  C   UNL     1       1.114   3.175   0.008  0.00  0.00    +0.035 A 
ATOM     28  C   UNL     1       1.177   1.794   0.001  0.00  0.00    +0.004 A 
ATOM     29  C   UNL     1      -0.013   1.076   0.008  0.00  0.00    +0.020 A 
ATOM     30  C   UNL     1      -1.213   1.757   0.017  0.00  0.00    +0.112 A 
ATOM     31  N   UNL     1      -1.243   3.076   0.030  0.00  0.00    -0.249 NA
ENDBRANCH  25  26
ENDBRANCH  24  25
ENDBRANCH  19  24
TORSDOF 3
