REMARK  Name = ZINC41514640
REMARK  12 active torsions:
REMARK  status: ('A' for Active; 'I' for Inactive)
REMARK    1  A    between atoms: C_1  and  C_2
REMARK    2  A    between atoms: C_2  and  N_3
REMARK    3  A    between atoms: C_5  and  C_14
REMARK    4  A    between atoms: C_10  and  O_12
REMARK    5  A    between atoms: O_12  and  C_13
REMARK    6  A    between atoms: C_19  and  C_36
REMARK    7  A    between atoms: C_21  and  O_35
REMARK    8  A    between atoms: C_22  and  C_25
REMARK    9  A    between atoms: C_25  and  N_26
REMARK   10  A    between atoms: N_26  and  C_27
REMARK   11  A    between atoms: N_26  and  C_28
REMARK   12  A    between atoms: C_28  and  C_29
REMARK                            x       y       z     vdW  Elec       q    Type
REMARK                         _______ _______ _______ _____ _____    ______ ____
ROOT
ATOM      1  C   UNL     1       0.760  -1.669  -4.652  0.00  0.00    +0.060 C 
ATOM      2  C   UNL     1      -0.516  -1.726  -5.127  0.00  0.00    +0.176 C 
ATOM      3  C   UNL     1      -0.898  -2.147  -6.428  0.00  0.00    +0.232 C 
ATOM      4  O   UNL     1      -0.167  -2.525  -7.330  0.00  0.00    -0.283 OA
ATOM      5  C   UNL     1      -2.366  -2.032  -6.456  0.00  0.00    +0.071 A 
ATOM      6  C   UNL     1      -3.333  -2.289  -7.428  0.00  0.00    -0.033 A 
ATOM      7  C   UNL     1      -4.653  -2.079  -7.148  0.00  0.00    +0.050 A 
ATOM      8  C   UNL     1      -5.037  -1.608  -5.895  0.00  0.00    +0.122 A 
ATOM      9  C   UNL     1      -4.089  -1.348  -4.919  0.00  0.00    +0.020 A 
ATOM     10  C   UNL     1      -2.743  -1.557  -5.189  0.00  0.00    +0.145 A 
ATOM     11  O   UNL     1      -1.633  -1.395  -4.437  0.00  0.00    -0.451 OA
ATOM     12  C   UNL     1      -2.921  -2.798  -8.786  0.00  0.00    +0.045 C 
ENDROOT
BRANCH   1  15
ATOM     13  N   UNL     1       0.688  -0.476  -1.203  0.00  0.00    -0.346 N 
ATOM     14  C   UNL     1       0.069  -0.822  -2.359  0.00  0.00    +0.094 A 
ATOM     15  C   UNL     1       1.010  -1.219  -3.284  0.00  0.00    +0.004 A 
ATOM     16  C   UNL     1       2.322  -1.100  -2.618  0.00  0.00    +0.011 A 
ATOM     17  C   UNL     1       2.056  -0.626  -1.323  0.00  0.00    +0.050 A 
ATOM     18  C   UNL     1       3.113  -0.406  -0.446  0.00  0.00    +0.030 A 
ATOM     19  C   UNL     1       4.407  -0.649  -0.851  0.00  0.00    +0.047 A 
ATOM     20  C   UNL     1       4.671  -1.115  -2.135  0.00  0.00    +0.121 A 
ATOM     21  C   UNL     1       3.632  -1.347  -3.017  0.00  0.00    +0.056 A 
BRANCH  13  23
ATOM     22  C   UNL     1      -0.019   1.526   0.010  0.00  0.00    +0.027 C 
ATOM     23  C   UNL     1       0.002  -0.004   0.002  0.00  0.00    +0.118 C 
ENDBRANCH  13  23
BRANCH  20  24
ATOM     24  O   UNL     1       5.954  -1.350  -2.521  0.00  0.00    -0.495 OA
ATOM     25  C   UNL     1       6.978  -1.098  -1.557  0.00  0.00    +0.277 C 
ENDBRANCH  20  24
ENDBRANCH   1  15
BRANCH   8  26
ATOM     26  O   UNL     1      -6.352  -1.402  -5.628  0.00  0.00    -0.506 OA
ATOM     27  H   UNL     1      -6.805  -2.173  -5.260  0.00  0.00    +0.292 HD
ENDBRANCH   8  26
BRANCH   9  28
ATOM     28  C   UNL     1      -4.518  -0.838  -3.567  0.00  0.00    -0.035 C 
BRANCH  28  29
ATOM     29  N   UNL     1      -4.769  -1.976  -2.672  0.00  0.00    +0.383 N 
ATOM     30  C   UNL     1      -5.910  -2.752  -3.175  0.00  0.00    -0.095 C 
ATOM     31  H   UNL     1      -3.950  -2.564  -2.639  0.00  0.00    -0.081 HD
BRANCH  29  32
ATOM     32  C   UNL     1      -5.070  -1.479  -1.323  0.00  0.00    -0.043 C 
BRANCH  32  33
ATOM     33  C   UNL     1      -5.207  -2.645  -0.378  0.00  0.00    -0.064 A 
ATOM     34  C   UNL     1      -6.439  -3.241  -0.189  0.00  0.00    +0.002 A 
ATOM     35  C   UNL     1      -6.565  -4.311   0.678  0.00  0.00    +0.000 A 
ATOM     36  C   UNL     1      -5.457  -4.784   1.356  0.00  0.00    +0.000 A 
ATOM     37  C   UNL     1      -4.224  -4.189   1.166  0.00  0.00    +0.000 A 
ATOM     38  C   UNL     1      -4.098  -3.122   0.296  0.00  0.00    +0.002 A 
ENDBRANCH  32  33
ENDBRANCH  29  32
ENDBRANCH  28  29
ENDBRANCH   9  28
TORSDOF 8
