REMARK  Name = ZINC44037857
REMARK  15 active torsions:
REMARK  status: ('A' for Active; 'I' for Inactive)
REMARK    1  A    between atoms: C_1  and  C_2
REMARK    2  A    between atoms: C_3  and  C_30
REMARK    3  A    between atoms: C_4  and  C_29
REMARK    4  A    between atoms: C_5  and  S_10
REMARK    5  A    between atoms: C_6  and  C_9
REMARK    6  A    between atoms: C_7  and  C_8
REMARK    7  A    between atoms: S_10  and  N_13
REMARK    8  A    between atoms: N_13  and  C_14
REMARK    9  A    between atoms: C_17  and  C_20
REMARK   10  A    between atoms: C_20  and  C_21
REMARK   11  A    between atoms: N_23  and  C_24
REMARK   12  A    between atoms: C_24  and  C_25
REMARK   13  A    between atoms: C_24  and  C_26
REMARK   14  A    between atoms: C_24  and  C_27
REMARK   15  A    between atoms: C_27  and  O_28
REMARK                            x       y       z     vdW  Elec       q    Type
REMARK                         _______ _______ _______ _____ _____    ______ ____
ROOT
ATOM      1  C   UNL     1       1.903  -5.960   0.283  0.00  0.00    +0.048 A 
ATOM      2  C   UNL     1       2.359  -4.770   0.834  0.00  0.00    +0.025 A 
ATOM      3  C   UNL     1       3.464  -4.773   1.662  0.00  0.00    +0.006 A 
ATOM      4  C   UNL     1       4.117  -5.959   1.943  0.00  0.00    -0.039 A 
ATOM      5  C   UNL     1       3.665  -7.146   1.396  0.00  0.00    +0.006 A 
ATOM      6  C   UNL     1       2.557  -7.151   0.572  0.00  0.00    +0.025 A 
ENDROOT
BRANCH   1   7
ATOM      7  N   UNL     1       0.785  -5.961  -0.554  0.00  0.00    -0.216 N 
ATOM      8  H   UNL     1       0.809  -6.444  -1.395  0.00  0.00    +0.174 HD
BRANCH   7   9
ATOM      9  S   UNL     1      -0.582  -5.138  -0.111  0.00  0.00    +0.073 S 
ATOM     10  O   UNL     1      -0.824  -5.456   1.253  0.00  0.00    -0.150 OA
ATOM     11  O   UNL     1      -1.545  -5.372  -1.130  0.00  0.00    -0.150 OA
BRANCH   9  16
ATOM     12  C   UNL     1       0.740   0.746  -0.304  0.00  0.00    +0.044 C 
ATOM     13  C   UNL     1       0.410  -0.724  -0.256  0.00  0.00    -0.044 A 
ATOM     14  C   UNL     1       0.418  -1.395   0.953  0.00  0.00    -0.043 A 
ATOM     15  C   UNL     1       0.115  -2.743   0.997  0.00  0.00    -0.020 A 
ATOM     16  C   UNL     1      -0.197  -3.420  -0.167  0.00  0.00    +0.115 A 
ATOM     17  C   UNL     1      -0.206  -2.748  -1.376  0.00  0.00    -0.020 A 
ATOM     18  C   UNL     1       0.093  -1.399  -1.419  0.00  0.00    -0.043 A 
ATOM     19  C   UNL     1       0.077  -0.666  -2.736  0.00  0.00    +0.044 C 
ATOM     20  C   UNL     1      -0.546  -3.486  -2.645  0.00  0.00    +0.046 C 
ATOM     21  C   UNL     1       0.125  -3.474   2.314  0.00  0.00    +0.046 C 
ATOM     22  C   UNL     1       0.758  -0.657   2.222  0.00  0.00    +0.044 C 
ENDBRANCH   9  16
ENDBRANCH   7   9
ENDBRANCH   1   7
BRANCH   4  23
ATOM     23  C   UNL     1       5.323  -5.958   2.846  0.00  0.00    +0.130 C 
BRANCH  23  24
ATOM     24  C   UNL     1       4.882  -6.155   4.273  0.00  0.00    +0.218 C 
ATOM     25  O   UNL     1       3.704  -6.284   4.532  0.00  0.00    -0.275 OA
ATOM     26  N   UNL     1       5.797  -6.189   5.263  0.00  0.00    -0.308 N 
ATOM     27  H   UNL     1       6.739  -6.086   5.056  0.00  0.00    +0.149 HD
BRANCH  26  28
ATOM     28  C   UNL     1       5.368  -6.380   6.650  0.00  0.00    +0.052 C 
ATOM     29  C   UNL     1       4.427  -5.244   7.055  0.00  0.00    +0.033 C 
ATOM     30  C   UNL     1       4.636  -7.718   6.778  0.00  0.00    +0.033 C 
BRANCH  28  31
ATOM     31  C   UNL     1       6.593  -6.380   7.567  0.00  0.00    +0.181 C 
BRANCH  31  32
ATOM     32  O   UNL     1       6.175  -6.566   8.921  0.00  0.00    -0.393 OA
ATOM     33  H   UNL     1       6.901  -6.576   9.559  0.00  0.00    +0.209 HD
ENDBRANCH  31  32
ENDBRANCH  28  31
ENDBRANCH  26  28
ENDBRANCH  23  24
ENDBRANCH   4  23
TORSDOF 8
