REMARK  Name = ZINC14067708
REMARK  5 active torsions:
REMARK  status: ('A' for Active; 'I' for Inactive)
REMARK    1  A    between atoms: C_1  and  N_2
REMARK    2  A    between atoms: N_5  and  S_8
REMARK    3  A    between atoms: S_8  and  C_11
REMARK    4  A    between atoms: C_15  and  C_17
REMARK    5  A    between atoms: C_27  and  C_28
REMARK                            x       y       z     vdW  Elec       q    Type
REMARK                         _______ _______ _______ _____ _____    ______ ____
ROOT
ATOM      1  C   UNL     1       3.850  -3.329  -0.245  0.00  0.00    +0.106 A 
ATOM      2  C   UNL     1       4.269  -2.752  -1.431  0.00  0.00    +0.028 A 
ATOM      3  C   UNL     1       5.373  -1.919  -1.450  0.00  0.00    +0.003 A 
ATOM      4  C   UNL     1       6.065  -1.658  -0.285  0.00  0.00    +0.013 A 
ATOM      5  C   UNL     1       5.648  -2.237   0.914  0.00  0.00    +0.039 A 
ATOM      6  C   UNL     1       4.530  -3.072   0.928  0.00  0.00    +0.041 A 
ENDROOT
BRANCH   5   7
ATOM      7  C   UNL     1       6.385  -1.963   2.167  0.00  0.00    +0.247 C 
ATOM      8  O   UNL     1       5.781  -1.623   3.165  0.00  0.00    -0.270 OA
ATOM      9  N   UNL     1       7.726  -2.090   2.201  0.00  0.00    -0.286 N 
ATOM     10  C   UNL     1       8.460  -1.910   3.462  0.00  0.00    +0.114 C 
ATOM     11  C   UNL     1       9.108  -3.252   3.839  0.00  0.00    +0.062 C 
ATOM     12  C   UNL     1       9.705  -3.857   2.610  0.00  0.00    -0.003 A 
ATOM     13  C   UNL     1       9.459  -3.529   1.312  0.00  0.00    -0.012 A 
ATOM     14  C   UNL     1      10.146  -4.257   0.342  0.00  0.00    +0.013 A 
ATOM     15  C   UNL     1      11.010  -5.230   0.712  0.00  0.00    +0.046 A 
ATOM     16  S   UNL     1      10.896  -5.166   2.494  0.00  0.00    -0.101 S 
ATOM     17  C   UNL     1       8.475  -2.415   0.979  0.00  0.00    +0.144 C 
BRANCH  17  18
ATOM     18  C   UNL     1       9.228  -1.200   0.504  0.00  0.00    +0.015 A 
ATOM     19  C   UNL     1       9.410  -0.749  -0.762  0.00  0.00    +0.013 A 
ATOM     20  C   UNL     1      10.146   0.403  -0.964  0.00  0.00    +0.008 A 
ATOM     21  C   UNL     1      10.665   1.048   0.109  0.00  0.00    +0.045 A 
ATOM     22  S   UNL     1      10.107   0.024   1.461  0.00  0.00    -0.099 S 
ENDBRANCH  17  18
ENDBRANCH   5   7
BRANCH   1  23
ATOM     23  S   UNL     1       2.442  -4.388  -0.232  0.00  0.00    +0.061 S 
ATOM     24  O   UNL     1       2.578  -5.231   0.905  0.00  0.00    -0.153 OA
ATOM     25  O   UNL     1       2.309  -4.903  -1.550  0.00  0.00    -0.153 OA
BRANCH  23  30
ATOM     26  C   UNL     1      -0.709   0.279   0.737  0.00  0.00    +0.105 C 
ATOM     27  N   UNL     1      -0.386  -1.136   0.512  0.00  0.00    -0.303 NA
ATOM     28  C   UNL     1       0.220  -1.335  -0.811  0.00  0.00    +0.101 C 
ATOM     29  C   UNL     1       0.374  -2.836  -1.078  0.00  0.00    +0.125 C 
ATOM     30  N   UNL     1       1.115  -3.436   0.041  0.00  0.00    -0.174 NA
ATOM     31  C   UNL     1       0.647  -3.167   1.409  0.00  0.00    +0.125 C 
ATOM     32  C   UNL     1       0.482  -1.653   1.579  0.00  0.00    +0.101 C 
ENDBRANCH  23  30
ENDBRANCH   1  23
TORSDOF 4
