REMARK  Name = ZINC63562682
REMARK  7 active torsions:
REMARK  status: ('A' for Active; 'I' for Inactive)
REMARK    1  A    between atoms: C_1  and  C_2
REMARK    2  A    between atoms: C_2  and  C_4
REMARK    3  A    between atoms: C_2  and  S_18
REMARK    4  A    between atoms: N_6  and  N_7
REMARK    5  A    between atoms: C_8  and  C_9
REMARK    6  A    between atoms: C_14  and  O_15
REMARK    7  A    between atoms: S_18  and  C_19
REMARK                            x       y       z     vdW  Elec       q    Type
REMARK                         _______ _______ _______ _____ _____    ______ ____
ROOT
ATOM      1  C   UNL     1       0.707  -0.490  -1.238  0.00  0.00    +0.245 C 
ATOM      2  O   UNL     1       0.066  -0.782  -2.225  0.00  0.00    -0.273 OA
ATOM      3  N   UNL     1       2.051  -0.601  -1.250  0.00  0.00    -0.206 N 
ATOM      4  H   UNL     1       2.563  -0.367  -0.460  0.00  0.00    +0.177 HD
ENDROOT
BRANCH   1   6
ATOM      5  C   UNL     1      -0.019   1.526   0.010  0.00  0.00    +0.029 C 
ATOM      6  C   UNL     1       0.002  -0.004   0.002  0.00  0.00    +0.134 C 
BRANCH   6   7
ATOM      7  S   UNL     1      -1.700  -0.632   0.015  0.00  0.00    -0.102 S 
BRANCH   7   8
ATOM      8  C   UNL     1      -2.354  -0.095   1.619  0.00  0.00    +0.236 C 
ATOM      9  N   UNL     1      -2.243   1.364   1.746  0.00  0.00    -0.355 N 
ATOM     10  C   UNL     1      -1.479   1.611   2.770  0.00  0.00    +0.061 A 
ATOM     11  C   UNL     1      -1.006   2.858   3.387  0.00  0.00    +0.027 A 
ATOM     12  C   UNL     1      -0.203   2.802   4.468  0.00  0.00    +0.002 A 
ATOM     13  C   UNL     1       0.211   1.587   5.044  0.00  0.00    +0.002 A 
ATOM     14  C   UNL     1      -0.165   0.388   4.558  0.00  0.00    +0.027 A 
ATOM     15  C   UNL     1      -1.041   0.325   3.379  0.00  0.00    +0.061 A 
ATOM     16  N   UNL     1      -1.551  -0.667   2.708  0.00  0.00    -0.355 N 
ATOM     17  H   UNL     1      -2.662   2.023   1.171  0.00  0.00    +0.162 HD
ATOM     18  H   UNL     1      -1.425  -1.610   2.893  0.00  0.00    +0.162 HD
ENDBRANCH   7   8
ENDBRANCH   6   7
ENDBRANCH   1   6
BRANCH   3  19
ATOM     19  N   UNL     1       2.706  -1.052  -2.402  0.00  0.00    -0.188 NA
ATOM     20  C   UNL     1       4.000  -1.159  -2.413  0.00  0.00    +0.142 C 
BRANCH  20  21
ATOM     21  C   UNL     1       4.690  -1.634  -3.626  0.00  0.00    +0.038 A 
ATOM     22  C   UNL     1       6.081  -1.755  -3.640  0.00  0.00    +0.033 A 
ATOM     23  C   UNL     1       6.721  -2.201  -4.778  0.00  0.00    +0.043 A 
ATOM     24  C   UNL     1       5.989  -2.530  -5.908  0.00  0.00    +0.039 A 
ATOM     25  C   UNL     1       4.611  -2.413  -5.906  0.00  0.00    +0.061 A 
ATOM     26  C   UNL     1       3.953  -1.972  -4.769  0.00  0.00    +0.139 A 
ATOM     27 BR   UNL     1       3.623  -2.863  -7.454  0.00  0.00    -0.046 Br
ATOM     28 CL   UNL     1       8.451  -2.352  -4.795  0.00  0.00    -0.083 Cl
BRANCH  26  29
ATOM     29  O   UNL     1       2.599  -1.863  -4.764  0.00  0.00    -0.505 OA
ATOM     30  H   UNL     1       2.273  -0.999  -5.051  0.00  0.00    +0.292 HD
ENDBRANCH  26  29
ENDBRANCH  20  21
ENDBRANCH   3  19
TORSDOF 6
