REMARK  Name = ZINC27019245
REMARK  7 active torsions:
REMARK  status: ('A' for Active; 'I' for Inactive)
REMARK    1  A    between atoms: C_4  and  C_7
REMARK    2  A    between atoms: C_7  and  C_8
REMARK    3  A    between atoms: C_8  and  N_9
REMARK    4  A    between atoms: C_10  and  C_21
REMARK    5  A    between atoms: N_14  and  C_15
REMARK    6  A    between atoms: C_24  and  S_27
REMARK    7  A    between atoms: S_27  and  N_30
REMARK                            x       y       z     vdW  Elec       q    Type
REMARK                         _______ _______ _______ _____ _____    ______ ____
ROOT
ATOM      1  N   UNL     1       1.357   3.381  -0.335  0.00  0.00    -0.320 N 
ATOM      2  C   UNL     1       2.648   3.834  -0.343  0.00  0.00    +0.058 A 
ATOM      3  C   UNL     1       3.663   2.958  -0.194  0.00  0.00    +0.075 A 
ATOM      4  S   UNL     1       2.796   1.407  -0.022  0.00  0.00    -0.059 S 
ATOM      5  C   UNL     1       1.131   2.035  -0.173  0.00  0.00    +0.152 A 
ATOM      6  N   UNL     1      -0.014   1.380  -0.133  0.00  0.00    -0.336 N 
ATOM      7  H   UNL     1      -0.960   1.915  -0.304  0.00  0.00    +0.168 HD
ENDROOT
BRANCH   6   8
ATOM      8  C   UNL     1      -0.025   0.036   0.121  0.00  0.00    +0.041 A 
ATOM      9  C   UNL     1       0.028  -0.878  -0.935  0.00  0.00    +0.025 A 
ATOM     10  C   UNL     1       0.023  -2.231  -0.671  0.00  0.00    +0.002 A 
ATOM     11  C   UNL     1      -0.047  -2.685   0.635  0.00  0.00    +0.000 A 
ATOM     12  C   UNL     1      -0.106  -1.786   1.685  0.00  0.00    +0.002 A 
ATOM     13  C   UNL     1      -0.095  -0.429   1.436  0.00  0.00    +0.025 A 
ENDBRANCH   6   8
BRANCH   2  14
ATOM     14  C   UNL     1       2.929   5.275  -0.516  0.00  0.00    -0.001 A 
ATOM     15  C   UNL     1       3.980   5.691  -1.335  0.00  0.00    +0.012 A 
ATOM     16  C   UNL     1       4.234   7.038  -1.495  0.00  0.00    +0.029 A 
ATOM     17  C   UNL     1       3.456   7.975  -0.838  0.00  0.00    +0.106 A 
ATOM     18  C   UNL     1       2.417   7.569  -0.020  0.00  0.00    +0.029 A 
ATOM     19  C   UNL     1       2.149   6.226   0.145  0.00  0.00    +0.012 A 
BRANCH  17  20
ATOM     20  S   UNL     1       3.792   9.692  -1.044  0.00  0.00    +0.061 S 
ATOM     21  O   UNL     1       4.467   9.828  -2.286  0.00  0.00    -0.153 OA
ATOM     22  O   UNL     1       2.582  10.380  -0.755  0.00  0.00    -0.153 OA
BRANCH  20  23
ATOM     23  N   UNL     1       4.874  10.124   0.133  0.00  0.00    -0.177 NA
ATOM     24  C   UNL     1       4.366  10.591   1.404  0.00  0.00    +0.109 C 
ATOM     25  C   UNL     1       4.162  12.120   1.358  0.00  0.00    +0.017 C 
ATOM     26  C   UNL     1       5.462  12.808   1.347  0.00  0.00    +0.001 C 
ATOM     27  C   UNL     1       6.324  12.504   0.126  0.00  0.00    +0.001 C 
ATOM     28  C   UNL     1       7.104  11.235   0.368  0.00  0.00    +0.017 C 
ATOM     29  C   UNL     1       6.317  10.022  -0.160  0.00  0.00    +0.109 C 
ENDBRANCH  20  23
ENDBRANCH  17  20
ENDBRANCH   2  14
BRANCH   1  30
ATOM     30  C   UNL     1       0.237   4.312  -0.496  0.00  0.00    +0.129 C 
BRANCH  30  31
ATOM     31  C   UNL     1      -0.868   3.645  -1.317  0.00  0.00    +0.057 C 
BRANCH  31  35
ATOM     32  C   UNL     1      -4.132   6.360  -1.786  0.00  0.00    +0.000 A 
ATOM     33  C   UNL     1      -3.110   6.341  -2.716  0.00  0.00    +0.000 A 
ATOM     34  C   UNL     1      -2.053   5.462  -2.564  0.00  0.00    +0.004 A 
ATOM     35  C   UNL     1      -2.019   4.603  -1.482  0.00  0.00    -0.046 A 
ATOM     36  C   UNL     1      -3.044   4.618  -0.555  0.00  0.00    +0.004 A 
ATOM     37  C   UNL     1      -4.098   5.500  -0.705  0.00  0.00    +0.000 A 
ENDBRANCH  31  35
ENDBRANCH  30  31
ENDBRANCH   1  30
TORSDOF 7
