REMARK  Name = ZINC23263569
REMARK  11 active torsions:
REMARK  status: ('A' for Active; 'I' for Inactive)
REMARK    1  A    between atoms: C_6  and  C_7
REMARK    2  A    between atoms: C_7  and  O_8
REMARK    3  A    between atoms: O_8  and  C_9
REMARK    4  A    between atoms: C_14  and  C_15
REMARK    5  A    between atoms: C_15  and  N_16
REMARK    6  A    between atoms: N_16  and  C_17
REMARK    7  A    between atoms: C_17  and  C_18
REMARK    8  A    between atoms: C_18  and  N_19
REMARK    9  A    between atoms: N_19  and  C_20
REMARK   10  A    between atoms: C_20  and  C_21
REMARK   11  A    between atoms: C_21  and  O_22
REMARK                            x       y       z     vdW  Elec       q    Type
REMARK                         _______ _______ _______ _____ _____    ______ ____
ROOT
ATOM      1  C   UNL     1      -2.875  -1.700  -1.504  0.00  0.00    +0.122 A 
ATOM      2  C   UNL     1      -3.594  -2.134  -0.400  0.00  0.00    +0.047 A 
ATOM      3  C   UNL     1      -4.772  -2.833  -0.575  0.00  0.00    +0.019 A 
ATOM      4  C   UNL     1      -5.235  -3.101  -1.851  0.00  0.00    +0.018 A 
ATOM      5  C   UNL     1      -4.520  -2.670  -2.953  0.00  0.00    +0.020 A 
ATOM      6  C   UNL     1      -3.344  -1.964  -2.782  0.00  0.00    -0.022 A 
ATOM      7 BR   UNL     1      -6.849  -4.059  -2.088  0.00  0.00    -0.050 Br
ENDROOT
BRANCH   1   8
ATOM      8  O   UNL     1      -1.715  -1.011  -1.334  0.00  0.00    -0.487 OA
BRANCH   8   9
ATOM      9  C   UNL     1      -1.293  -0.775   0.011  0.00  0.00    +0.264 C 
BRANCH   9  15
ATOM     10  C   UNL     1      -0.017   1.378   0.010  0.00  0.00    +0.008 A 
ATOM     11  C   UNL     1       1.171   2.086   0.002  0.00  0.00    +0.020 A 
ATOM     12  C   UNL     1       2.378   1.410  -0.013  0.00  0.00    +0.041 A 
ATOM     13  C   UNL     1       2.396   0.027  -0.021  0.00  0.00    +0.020 A 
ATOM     14  C   UNL     1       1.208  -0.679  -0.013  0.00  0.00    +0.008 A 
ATOM     15  C   UNL     1       0.002  -0.004   0.002  0.00  0.00    -0.010 A 
ATOM     16 CL   UNL     1       3.870   2.298  -0.023  0.00  0.00    -0.084 Cl
ENDBRANCH   9  15
ENDBRANCH   8   9
ENDBRANCH   1   8
BRANCH   6  17
ATOM     17  C   UNL     1      -2.569  -1.489  -3.984  0.00  0.00    -0.043 C 
BRANCH  17  18
ATOM     18  N   UNL     1      -1.453  -2.409  -4.242  0.00  0.00    +0.381 N 
ATOM     19  H   UNL     1      -0.845  -2.434  -3.438  0.00  0.00    -0.086 HD
ATOM     20  H   UNL     1      -1.815  -3.334  -4.420  0.00  0.00    -0.086 HD
BRANCH  18  21
ATOM     21  C   UNL     1      -0.697  -1.945  -5.413  0.00  0.00    -0.102 C 
BRANCH  21  22
ATOM     22  C   UNL     1       0.465  -2.904  -5.683  0.00  0.00    -0.102 C 
BRANCH  22  23
ATOM     23  N   UNL     1       1.220  -2.440  -6.854  0.00  0.00    +0.379 N 
ATOM     24  H   UNL     1       0.612  -2.414  -7.658  0.00  0.00    -0.086 HD
ATOM     25  H   UNL     1       1.582  -1.515  -6.676  0.00  0.00    -0.086 HD
BRANCH  23  26
ATOM     26  C   UNL     1       2.336  -3.360  -7.112  0.00  0.00    -0.055 C 
BRANCH  26  27
ATOM     27  C   UNL     1       3.123  -2.877  -8.332  0.00  0.00    +0.137 C 
BRANCH  27  28
ATOM     28  O   UNL     1       3.732  -1.618  -8.038  0.00  0.00    -0.397 OA
ATOM     29  H   UNL     1       4.249  -1.251  -8.769  0.00  0.00    +0.209 HD
ENDBRANCH  27  28
ENDBRANCH  26  27
ENDBRANCH  23  26
ENDBRANCH  22  23
ENDBRANCH  21  22
ENDBRANCH  18  21
ENDBRANCH  17  18
ENDBRANCH   6  17
TORSDOF 11
