REMARK  Name = ZINC17197165
REMARK  2 active torsions:
REMARK  status: ('A' for Active; 'I' for Inactive)
REMARK    1  A    between atoms: C_4  and  N_7
REMARK    2  A    between atoms: C_10  and  C_17
REMARK                            x       y       z     vdW  Elec       q    Type
REMARK                         _______ _______ _______ _____ _____    ______ ____
ROOT
ATOM      1  N   UNL     1       3.623  -0.652  -0.037  0.00  0.00    -0.229 N 
ATOM      2  C   UNL     1       3.640  -1.996   0.051  0.00  0.00    +0.267 A 
ATOM      3  O   UNL     1       2.596  -2.619   0.146  0.00  0.00    -0.267 OA
ATOM      4  C   UNL     1       4.870  -2.677   0.034  0.00  0.00    +0.073 A 
ATOM      5  C   UNL     1       6.024  -1.958  -0.073  0.00  0.00    +0.260 A 
ATOM      6  N   UNL     1       5.961  -0.590  -0.161  0.00  0.00    -0.274 N 
ATOM      7  H   UNL     1       6.779  -0.074  -0.237  0.00  0.00    +0.173 HD
ATOM      8  C   UNL     1       4.772   0.040  -0.147  0.00  0.00    +0.337 A 
ATOM      9  O   UNL     1       4.736   1.252  -0.232  0.00  0.00    -0.246 OA
ATOM     10  O   UNL     1       7.218  -2.587  -0.091  0.00  0.00    -0.267 OA
ENDROOT
BRANCH   4  11
ATOM     11  C   UNL     1       4.913  -4.180   0.133  0.00  0.00    +0.018 C 
ATOM     12  C   UNL     1       4.254  -4.787  -1.083  0.00  0.00    +0.011 A 
ATOM     13  C   UNL     1       3.412  -5.844  -1.012  0.00  0.00    -0.022 A 
ATOM     14  C   UNL     1       2.981  -6.139  -2.359  0.00  0.00    +0.003 A 
ATOM     15  C   UNL     1       2.123  -7.105  -2.895  0.00  0.00    +0.010 A 
ATOM     16  C   UNL     1       1.941  -7.089  -4.255  0.00  0.00    +0.001 A 
ATOM     17  C   UNL     1       2.572  -6.164  -5.072  0.00  0.00    +0.002 A 
ATOM     18  C   UNL     1       3.426  -5.198  -4.570  0.00  0.00    +0.026 A 
ATOM     19  C   UNL     1       3.630  -5.189  -3.192  0.00  0.00    +0.047 A 
ATOM     20  N   UNL     1       4.390  -4.391  -2.385  0.00  0.00    -0.359 N 
ATOM     21  H   UNL     1       4.943  -3.655  -2.690  0.00  0.00    +0.166 HD
ATOM     22  C   UNL     1       3.051  -6.527   0.283  0.00  0.00    +0.018 C 
ATOM     23  C   UNL     1       4.064  -6.082   1.347  0.00  0.00    -0.076 C 
ATOM     24  N   UNL     1       4.185  -4.617   1.334  0.00  0.00    +0.388 N 
ATOM     25  H   UNL     1       4.683  -4.312   2.157  0.00  0.00    -0.084 HD
ATOM     26  H   UNL     1       3.262  -4.208   1.333  0.00  0.00    -0.084 HD
ENDBRANCH   4  11
BRANCH   1  30
ATOM     27  C   UNL     1      -0.017   1.377   0.011  0.00  0.00    +0.000 A 
ATOM     28  C   UNL     1       0.524   0.960  -1.191  0.00  0.00    +0.002 A 
ATOM     29  C   UNL     1       1.730   0.287  -1.210  0.00  0.00    +0.026 A 
ATOM     30  C   UNL     1       2.399   0.031  -0.021  0.00  0.00    +0.054 A 
ATOM     31  C   UNL     1       1.854   0.452   1.184  0.00  0.00    +0.026 A 
ATOM     32  C   UNL     1       0.647   1.124   1.197  0.00  0.00    +0.002 A 
ENDBRANCH   1  30
TORSDOF 2
