REMARK  Name = ZINC20233559
REMARK  7 active torsions:
REMARK  status: ('A' for Active; 'I' for Inactive)
REMARK    1  A    between atoms: C_4  and  C_7
REMARK    2  A    between atoms: C_7  and  C_8
REMARK    3  A    between atoms: C_8  and  N_9
REMARK    4  A    between atoms: C_15  and  C_18
REMARK    5  A    between atoms: C_15  and  C_26
REMARK    6  A    between atoms: C_18  and  C_19
REMARK    7  A    between atoms: C_26  and  O_27
REMARK                            x       y       z     vdW  Elec       q    Type
REMARK                         _______ _______ _______ _____ _____    ______ ____
ROOT
ATOM      1  N   UNL     1       2.733   2.767   4.437  0.00  0.00    -0.299 N 
ATOM      2  C   UNL     1       2.212   3.451   3.399  0.00  0.00    +0.302 C 
ATOM      3  O   UNL     1       2.387   4.652   3.314  0.00  0.00    -0.253 OA
ATOM      4  N   UNL     1       1.498   2.805   2.457  0.00  0.00    -0.286 N 
ATOM      5  C   UNL     1       1.371   1.342   2.485  0.00  0.00    +0.110 C 
ATOM      6  C   UNL     1      -0.115   0.975   2.446  0.00  0.00    +0.028 C 
ATOM      7  C   UNL     1      -0.770   1.639   1.232  0.00  0.00    +0.001 C 
ATOM      8  C   UNL     1      -0.651   3.159   1.356  0.00  0.00    +0.028 C 
ATOM      9  C   UNL     1       0.830   3.552   1.382  0.00  0.00    +0.110 C 
ATOM     10  H   UNL     1       2.649   1.670   4.470  0.00  0.00    +0.150 HD
ENDROOT
BRANCH   1  11
ATOM     11  C   UNL     1       3.411   3.482   5.521  0.00  0.00    +0.110 C 
BRANCH  11  12
ATOM     12  C   UNL     1       3.905   2.479   6.564  0.00  0.00    +0.054 C 
BRANCH  12  16
ATOM     13  C   UNL     1       5.882   4.566   9.724  0.00  0.00    +0.000 A 
ATOM     14  C   UNL     1       4.523   4.325   9.799  0.00  0.00    +0.000 A 
ATOM     15  C   UNL     1       3.883   3.650   8.776  0.00  0.00    +0.004 A 
ATOM     16  C   UNL     1       4.602   3.215   7.679  0.00  0.00    -0.046 A 
ATOM     17  C   UNL     1       5.963   3.450   7.607  0.00  0.00    +0.004 A 
ATOM     18  C   UNL     1       6.601   4.130   8.627  0.00  0.00    +0.000 A 
ENDBRANCH  12  16
ENDBRANCH  11  12
ENDBRANCH   1  11
BRANCH   7  19
ATOM     19  C   UNL     1      -2.247   1.246   1.171  0.00  0.00    +0.045 C 
BRANCH  19  20
ATOM     20  C   UNL     1      -2.964   1.800   2.376  0.00  0.00    -0.028 A 
ATOM     21  C   UNL     1      -3.039   1.055   3.538  0.00  0.00    +0.005 A 
ATOM     22  C   UNL     1      -3.693   1.564   4.645  0.00  0.00    +0.000 A 
ATOM     23  C   UNL     1      -4.280   2.814   4.586  0.00  0.00    +0.001 A 
ATOM     24  C   UNL     1      -4.211   3.557   3.423  0.00  0.00    +0.020 A 
ATOM     25  C   UNL     1      -3.552   3.050   2.317  0.00  0.00    +0.044 A 
ATOM     26 CL   UNL     1      -3.465   3.983   0.855  0.00  0.00    -0.083 Cl
ENDBRANCH  19  20
ENDBRANCH   7  19
BRANCH   7  27
ATOM     27  C   UNL     1      -0.066   1.174  -0.044  0.00  0.00    +0.163 C 
BRANCH  27  28
ATOM     28  O   UNL     1      -0.745   1.706  -1.183  0.00  0.00    -0.394 OA
ATOM     29  H   UNL     1      -0.381   1.479  -2.196  0.00  0.00    +0.209 HD
ENDBRANCH  27  28
ENDBRANCH   7  27
TORSDOF 7
