REMARK  Name = ZINC08800317
REMARK  11 active torsions:
REMARK  status: ('A' for Active; 'I' for Inactive)
REMARK    1  A    between atoms: C_1  and  C_2
REMARK    2  A    between atoms: C_2  and  C_3
REMARK    3  A    between atoms: C_3  and  O_4
REMARK    4  A    between atoms: O_4  and  C_5
REMARK    5  A    between atoms: C_8  and  S_11
REMARK    6  A    between atoms: S_11  and  N_14
REMARK    7  A    between atoms: N_14  and  C_15
REMARK    8  A    between atoms: C_15  and  C_16
REMARK    9  A    between atoms: C_16  and  C_18
REMARK   10  A    between atoms: C_16  and  N_70
REMARK   11  A    between atoms: N_27  and  C_28
REMARK                            x       y       z     vdW  Elec       q    Type
REMARK                         _______ _______ _______ _____ _____    ______ ____
ROOT
ATOM      1  C   UNL     1      -0.704   0.133  -1.193  0.00  0.00    -0.022 C 
ENDROOT
BRANCH   1   2
ATOM      2  C   UNL     1       0.285   0.294  -2.318  0.00  0.00    -0.059 A 
ATOM      3  C   UNL     1       1.240   1.293  -2.264  0.00  0.00    +0.004 A 
ATOM      4  C   UNL     1       2.146   1.436  -3.292  0.00  0.00    +0.023 A 
ATOM      5  C   UNL     1       2.099   0.586  -4.399  0.00  0.00    +0.033 A 
ATOM      6  C   UNL     1       1.141  -0.410  -4.449  0.00  0.00    -0.026 A 
ATOM      7  C   UNL     1       0.236  -0.552  -3.408  0.00  0.00    +0.007 A 
ATOM      8  C   UNL     1       1.044  -1.368  -5.610  0.00  0.00    +0.038 C 
ATOM      9  C   UNL     1       1.845  -0.824  -6.795  0.00  0.00    +0.024 C 
ATOM     10  C   UNL     1       3.217  -0.379  -6.272  0.00  0.00    +0.105 C 
ATOM     11  N   UNL     1       3.033   0.793  -5.413  0.00  0.00    -0.333 N 
ATOM     12  C   UNL     1       4.316   1.248  -4.862  0.00  0.00    +0.129 C 
ENDBRANCH   1   2
BRANCH   1  18
ATOM     13  C   UNL     1      -1.880   1.819  -2.472  0.00  0.00    -0.078 C 
ATOM     14  C   UNL     1      -2.894   2.960  -2.371  0.00  0.00    -0.019 C 
ATOM     15  C   UNL     1      -2.307   4.084  -1.512  0.00  0.00    -0.004 C 
ATOM     16  C   UNL     1      -1.946   3.526  -0.133  0.00  0.00    -0.019 C 
ATOM     17  C   UNL     1      -0.960   2.368  -0.299  0.00  0.00    -0.078 C 
ATOM     18  N   UNL     1      -1.594   1.310  -1.114  0.00  0.00    +0.385 N 
ATOM     19  H   UNL     1      -2.477   1.031  -0.670  0.00  0.00    -0.081 HD
ENDBRANCH   1  18
BRANCH   1  20
ATOM     20  C   UNL     1       0.049  -0.024   0.130  0.00  0.00    +0.095 C 
BRANCH  20  21
ATOM     21  N   UNL     1      -0.908  -0.027   1.239  0.00  0.00    -0.191 NA
ATOM     22  H   UNL     1      -1.818   0.278   1.095  0.00  0.00    +0.148 HD
BRANCH  21  23
ATOM     23  S   UNL     1      -0.436  -0.550   2.738  0.00  0.00    +0.058 S 
ATOM     24  O   UNL     1      -1.564  -0.408   3.591  0.00  0.00    -0.153 OA
ATOM     25  O   UNL     1       0.221  -1.795   2.545  0.00  0.00    -0.153 OA
BRANCH  23  29
ATOM     26  C   UNL     1       2.699   2.350   4.242  0.00  0.00    +0.121 A 
ATOM     27  C   UNL     1       1.357   2.574   4.516  0.00  0.00    +0.047 A 
ATOM     28  C   UNL     1       0.403   1.688   4.056  0.00  0.00    +0.032 A 
ATOM     29  C   UNL     1       0.784   0.579   3.323  0.00  0.00    +0.105 A 
ATOM     30  C   UNL     1       2.121   0.350   3.054  0.00  0.00    +0.032 A 
ATOM     31  C   UNL     1       3.079   1.236   3.507  0.00  0.00    +0.047 A 
BRANCH  26  32
ATOM     32  O   UNL     1       3.640   3.221   4.694  0.00  0.00    -0.492 OA
BRANCH  32  33
ATOM     33  C   UNL     1       5.002   2.927   4.375  0.00  0.00    +0.229 C 
BRANCH  33  35
ATOM     34  C   UNL     1       7.366   3.696   4.621  0.00  0.00    +0.007 C 
ATOM     35  C   UNL     1       5.908   4.011   4.962  0.00  0.00    +0.038 C 
ENDBRANCH  33  35
ENDBRANCH  32  33
ENDBRANCH  26  32
ENDBRANCH  23  29
ENDBRANCH  21  23
ENDBRANCH  20  21
ENDBRANCH   1  20
TORSDOF 9
