REMARK  Name = ZINC21175515
REMARK  10 active torsions:
REMARK  status: ('A' for Active; 'I' for Inactive)
REMARK    1  A    between atoms: C_1  and  C_2
REMARK    2  A    between atoms: C_2  and  C_3
REMARK    3  A    between atoms: C_12  and  C_13
REMARK    4  A    between atoms: C_13  and  C_15
REMARK    5  A    between atoms: C_15  and  C_17
REMARK    6  A    between atoms: C_15  and  O_23
REMARK    7  A    between atoms: O_23  and  C_24
REMARK    8  A    between atoms: C_24  and  C_26
REMARK    9  A    between atoms: C_30  and  C_36
REMARK   10  A    between atoms: C_32  and  C_35
REMARK                            x       y       z     vdW  Elec       q    Type
REMARK                         _______ _______ _______ _____ _____    ______ ____
ROOT
ATOM      1  C   UNL     1       3.371   4.902  -0.005  0.00  0.00    +0.278 C 
ENDROOT
BRANCH   1   2
ATOM      2  C   UNL     1       3.485   5.396  -1.424  0.00  0.00    +0.000 A 
ATOM      3  C   UNL     1       3.970   4.557  -2.410  0.00  0.00    +0.008 A 
ATOM      4  C   UNL     1       4.070   5.008  -3.713  0.00  0.00    +0.000 A 
ATOM      5  C   UNL     1       3.694   6.301  -4.028  0.00  0.00    +0.000 A 
ATOM      6  C   UNL     1       3.213   7.140  -3.041  0.00  0.00    +0.000 A 
ATOM      7  C   UNL     1       3.109   6.688  -1.739  0.00  0.00    +0.008 A 
ENDBRANCH   1   2
BRANCH   1   8
ATOM      8  C   UNL     1       4.696   5.074   0.694  0.00  0.00    +0.210 C 
ATOM      9  O   UNL     1       5.442   4.125   0.822  0.00  0.00    -0.288 OA
BRANCH   8  19
ATOM     10  C   UNL     1       7.278   8.667   2.888  0.00  0.00    -0.024 A 
ATOM     11  C   UNL     1       8.389   7.937   3.250  0.00  0.00    +0.005 A 
ATOM     12  C   UNL     1       8.476   6.586   2.949  0.00  0.00    +0.001 A 
ATOM     13  C   UNL     1       7.448   5.956   2.280  0.00  0.00    +0.011 A 
ATOM     14  C   UNL     1       6.321   6.682   1.908  0.00  0.00    +0.011 A 
ATOM     15  C   UNL     1       6.231   8.050   2.212  0.00  0.00    +0.050 A 
ATOM     16  N   UNL     1       5.021   8.507   1.730  0.00  0.00    -0.360 N 
ATOM     17  H   UNL     1       4.739   9.561   1.864  0.00  0.00    +0.165 HD
ATOM     18  C   UNL     1       4.340   7.511   1.132  0.00  0.00    +0.095 A 
ATOM     19  C   UNL     1       5.069   6.343   1.202  0.00  0.00    +0.047 A 
BRANCH  10  21
ATOM     20  C   UNL     1       6.438  10.317   4.537  0.00  0.00    +0.009 C 
ATOM     21  C   UNL     1       7.199  10.135   3.222  0.00  0.00    +0.034 C 
ENDBRANCH  10  21
ENDBRANCH   8  19
ENDBRANCH   1   8
BRANCH   1  22
ATOM     22  O   UNL     1       3.005   3.497  -0.008  0.00  0.00    -0.443 OA
BRANCH  22  23
ATOM     23  C   UNL     1       1.689   3.209   0.003  0.00  0.00    +0.380 C 
ATOM     24  O   UNL     1       0.871   4.106   0.015  0.00  0.00    -0.241 OA
BRANCH  23  25
ATOM     25  C   UNL     1       1.241   1.798  -0.000  0.00  0.00    +0.261 A 
ATOM     26  N   UNL     1       2.045   0.733  -0.013  0.00  0.00    -0.183 NA
ATOM     27  C   UNL     1       1.319  -0.376  -0.013  0.00  0.00    +0.254 A 
ATOM     28  N   UNL     1       1.654  -1.673  -0.022  0.00  0.00    -0.216 NA
ATOM     29  C   UNL     1       0.731  -2.607  -0.018  0.00  0.00    +0.044 A 
ATOM     30  C   UNL     1      -0.627  -2.261  -0.003  0.00  0.00    +0.046 A 
ATOM     31  C   UNL     1      -0.977  -0.950   0.007  0.00  0.00    +0.045 A 
ATOM     32  N   UNL     1       0.002  -0.004   0.002  0.00  0.00    -0.200 N 
ATOM     33  N   UNL     1      -0.017   1.397   0.010  0.00  0.00    -0.137 NA
ATOM     34  C   UNL     1      -2.429  -0.547   0.023  0.00  0.00    +0.066 C 
ATOM     35  C   UNL     1       1.135  -4.059  -0.030  0.00  0.00    +0.066 C 
ENDBRANCH  23  25
ENDBRANCH  22  23
ENDBRANCH   1  22
TORSDOF 7
