REMARK  Name = ZINC26171559
REMARK  9 active torsions:
REMARK  status: ('A' for Active; 'I' for Inactive)
REMARK    1  A    between atoms: C_1  and  C_2
REMARK    2  A    between atoms: C_2  and  C_4
REMARK    3  A    between atoms: C_2  and  N_21
REMARK    4  A    between atoms: N_6  and  C_7
REMARK    5  A    between atoms: C_12  and  S_13
REMARK    6  A    between atoms: S_13  and  C_14
REMARK    7  A    between atoms: N_21  and  C_22
REMARK    8  A    between atoms: N_21  and  C_23
REMARK    9  A    between atoms: C_23  and  C_24
REMARK                            x       y       z     vdW  Elec       q    Type
REMARK                         _______ _______ _______ _____ _____    ______ ____
ROOT
ATOM      1  C   UNL     1       1.148  -7.565  -1.289  0.00  0.00    -0.004 C 
ATOM      2  C   UNL     1       1.765  -6.379  -0.544  0.00  0.00    +0.017 C 
ENDROOT
BRANCH   2   3
ATOM      3  C   UNL     1       3.214  -6.670  -0.250  0.00  0.00    +0.203 C 
ATOM      4  O   UNL     1       4.080  -5.944  -0.691  0.00  0.00    -0.277 OA
ATOM      5  N   UNL     1       3.548  -7.737   0.503  0.00  0.00    -0.286 N 
ATOM      6  H   UNL     1       2.762  -8.346   0.973  0.00  0.00    +0.155 HD
BRANCH   5   7
ATOM      7  C   UNL     1       4.896  -8.071   0.686  0.00  0.00    +0.047 A 
ATOM      8  C   UNL     1       5.867  -7.081   0.660  0.00  0.00    +0.024 A 
ATOM      9  C   UNL     1       7.196  -7.412   0.847  0.00  0.00    +0.002 A 
ATOM     10  C   UNL     1       7.564  -8.729   1.049  0.00  0.00    +0.001 A 
ATOM     11  C   UNL     1       6.604  -9.723   1.071  0.00  0.00    +0.017 A 
ATOM     12  C   UNL     1       5.267  -9.400   0.891  0.00  0.00    +0.034 A 
BRANCH  12  13
ATOM     13  S   UNL     1       4.040 -10.665   0.918  0.00  0.00    -0.088 S 
BRANCH  13  14
ATOM     14  C   UNL     1       4.954 -12.137   1.239  0.00  0.00    +0.013 A 
ATOM     15  C   UNL     1       5.360 -12.948   0.186  0.00  0.00    +0.016 A 
ATOM     16  C   UNL     1       6.080 -14.098   0.440  0.00  0.00    +0.021 A 
ATOM     17  C   UNL     1       6.388 -14.450   1.742  0.00  0.00    +0.041 A 
ATOM     18  C   UNL     1       5.979 -13.648   2.794  0.00  0.00    +0.021 A 
ATOM     19  C   UNL     1       5.264 -12.493   2.546  0.00  0.00    +0.016 A 
ATOM     20 CL   UNL     1       7.288 -15.900   2.058  0.00  0.00    -0.084 Cl
ENDBRANCH  13  14
ENDBRANCH  12  13
ENDBRANCH   5   7
ENDBRANCH   2   3
BRANCH   2  21
ATOM     21  N   UNL     1       1.667  -5.173  -1.377  0.00  0.00    +0.390 N 
ATOM     22  C   UNL     1       2.254  -5.400  -2.704  0.00  0.00    -0.095 C 
ATOM     23  H   UNL     1       2.242  -4.375  -0.885  0.00  0.00    -0.081 HD
BRANCH  21  24
ATOM     24  C   UNL     1       0.273  -4.722  -1.488  0.00  0.00    -0.003 C 
BRANCH  24  25
ATOM     25  C   UNL     1       0.236  -3.361  -2.134  0.00  0.00    +0.094 A 
ATOM     26  N   UNL     1      -0.973  -2.771  -2.325  0.00  0.00    -0.312 N 
ATOM     27  H   UNL     1      -1.892  -3.287  -2.010  0.00  0.00    +0.170 HD
ATOM     28  C   UNL     1      -1.060  -1.549  -2.901  0.00  0.00    +0.259 A 
ATOM     29  O   UNL     1      -2.137  -1.009  -3.077  0.00  0.00    -0.267 OA
ATOM     30  C   UNL     1       0.196  -0.900  -3.304  0.00  0.00    +0.065 A 
ATOM     31  C   UNL     1       0.215   0.357  -3.904  0.00  0.00    +0.015 A 
ATOM     32  C   UNL     1       1.421   0.920  -4.262  0.00  0.00    +0.001 A 
ATOM     33  C   UNL     1       2.612   0.244  -4.029  0.00  0.00    +0.002 A 
ATOM     34  C   UNL     1       2.614  -0.999  -3.438  0.00  0.00    +0.028 A 
ATOM     35  C   UNL     1       1.405  -1.589  -3.066  0.00  0.00    +0.078 A 
ATOM     36  N   UNL     1       1.361  -2.812  -2.480  0.00  0.00    -0.236 NA
ENDBRANCH  24  25
ENDBRANCH  21  24
ENDBRANCH   2  21
TORSDOF 7
