REMARK  Name = ZINC38705980
REMARK  15 active torsions:
REMARK  status: ('A' for Active; 'I' for Inactive)
REMARK    1  A    between atoms: C_1  and  C_2
REMARK    2  A    between atoms: C_2  and  C_3
REMARK    3  A    between atoms: C_3  and  C_4
REMARK    4  A    between atoms: C_4  and  C_5
REMARK    5  A    between atoms: C_5  and  C_6
REMARK    6  A    between atoms: C_6  and  O_7
REMARK    7  A    between atoms: O_7  and  C_8
REMARK    8  A    between atoms: C_11  and  C_14
REMARK    9  A    between atoms: C_17  and  C_33
REMARK   10  A    between atoms: N_24  and  C_25
REMARK   11  A    between atoms: C_25  and  C_26
REMARK   12  A    between atoms: C_29  and  C_32
REMARK   13  A    between atoms: C_34  and  C_41
REMARK   14  A    between atoms: C_36  and  C_40
REMARK   15  A    between atoms: C_38  and  O_39
REMARK                            x       y       z     vdW  Elec       q    Type
REMARK                         _______ _______ _______ _____ _____    ______ ____
ROOT
ATOM      1  C   UNL     1       2.559  -9.708  -4.538  0.00  0.00    +0.142 C 
ATOM      2  C   UNL     1       1.480 -10.394  -5.331  0.00  0.00    +0.035 A 
ATOM      3  C   UNL     1       0.119 -10.690  -5.460  0.00  0.00    +0.102 A 
ATOM      4  N   UNL     1      -0.024 -11.423  -6.547  0.00  0.00    -0.173 NA
ATOM      5  N   UNL     1       1.112 -11.618  -7.117  0.00  0.00    -0.272 N 
ATOM      6  H   UNL     1       1.246 -12.129  -7.931  0.00  0.00    +0.189 HD
ATOM      7  C   UNL     1       2.101 -11.000  -6.406  0.00  0.00    +0.126 A 
ATOM      8  C   UNL     1       3.541 -10.726  -6.329  0.00  0.00    +0.266 C 
ATOM      9  O   UNL     1       4.366 -11.121  -7.130  0.00  0.00    -0.268 OA
ATOM     10  N   UNL     1       3.818  -9.976  -5.246  0.00  0.00    -0.281 N 
ENDROOT
BRANCH   3  11
ATOM     11  C   UNL     1      -0.964 -10.259  -4.542  0.00  0.00    +0.047 A 
ATOM     12  C   UNL     1      -2.130  -9.695  -5.053  0.00  0.00    -0.037 A 
ATOM     13  C   UNL     1      -3.135  -9.296  -4.195  0.00  0.00    +0.007 A 
ATOM     14  C   UNL     1      -2.989  -9.454  -2.829  0.00  0.00    -0.047 A 
ATOM     15  C   UNL     1      -1.836 -10.013  -2.311  0.00  0.00    +0.049 A 
ATOM     16  C   UNL     1      -0.822 -10.424  -3.162  0.00  0.00    +0.127 A 
ATOM     17  C   UNL     1      -4.092  -9.016  -1.900  0.00  0.00    +0.044 C 
ATOM     18  C   UNL     1      -2.295  -9.519  -6.541  0.00  0.00    +0.044 C 
BRANCH  16  19
ATOM     19  O   UNL     1       0.310 -10.979  -2.655  0.00  0.00    -0.506 OA
ATOM     20  H   UNL     1       0.983 -10.335  -2.396  0.00  0.00    +0.292 HD
ENDBRANCH  16  19
ENDBRANCH   3  11
BRANCH   1  24
ATOM     21  C   UNL     1       1.824  -5.502  -4.385  0.00  0.00    +0.121 A 
ATOM     22  C   UNL     1       1.656  -6.278  -3.248  0.00  0.00    +0.046 A 
ATOM     23  C   UNL     1       1.894  -7.638  -3.300  0.00  0.00    +0.009 A 
ATOM     24  C   UNL     1       2.300  -8.225  -4.484  0.00  0.00    -0.022 A 
ATOM     25  C   UNL     1       2.470  -7.453  -5.619  0.00  0.00    +0.009 A 
ATOM     26  C   UNL     1       2.227  -6.094  -5.573  0.00  0.00    +0.046 A 
BRANCH  21  27
ATOM     27  O   UNL     1       1.590  -4.164  -4.336  0.00  0.00    -0.492 OA
BRANCH  27  28
ATOM     28  C   UNL     1       1.179  -3.622  -3.079  0.00  0.00    +0.229 C 
BRANCH  28  29
ATOM     29  C   UNL     1       0.965  -2.114  -3.219  0.00  0.00    +0.041 C 
BRANCH  29  30
ATOM     30  C   UNL     1       0.524  -1.534  -1.874  0.00  0.00    +0.003 C 
BRANCH  30  31
ATOM     31  C   UNL     1       0.310  -0.026  -2.013  0.00  0.00    -0.000 C 
BRANCH  31  33
ATOM     32  C   UNL     1      -0.344   2.062  -0.808  0.00  0.00    +0.004 C 
ATOM     33  C   UNL     1      -0.130   0.554  -0.668  0.00  0.00    -0.003 C 
ENDBRANCH  31  33
ENDBRANCH  30  31
ENDBRANCH  29  30
ENDBRANCH  28  29
ENDBRANCH  27  28
ENDBRANCH  21  27
ENDBRANCH   1  24
BRANCH  10  34
ATOM     34  C   UNL     1       5.146  -9.507  -4.843  0.00  0.00    +0.144 C 
BRANCH  34  35
ATOM     35  C   UNL     1       5.784 -10.525  -3.933  0.00  0.00    -0.030 A 
ATOM     36  C   UNL     1       5.590 -10.449  -2.567  0.00  0.00    +0.005 A 
ATOM     37  C   UNL     1       6.176 -11.383  -1.733  0.00  0.00    +0.003 A 
ATOM     38  C   UNL     1       6.954 -12.393  -2.265  0.00  0.00    -0.050 A 
ATOM     39  C   UNL     1       7.147 -12.470  -3.632  0.00  0.00    +0.003 A 
ATOM     40  C   UNL     1       6.559 -11.539  -4.466  0.00  0.00    +0.005 A 
ATOM     41  C   UNL     1       7.593 -13.411  -1.356  0.00  0.00    +0.044 C 
ENDBRANCH  34  35
ENDBRANCH  10  34
TORSDOF 11
