REMARK  Name = ZINC39867178
REMARK  6 active torsions:
REMARK  status: ('A' for Active; 'I' for Inactive)
REMARK    1  A    between atoms: C_1  and  C_2
REMARK    2  A    between atoms: C_8  and  C_10
REMARK    3  A    between atoms: C_10  and  C_11
REMARK    4  A    between atoms: C_11  and  C_12
REMARK    5  A    between atoms: C_12  and  C_13
REMARK    6  A    between atoms: C_21  and  C_23
REMARK                            x       y       z     vdW  Elec       q    Type
REMARK                         _______ _______ _______ _____ _____    ______ ____
ROOT
ATOM      1  C   UNL     1      -7.452  -4.807   0.010  0.00  0.00    -0.013 A 
ATOM      2  C   UNL     1      -8.294  -4.563  -1.159  0.00  0.00    +0.003 A 
ATOM      3  C   UNL     1      -8.075  -4.620  -2.538  0.00  0.00    +0.010 A 
ATOM      4  C   UNL     1      -9.095  -4.328  -3.399  0.00  0.00    +0.001 A 
ATOM      5  C   UNL     1     -10.347  -3.974  -2.915  0.00  0.00    +0.002 A 
ATOM      6  C   UNL     1     -10.586  -3.911  -1.560  0.00  0.00    +0.026 A 
ATOM      7  C   UNL     1      -9.563  -4.205  -0.663  0.00  0.00    +0.047 A 
ATOM      8  N   UNL     1      -9.492  -4.230   0.711  0.00  0.00    -0.353 N 
ATOM      9  C   UNL     1      -8.225  -4.598   1.106  0.00  0.00    +0.069 A 
ATOM     10  H   UNL     1     -10.225  -4.024   1.312  0.00  0.00    +0.166 HD
ENDROOT
BRANCH   9  11
ATOM     11  C   UNL     1      -7.776  -4.740   2.506  0.00  0.00    +0.088 A 
ATOM     12  C   UNL     1      -8.443  -4.026   3.517  0.00  0.00    +0.030 A 
ATOM     13  C   UNL     1      -8.038  -4.149   4.812  0.00  0.00    +0.012 A 
ATOM     14  C   UNL     1      -6.949  -4.999   5.095  0.00  0.00    +0.000 A 
ATOM     15  C   UNL     1      -6.483  -5.171   6.407  0.00  0.00    +0.010 A 
ATOM     16  C   UNL     1      -5.428  -6.000   6.645  0.00  0.00    +0.001 A 
ATOM     17  C   UNL     1      -4.806  -6.682   5.601  0.00  0.00    +0.002 A 
ATOM     18  C   UNL     1      -5.232  -6.538   4.316  0.00  0.00    +0.028 A 
ATOM     19  C   UNL     1      -6.318  -5.691   4.032  0.00  0.00    +0.072 A 
ATOM     20  N   UNL     1      -6.760  -5.538   2.780  0.00  0.00    -0.245 NA
ENDBRANCH   9  11
BRANCH   1  21
ATOM     21  C   UNL     1      -6.002  -5.219   0.001  0.00  0.00    +0.038 C 
BRANCH  21  22
ATOM     22  C   UNL     1      -5.117  -3.971   0.004  0.00  0.00    +0.014 C 
BRANCH  22  23
ATOM     23  C   UNL     1      -3.646  -4.389  -0.006  0.00  0.00    +0.096 C 
BRANCH  23  31
ATOM     24  C   UNL     1      -0.018   1.503   0.010  0.00  0.00    +0.089 C 
ATOM     25  C   UNL     1       0.002  -0.004   0.002  0.00  0.00    +0.136 A 
ATOM     26  C   UNL     1      -1.076  -0.808   0.003  0.00  0.00    +0.091 A 
ATOM     27  C   UNL     1      -0.625  -2.147  -0.007  0.00  0.00    +0.168 A 
ATOM     28  N   UNL     1       0.683  -2.130  -0.013  0.00  0.00    -0.063 NA
ATOM     29  O   UNL     1       1.100  -0.776  -0.013  0.00  0.00    -0.358 OA
ATOM     30  N   UNL     1      -1.432  -3.285  -0.010  0.00  0.00    -0.268 N 
ATOM     31  C   UNL     1      -2.774  -3.159  -0.003  0.00  0.00    +0.218 C 
ATOM     32  O   UNL     1      -3.280  -2.057   0.006  0.00  0.00    -0.275 OA
ATOM     33  H   UNL     1      -1.027  -4.166  -0.017  0.00  0.00    +0.156 HD
ENDBRANCH  23  31
ENDBRANCH  22  23
ENDBRANCH  21  22
ENDBRANCH   1  21
TORSDOF 5
