REMARK  Name = ZINC42095777
REMARK  8 active torsions:
REMARK  status: ('A' for Active; 'I' for Inactive)
REMARK    1  A    between atoms: C_1  and  C_2
REMARK    2  A    between atoms: C_5  and  N_23
REMARK    3  A    between atoms: C_6  and  N_9
REMARK    4  A    between atoms: C_7  and  C_8
REMARK    5  A    between atoms: C_10  and  C_12
REMARK    6  A    between atoms: C_12  and  C_14
REMARK    7  A    between atoms: C_12  and  S_15
REMARK    8  A    between atoms: S_15  and  C_16
REMARK                            x       y       z     vdW  Elec       q    Type
REMARK                         _______ _______ _______ _____ _____    ______ ____
ROOT
ATOM      1  N   UNL     1       0.605  -3.127   1.876  0.00  0.00    -0.283 N 
ATOM      2  C   UNL     1       0.656  -4.406   2.297  0.00  0.00    +0.230 C 
ATOM      3  O   UNL     1       1.182  -5.252   1.604  0.00  0.00    -0.274 OA
ATOM      4  H   UNL     1       0.119  -2.466   2.393  0.00  0.00    +0.155 HD
ENDROOT
BRANCH   1  10
ATOM      5  C   UNL     1       1.608  -4.003  -2.857  0.00  0.00    +0.044 C 
ATOM      6  C   UNL     1       1.755  -3.160  -1.616  0.00  0.00    -0.046 A 
ATOM      7  C   UNL     1       2.529  -2.014  -1.647  0.00  0.00    +0.006 A 
ATOM      8  C   UNL     1       2.667  -1.238  -0.512  0.00  0.00    +0.035 A 
ATOM      9  C   UNL     1       2.030  -1.604   0.658  0.00  0.00    +0.148 A 
ATOM     10  C   UNL     1       1.251  -2.753   0.693  0.00  0.00    +0.067 A 
ATOM     11  C   UNL     1       1.111  -3.528  -0.452  0.00  0.00    -0.024 A 
ATOM     12  C   UNL     1       0.262  -4.773  -0.420  0.00  0.00    +0.046 C 
BRANCH   9  13
ATOM     13  N   UNL     1       2.178  -0.773   1.874  0.00  0.00    +0.058 N 
ATOM     14  O   UNL     1       2.926   0.177   1.869  0.00  0.00    -0.126 OA
ATOM     15  O   UNL     1       1.551  -1.044   2.872  0.00  0.00    -0.126 OA
ENDBRANCH   9  13
ENDBRANCH   1  10
BRANCH   2  16
ATOM     16  C   UNL     1       0.061  -4.786   3.628  0.00  0.00    +0.134 C 
ATOM     17  C   UNL     1       1.037  -4.418   4.747  0.00  0.00    +0.029 C 
BRANCH  16  18
ATOM     18  S   UNL     1      -0.253  -6.572   3.663  0.00  0.00    -0.110 S 
BRANCH  18  19
ATOM     19  C   UNL     1      -1.641  -6.782   2.597  0.00  0.00    +0.044 A 
ATOM     20  C   UNL     1      -2.293  -5.671   2.077  0.00  0.00    +0.017 A 
ATOM     21  C   UNL     1      -3.381  -5.839   1.242  0.00  0.00    +0.001 A 
ATOM     22  C   UNL     1      -3.822  -7.110   0.924  0.00  0.00    +0.003 A 
ATOM     23  C   UNL     1      -3.177  -8.219   1.440  0.00  0.00    +0.039 A 
ATOM     24  C   UNL     1      -2.083  -8.060   2.271  0.00  0.00    +0.137 A 
ATOM     25  F   UNL     1      -1.449  -9.143   2.770  0.00  0.00    -0.204 F 
ENDBRANCH  18  19
ENDBRANCH  16  18
ENDBRANCH   2  16
TORSDOF 5
