REMARK  Name = ZINC42399975
REMARK  5 active torsions:
REMARK  status: ('A' for Active; 'I' for Inactive)
REMARK    1  A    between atoms: C_1  and  N_2
REMARK    2  A    between atoms: N_2  and  C_3
REMARK    3  A    between atoms: N_2  and  C_10
REMARK    4  A    between atoms: C_3  and  C_4
REMARK    5  A    between atoms: C_11  and  C_18
REMARK                            x       y       z     vdW  Elec       q    Type
REMARK                         _______ _______ _______ _____ _____    ______ ____
ROOT
ATOM      1  C   UNL     1      -0.004  -0.708  -1.222  0.00  0.00    +0.145 A 
ATOM      2  C   UNL     1      -0.137  -0.146  -2.441  0.00  0.00    +0.080 A 
ATOM      3  N   UNL     1      -0.356  -1.177  -3.359  0.00  0.00    -0.294 N 
ATOM      4  C   UNL     1      -0.566  -1.320  -4.713  0.00  0.00    +0.101 A 
ATOM      5  C   UNL     1      -0.744  -2.525  -5.253  0.00  0.00    +0.067 A 
ATOM      6  S   UNL     1      -0.621  -3.590  -3.824  0.00  0.00    -0.058 S 
ATOM      7  C   UNL     1      -0.339  -2.323  -2.610  0.00  0.00    +0.179 A 
ATOM      8  N   UNL     1      -0.127  -2.040  -1.355  0.00  0.00    -0.206 NA
ENDROOT
BRANCH   1  10
ATOM      9  C   UNL     1       0.205   1.444   0.001  0.00  0.00    +0.131 C 
ATOM     10  N   UNL     1       0.229  -0.020  -0.021  0.00  0.00    -0.312 N 
BRANCH  10  11
ATOM     11  C   UNL     1       0.495  -0.767   1.211  0.00  0.00    +0.148 C 
BRANCH  11  12
ATOM     12  C   UNL     1      -0.805  -1.050   1.919  0.00  0.00    +0.008 A 
ATOM     13  C   UNL     1      -1.629  -2.118   1.794  0.00  0.00    +0.028 A 
ATOM     14  C   UNL     1      -2.784  -2.166   2.553  0.00  0.00    +0.025 A 
ATOM     15  C   UNL     1      -3.057  -1.143   3.400  0.00  0.00    +0.060 A 
ATOM     16  S   UNL     1      -1.654  -0.068   3.144  0.00  0.00    -0.099 S 
ATOM     17 BR   UNL     1      -3.965  -3.636   2.413  0.00  0.00    -0.050 Br
ENDBRANCH  11  12
ENDBRANCH  10  11
ENDBRANCH   1  10
BRANCH   2  18
ATOM     18  C   UNL     1      -0.064   1.326  -2.756  0.00  0.00    +0.165 C 
ATOM     19 CL   UNL     1      -1.714   2.046  -2.647  0.00  0.00    -0.119 Cl
ENDBRANCH   2  18
TORSDOF 4
