REMARK  Name = ZINC25877133
REMARK  5 active torsions:
REMARK  status: ('A' for Active; 'I' for Inactive)
REMARK    1  A    between atoms: C_1  and  C_2
REMARK    2  A    between atoms: C_2  and  C_29
REMARK    3  A    between atoms: N_5  and  C_9
REMARK    4  A    between atoms: C_9  and  C_10
REMARK    5  A    between atoms: C_22  and  C_25
REMARK                            x       y       z     vdW  Elec       q    Type
REMARK                         _______ _______ _______ _____ _____    ______ ____
ROOT
ATOM      1  C   UNL     1      -2.888   5.266   7.617  0.00  0.00    +0.234 C 
ATOM      2  O   UNL     1      -2.644   4.868   8.736  0.00  0.00    -0.274 OA
ATOM      3  N   UNL     1      -3.636   4.517   6.783  0.00  0.00    -0.299 N 
ATOM      4  C   UNL     1      -4.134   3.243   7.256  0.00  0.00    +0.109 C 
ATOM      5  C   UNL     1      -3.116   2.128   6.909  0.00  0.00    +0.038 C 
ATOM      6  C   UNL     1      -3.095   1.910   5.450  0.00  0.00    +0.108 C 
ATOM      7  N   UNL     1      -2.667   3.072   4.672  0.00  0.00    -0.314 N 
ATOM      8  C   UNL     1      -3.796   3.924   4.364  0.00  0.00    +0.125 C 
ATOM      9  C   UNL     1      -3.914   5.033   5.426  0.00  0.00    +0.126 C 
ATOM     10  C   UNL     1      -2.008   2.680   3.512  0.00  0.00    +0.121 A 
ATOM     11  C   UNL     1      -1.522   3.646   2.635  0.00  0.00    +0.044 A 
ATOM     12  C   UNL     1      -0.864   3.242   1.488  0.00  0.00    +0.017 A 
ATOM     13  C   UNL     1      -0.722   1.881   1.250  0.00  0.00    +0.073 A 
ATOM     14  C   UNL     1      -1.229   0.978   2.163  0.00  0.00    +0.125 A 
ATOM     15  N   UNL     1      -1.848   1.392   3.252  0.00  0.00    -0.240 NA
ENDROOT
BRANCH  13  16
ATOM     16  C   UNL     1      -0.017   1.395   0.010  0.00  0.00    +0.419 C 
ATOM     17  F   UNL     1       0.002  -0.004   0.002  0.00  0.00    -0.166 F 
ATOM     18  F   UNL     1       1.296   1.879  -0.000  0.00  0.00    -0.166 F 
ATOM     19  F   UNL     1      -0.694   1.858  -1.124  0.00  0.00    -0.166 F 
ENDBRANCH  13  16
BRANCH   1  20
ATOM     20  C   UNL     1      -2.353   6.598   7.158  0.00  0.00    +0.213 C 
BRANCH  20  25
ATOM     21  C   UNL     1       0.658   6.943  10.749  0.00  0.00    +0.042 C 
ATOM     22  C   UNL     1       0.112   7.845   9.641  0.00  0.00    +0.113 C 
ATOM     23  C   UNL     1      -0.253   7.027   8.418  0.00  0.00    +0.247 C 
ATOM     24  O   UNL     1       0.490   6.348   7.743  0.00  0.00    -0.273 OA
ATOM     25  N   UNL     1      -1.576   7.211   8.238  0.00  0.00    -0.215 N 
ATOM     26  C   UNL     1      -2.091   8.027   9.165  0.00  0.00    +0.310 C 
ATOM     27  O   UNL     1      -3.264   8.346   9.207  0.00  0.00    -0.252 OA
ATOM     28  N   UNL     1      -1.168   8.452  10.046  0.00  0.00    -0.285 N 
ATOM     29  H   UNL     1      -1.211   9.110  10.927  0.00  0.00    +0.151 HD
BRANCH  22  30
ATOM     30  C   UNL     1       1.130   8.928   9.280  0.00  0.00    +0.021 C 
ATOM     31  C   UNL     1       2.575   8.721   9.739  0.00  0.00    +0.006 C 
ATOM     32  C   UNL     1       1.698   9.773  10.422  0.00  0.00    +0.006 C 
ENDBRANCH  22  30
ENDBRANCH  20  25
ENDBRANCH   1  20
TORSDOF 4
