REMARK  Name = ZINC63654876
REMARK  12 active torsions:
REMARK  status: ('A' for Active; 'I' for Inactive)
REMARK    1  A    between atoms: C_1  and  O_2
REMARK    2  A    between atoms: O_2  and  C_3
REMARK    3  A    between atoms: C_6  and  C_9
REMARK    4  A    between atoms: C_11  and  S_19
REMARK    5  A    between atoms: S_19  and  C_20
REMARK    6  A    between atoms: C_20  and  C_21
REMARK    7  A    between atoms: C_21  and  N_22
REMARK    8  A    between atoms: C_23  and  C_25
REMARK    9  A    between atoms: C_29  and  O_33
REMARK   10  A    between atoms: C_30  and  O_31
REMARK   11  A    between atoms: O_31  and  C_32
REMARK   12  A    between atoms: O_33  and  C_34
REMARK                            x       y       z     vdW  Elec       q    Type
REMARK                         _______ _______ _______ _____ _____    ______ ____
ROOT
ATOM      1  C   UNL     1      -5.015  -2.623   0.028  0.00  0.00    +0.147 C 
ATOM      2  C   UNL     1      -5.326  -3.109   1.426  0.00  0.00    +0.021 C 
ATOM      3  C   UNL     1      -5.445  -4.492   1.325  0.00  0.00    +0.010 A 
ATOM      4  C   UNL     1      -5.724  -5.496   2.279  0.00  0.00    +0.011 A 
ATOM      5  C   UNL     1      -5.781  -6.796   1.890  0.00  0.00    +0.001 A 
ATOM      6  C   UNL     1      -5.568  -7.172   0.563  0.00  0.00    +0.002 A 
ATOM      7  C   UNL     1      -5.296  -6.260  -0.404  0.00  0.00    +0.026 A 
ATOM      8  C   UNL     1      -5.221  -4.883  -0.074  0.00  0.00    +0.044 A 
ATOM      9  N   UNL     1      -4.976  -3.819  -0.819  0.00  0.00    -0.373 N 
ATOM     10  H   UNL     1      -4.798  -3.827  -1.772  0.00  0.00    +0.161 HD
ENDROOT
BRANCH   1  14
ATOM     11  C   UNL     1      -1.224  -0.651  -0.034  0.00  0.00    +0.120 A 
ATOM     12  C   UNL     1      -2.395   0.094  -0.009  0.00  0.00    +0.046 A 
ATOM     13  C   UNL     1      -3.619  -0.546   0.011  0.00  0.00    +0.009 A 
ATOM     14  C   UNL     1      -3.678  -1.927   0.006  0.00  0.00    -0.020 A 
ATOM     15  C   UNL     1      -2.514  -2.672  -0.019  0.00  0.00    +0.009 A 
ATOM     16  C   UNL     1      -1.287  -2.037  -0.045  0.00  0.00    +0.046 A 
BRANCH  11  18
ATOM     17  C   UNL     1      -0.030   1.405  -0.041  0.00  0.00    +0.277 C 
ATOM     18  O   UNL     1      -0.019  -0.024  -0.054  0.00  0.00    -0.495 OA
ENDBRANCH  11  18
ENDBRANCH   1  14
BRANCH   2  19
ATOM     19  S   UNL     1      -5.492  -2.186   2.795  0.00  0.00    -0.125 S 
BRANCH  19  20
ATOM     20  C   UNL     1      -6.014  -3.372   4.064  0.00  0.00    +0.093 C 
BRANCH  20  21
ATOM     21  C   UNL     1      -6.344  -2.623   5.357  0.00  0.00    +0.115 C 
BRANCH  21  22
ATOM     22  N   UNL     1      -6.766  -3.581   6.382  0.00  0.00    -0.310 N 
ATOM     23  C   UNL     1      -7.108  -3.146   7.611  0.00  0.00    +0.248 C 
ATOM     24  O   UNL     1      -7.066  -1.959   7.869  0.00  0.00    -0.270 OA
ATOM     25  H   UNL     1      -6.799  -4.528   6.176  0.00  0.00    +0.149 HD
BRANCH  23  26
ATOM     26  C   UNL     1      -7.533  -4.111   8.643  0.00  0.00    +0.082 A 
ATOM     27  C   UNL     1      -7.577  -5.478   8.352  0.00  0.00    +0.017 A 
ATOM     28  C   UNL     1      -7.973  -6.376   9.318  0.00  0.00    +0.005 A 
ATOM     29  C   UNL     1      -8.331  -5.932  10.581  0.00  0.00    +0.049 A 
ATOM     30  C   UNL     1      -8.293  -4.582  10.885  0.00  0.00    +0.162 A 
ATOM     31  C   UNL     1      -7.889  -3.663   9.921  0.00  0.00    +0.174 A 
BRANCH  31  32
ATOM     32  O   UNL     1      -7.845  -2.339  10.217  0.00  0.00    -0.491 OA
ATOM     33  C   UNL     1      -9.032  -1.581   9.977  0.00  0.00    +0.277 C 
ENDBRANCH  31  32
BRANCH  30  34
ATOM     34  O   UNL     1      -8.646  -4.154  12.127  0.00  0.00    -0.491 OA
ATOM     35  C   UNL     1      -9.045  -5.153  13.068  0.00  0.00    +0.277 C 
ENDBRANCH  30  34
ENDBRANCH  23  26
ENDBRANCH  21  22
ENDBRANCH  20  21
ENDBRANCH  19  20
ENDBRANCH   2  19
TORSDOF 9
