REMARK  Name = ZINC39686182
REMARK  8 active torsions:
REMARK  status: ('A' for Active; 'I' for Inactive)
REMARK    1  A    between atoms: C_1  and  C_2
REMARK    2  A    between atoms: C_2  and  C_3
REMARK    3  A    between atoms: C_2  and  C_4
REMARK    4  A    between atoms: C_4  and  C_5
REMARK    5  A    between atoms: C_10  and  N_13
REMARK    6  A    between atoms: C_14  and  C_16
REMARK    7  A    between atoms: C_27  and  C_29
REMARK    8  A    between atoms: C_32  and  C_35
REMARK                            x       y       z     vdW  Elec       q    Type
REMARK                         _______ _______ _______ _____ _____    ______ ____
ROOT
ATOM      1  C   UNL     1      -7.522  -3.961  -4.727  0.00  0.00    +0.100 C 
ATOM      2  C   UNL     1      -6.710  -4.811  -5.729  0.00  0.00    +0.121 C 
ATOM      3  N   UNL     1      -7.711  -5.290  -6.711  0.00  0.00    -0.296 N 
ATOM      4  C   UNL     1      -8.614  -4.131  -6.912  0.00  0.00    +0.115 C 
ATOM      5  C   UNL     1      -8.770  -3.516  -5.507  0.00  0.00    -0.004 C 
ATOM      6  C   UNL     1      -8.820  -1.994  -5.601  0.00  0.00    -0.010 C 
ATOM      7  C   UNL     1     -10.100  -1.573  -6.329  0.00  0.00    -0.082 C 
ATOM      8  N   UNL     1     -11.269  -2.077  -5.599  0.00  0.00    +0.379 N 
ATOM      9  C   UNL     1     -11.262  -3.545  -5.593  0.00  0.00    -0.082 C 
ATOM     10  C   UNL     1     -10.031  -4.049  -4.834  0.00  0.00    -0.010 C 
ATOM     11  C   UNL     1      -7.785  -6.505  -7.291  0.00  0.00    +0.247 C 
ATOM     12  O   UNL     1      -7.044  -7.397  -6.927  0.00  0.00    -0.270 OA
ATOM     13  H   UNL     1     -11.242  -1.738  -4.649  0.00  0.00    -0.086 HD
ATOM     14  H   UNL     1     -12.111  -1.748  -6.046  0.00  0.00    -0.086 HD
ENDROOT
BRANCH  11  15
ATOM     15  C   UNL     1      -8.766  -6.751  -8.369  0.00  0.00    +0.037 A 
ATOM     16  C   UNL     1      -9.305  -5.681  -9.084  0.00  0.00    +0.013 A 
ATOM     17  C   UNL     1     -10.220  -5.918 -10.089  0.00  0.00    +0.013 A 
ATOM     18  C   UNL     1     -10.604  -7.213 -10.388  0.00  0.00    +0.055 A 
ATOM     19  C   UNL     1     -10.074  -8.278  -9.683  0.00  0.00    +0.013 A 
ATOM     20  C   UNL     1      -9.153  -8.056  -8.679  0.00  0.00    +0.013 A 
BRANCH  18  21
ATOM     21  C   UNL     1     -11.604  -7.464 -11.487  0.00  0.00    +0.417 C 
ATOM     22  F   UNL     1     -10.931  -7.631 -12.702  0.00  0.00    -0.166 F 
ATOM     23  F   UNL     1     -12.335  -8.621 -11.196  0.00  0.00    -0.166 F 
ATOM     24  F   UNL     1     -12.475  -6.374 -11.583  0.00  0.00    -0.166 F 
ENDBRANCH  18  21
ENDBRANCH  11  15
BRANCH   1  26
ATOM     25  N   UNL     1      -6.908  -2.240  -3.059  0.00  0.00    -0.312 N 
ATOM     26  C   UNL     1      -6.722  -2.761  -4.288  0.00  0.00    +0.218 C 
ATOM     27  O   UNL     1      -5.911  -2.265  -5.041  0.00  0.00    -0.275 OA
ATOM     28  H   UNL     1      -7.557  -2.637  -2.457  0.00  0.00    +0.149 HD
BRANCH  25  34
ATOM     29  C   UNL     1      -4.253   0.850   0.473  0.00  0.00    +0.216 C 
ATOM     30  O   UNL     1      -3.136   0.499   0.791  0.00  0.00    -0.276 OA
ATOM     31  N   UNL     1      -4.753   0.499  -0.728  0.00  0.00    -0.301 N 
ATOM     32  C   UNL     1      -6.101   0.922  -1.130  0.00  0.00    +0.109 C 
ATOM     33  C   UNL     1      -6.901  -0.316  -1.549  0.00  0.00    +0.041 C 
ATOM     34  C   UNL     1      -6.131  -1.074  -2.633  0.00  0.00    +0.076 C 
ATOM     35  C   UNL     1      -4.783  -1.536  -2.074  0.00  0.00    +0.041 C 
ATOM     36  C   UNL     1      -3.957  -0.308  -1.664  0.00  0.00    +0.109 C 
BRANCH  29  37
ATOM     37  C   UNL     1      -5.081   1.678   1.421  0.00  0.00    +0.099 C 
BRANCH  37  39
ATOM     38  C   UNL     1      -3.061   2.792   2.381  0.00  0.00    +0.008 C 
ATOM     39  C   UNL     1      -4.286   1.934   2.703  0.00  0.00    -0.008 C 
ATOM     40  C   UNL     1      -5.170   2.667   3.714  0.00  0.00    +0.008 C 
ENDBRANCH  37  39
ENDBRANCH  29  37
ENDBRANCH  25  34
ENDBRANCH   1  26
TORSDOF 6
