REMARK  Name = ZINC54201031
REMARK  7 active torsions:
REMARK  status: ('A' for Active; 'I' for Inactive)
REMARK    1  A    between atoms: C_4  and  C_7
REMARK    2  A    between atoms: C_7  and  C_8
REMARK    3  A    between atoms: C_8  and  C_10
REMARK    4  A    between atoms: C_8  and  N_20
REMARK    5  A    between atoms: N_12  and  C_13
REMARK    6  A    between atoms: N_20  and  S_21
REMARK    7  A    between atoms: S_21  and  C_24
REMARK                            x       y       z     vdW  Elec       q    Type
REMARK                         _______ _______ _______ _____ _____    ______ ____
ROOT
ATOM      1  C   UNL     1       4.171  -0.963   1.399  0.00  0.00    +0.167 C 
ENDROOT
BRANCH   1   2
ATOM      2  C   UNL     1       5.422  -1.804   1.383  0.00  0.00    +0.237 C 
ATOM      3  O   UNL     1       6.446  -1.378   1.874  0.00  0.00    -0.274 OA
ATOM      4  N   UNL     1       5.402  -3.031   0.824  0.00  0.00    -0.266 N 
ATOM      5  H   UNL     1       4.583  -3.372   0.432  0.00  0.00    +0.156 HD
BRANCH   4   6
ATOM      6  C   UNL     1       6.560  -3.810   0.810  0.00  0.00    +0.172 A 
ATOM      7  C   UNL     1       6.533  -5.078   0.230  0.00  0.00    +0.219 A 
ATOM      8  C   UNL     1       7.693  -5.840   0.223  0.00  0.00    +0.056 A 
ATOM      9  C   UNL     1       8.838  -5.305   0.797  0.00  0.00    +0.024 A 
ATOM     10  C   UNL     1       8.790  -4.042   1.354  0.00  0.00    +0.113 A 
ATOM     11  N   UNL     1       7.675  -3.337   1.342  0.00  0.00    -0.236 NA
ATOM     12  O   UNL     1       5.387  -5.561  -0.321  0.00  0.00    -0.284 OA
ENDBRANCH   4   6
ENDBRANCH   1   2
BRANCH   1  13
ATOM     13  N   UNL     1       4.451   0.315   2.057  0.00  0.00    -0.178 NA
ATOM     14  H   UNL     1       5.319   0.735   1.953  0.00  0.00    +0.149 HD
BRANCH  13  15
ATOM     15  S   UNL     1       3.285   1.044   2.980  0.00  0.00    +0.059 S 
ATOM     16  O   UNL     1       3.862   2.235   3.497  0.00  0.00    -0.153 OA
ATOM     17  O   UNL     1       2.096   1.048   2.203  0.00  0.00    -0.153 OA
BRANCH  15  18
ATOM     18  C   UNL     1       2.981  -0.008   4.361  0.00  0.00    +0.105 A 
ATOM     19  C   UNL     1       2.016  -0.995   4.278  0.00  0.00    +0.029 A 
ATOM     20  C   UNL     1       1.777  -1.821   5.361  0.00  0.00    +0.017 A 
ATOM     21  C   UNL     1       2.503  -1.659   6.527  0.00  0.00    +0.018 A 
ATOM     22  C   UNL     1       3.468  -0.672   6.609  0.00  0.00    +0.017 A 
ATOM     23  C   UNL     1       3.710   0.150   5.524  0.00  0.00    +0.029 A 
ATOM     24 BR   UNL     1       2.177  -2.788   8.008  0.00  0.00    -0.050 Br
ENDBRANCH  15  18
ENDBRANCH  13  15
ENDBRANCH   1  13
BRANCH   1  25
ATOM     25  C   UNL     1       3.711  -0.707  -0.038  0.00  0.00    +0.065 C 
BRANCH  25  29
ATOM     26  C   UNL     1      -0.017   1.378   0.010  0.00  0.00    +0.000 A 
ATOM     27  C   UNL     1       1.171   2.086   0.002  0.00  0.00    +0.000 A 
ATOM     28  C   UNL     1       2.377   1.411  -0.013  0.00  0.00    +0.004 A 
ATOM     29  C   UNL     1       2.396   0.029  -0.020  0.00  0.00    -0.045 A 
ATOM     30  C   UNL     1       1.208  -0.679  -0.012  0.00  0.00    +0.004 A 
ATOM     31  C   UNL     1       0.002  -0.004   0.002  0.00  0.00    +0.000 A 
ENDBRANCH  25  29
ENDBRANCH   1  25
TORSDOF 7
