REMARK  Name = ZINC40770274
REMARK  9 active torsions:
REMARK  status: ('A' for Active; 'I' for Inactive)
REMARK    1  A    between atoms: C_1  and  C_2
REMARK    2  A    between atoms: C_2  and  C_3
REMARK    3  A    between atoms: C_2  and  C_4
REMARK    4  A    between atoms: C_4  and  C_6
REMARK    5  A    between atoms: C_4  and  N_15
REMARK    6  A    between atoms: C_6  and  N_7
REMARK    7  A    between atoms: N_7  and  C_8
REMARK    8  A    between atoms: C_8  and  C_9
REMARK    9  A    between atoms: N_18  and  C_21
REMARK                            x       y       z     vdW  Elec       q    Type
REMARK                         _______ _______ _______ _____ _____    ______ ____
ROOT
ATOM      1  C   UNL     1      -1.428  -0.534   0.147  0.00  0.00    +0.042 C 
ENDROOT
BRANCH   1   2
ATOM      2  N   UNL     1      -2.097  -0.260  -1.132  0.00  0.00    -0.304 NA
ATOM      3  C   UNL     1      -1.123  -0.183  -2.230  0.00  0.00    +0.066 C 
ATOM      4  C   UNL     1      -1.863   0.044  -3.550  0.00  0.00    -0.064 C 
ATOM      5  N   UNL     1      -2.635   1.291  -3.470  0.00  0.00    +0.379 N 
ATOM      6  C   UNL     1      -3.620   1.190  -2.385  0.00  0.00    -0.064 C 
ATOM      7  C   UNL     1      -2.895   0.972  -1.055  0.00  0.00    +0.066 C 
ATOM      8  C   UNL     1      -3.331   1.518  -4.743  0.00  0.00    -0.096 C 
ATOM      9  H   UNL     1      -2.011   2.062  -3.286  0.00  0.00    -0.082 HD
ENDBRANCH   1   2
BRANCH   1  11
ATOM     10  C   UNL     1      -0.489   1.777   0.269  0.00  0.00    +0.009 C 
ATOM     11  C   UNL     1      -0.141   0.288   0.236  0.00  0.00    -0.002 C 
ATOM     12  C   UNL     1       0.616  -0.087   1.512  0.00  0.00    +0.009 C 
ENDBRANCH   1  11
BRANCH   1  13
ATOM     13  C   UNL     1      -1.089  -2.024   0.236  0.00  0.00    -0.063 C 
BRANCH  13  14
ATOM     14  N   UNL     1      -2.307  -2.817   0.019  0.00  0.00    +0.385 N 
ATOM     15  H   UNL     1      -3.020  -2.522   0.670  0.00  0.00    -0.085 HD
ATOM     16  H   UNL     1      -2.635  -2.679  -0.925  0.00  0.00    -0.085 HD
BRANCH  14  17
ATOM     17  C   UNL     1      -2.009  -4.240   0.231  0.00  0.00    -0.007 C 
BRANCH  17  18
ATOM     18  C   UNL     1      -3.258  -5.053   0.009  0.00  0.00    +0.090 A 
ATOM     19  C   UNL     1      -3.651  -5.586  -1.162  0.00  0.00    +0.044 A 
ATOM     20  C   UNL     1      -4.868  -6.262  -0.916  0.00  0.00    +0.056 A 
ATOM     21  C   UNL     1      -5.145  -6.103   0.392  0.00  0.00    +0.165 A 
ATOM     22  O   UNL     1      -4.163  -5.374   0.948  0.00  0.00    -0.456 OA
ATOM     23  I   UNL     1      -6.820  -6.867   1.392  0.00  0.00    -0.001 I 
ENDBRANCH  17  18
ENDBRANCH  14  17
ENDBRANCH  13  14
ENDBRANCH   1  13
TORSDOF 6
