REMARK  Name = ZINC62254049
REMARK  2 active torsions:
REMARK  status: ('A' for Active; 'I' for Inactive)
REMARK    1  A    between atoms: C_3  and  N_10
REMARK    2  A    between atoms: C_4  and  C_8
REMARK                            x       y       z     vdW  Elec       q    Type
REMARK                         _______ _______ _______ _____ _____    ______ ____
ROOT
ATOM      1  N   UNL     1       3.582   2.124  -0.021  0.00  0.00    -0.321 N 
ATOM      2  C   UNL     1       4.217   2.522  -1.286  0.00  0.00    +0.127 C 
ATOM      3  C   UNL     1       4.249   4.053  -1.373  0.00  0.00    +0.142 C 
ATOM      4  N   UNL     1       4.711   4.598  -0.095  0.00  0.00    -0.333 N 
ATOM      5  C   UNL     1       5.208   5.846   0.145  0.00  0.00    +0.105 A 
ATOM      6  C   UNL     1       5.493   5.903   1.462  0.00  0.00    +0.102 A 
ATOM      7  N   UNL     1       5.178   4.718   2.009  0.00  0.00    -0.348 N 
ATOM      8  C   UNL     1       4.714   3.931   1.083  0.00  0.00    +0.105 A 
ATOM      9  C   UNL     1       4.246   2.505   1.239  0.00  0.00    +0.177 C 
ATOM     10  H   UNL     1       5.281   4.485   2.945  0.00  0.00    +0.166 HD
ENDROOT
BRANCH   1  13
ATOM     11  C   UNL     1      -0.017   1.378   0.010  0.00  0.00    +0.003 A 
ATOM     12  C   UNL     1       1.169   2.087   0.002  0.00  0.00    +0.023 A 
ATOM     13  C   UNL     1       2.382   1.410  -0.013  0.00  0.00    +0.036 A 
ATOM     14  C   UNL     1       2.398   0.021  -0.021  0.00  0.00    +0.006 A 
ATOM     15  C   UNL     1       1.208  -0.683  -0.013  0.00  0.00    +0.047 A 
ATOM     16  C   UNL     1       0.002  -0.004   0.002  0.00  0.00    +0.020 A 
ATOM     17 CL   UNL     1       1.227  -2.419  -0.023  0.00  0.00    -0.083 Cl
BRANCH  14  18
ATOM     18  C   UNL     1       3.711  -0.718  -0.038  0.00  0.00    +0.147 C 
ATOM     19 CL   UNL     1       4.252  -1.022   1.655  0.00  0.00    -0.120 Cl
ENDBRANCH  14  18
ENDBRANCH   1  13
TORSDOF 2
