REMARK  Name = ZINC20642709
REMARK  13 active torsions:
REMARK  status: ('A' for Active; 'I' for Inactive)
REMARK    1  A    between atoms: C_1  and  C_2
REMARK    2  A    between atoms: C_2  and  C_3
REMARK    3  A    between atoms: C_3  and  C_4
REMARK    4  A    between atoms: C_4  and  N_5
REMARK    5  A    between atoms: C_6  and  C_8
REMARK    6  A    between atoms: C_8  and  C_9
REMARK    7  A    between atoms: C_9  and  C_10
REMARK    8  A    between atoms: C_24  and  S_25
REMARK    9  A    between atoms: S_25  and  C_26
REMARK   10  A    between atoms: C_26  and  C_27
REMARK   11  A    between atoms: N_29  and  C_30
REMARK   12  A    between atoms: C_33  and  C_36
REMARK   13  A    between atoms: C_36  and  C_37
REMARK                            x       y       z     vdW  Elec       q    Type
REMARK                         _______ _______ _______ _____ _____    ______ ____
ROOT
ATOM      1  C   UNL     1       2.848  -2.288  -0.028  0.00  0.00    +0.194 C 
ATOM      2  C   UNL     1       1.348  -2.082  -0.017  0.00  0.00    +0.251 C 
ATOM      3  O   UNL     1       0.490  -2.938  -0.022  0.00  0.00    -0.272 OA
ATOM      4  N   UNL     1       1.168  -0.741  -0.000  0.00  0.00    -0.200 N 
ATOM      5  C   UNL     1       2.391  -0.092   0.001  0.00  0.00    +0.139 C 
ATOM      6  N   UNL     1       3.394  -0.924  -0.015  0.00  0.00    -0.255 NA
ATOM      7  C   UNL     1       2.372   1.387   0.018  0.00  0.00    +0.041 A 
ATOM      8  C   UNL     1       3.550   2.128   0.019  0.00  0.00    +0.013 A 
ATOM      9  C   UNL     1       3.486   3.506   0.035  0.00  0.00    +0.001 A 
ATOM     10  C   UNL     1       2.258   4.153   0.050  0.00  0.00    +0.002 A 
ATOM     11  C   UNL     1       1.082   3.436   0.049  0.00  0.00    +0.028 A 
ATOM     12  C   UNL     1       1.123   2.040   0.033  0.00  0.00    +0.077 A 
ATOM     13  N   UNL     1      -0.015   1.302   0.031  0.00  0.00    -0.225 NA
ATOM     14  C   UNL     1       0.002  -0.004   0.015  0.00  0.00    +0.169 C 
ENDROOT
BRANCH   1  15
ATOM     15  C   UNL     1       3.293  -3.056   1.218  0.00  0.00    +0.045 C 
BRANCH  15  16
ATOM     16  C   UNL     1       4.807  -3.273   1.170  0.00  0.00    +0.098 C 
BRANCH  16  18
ATOM     17  N   UNL     1       6.546  -4.336   2.571  0.00  0.00    -0.315 N 
ATOM     18  C   UNL     1       5.245  -4.029   2.397  0.00  0.00    +0.213 C 
ATOM     19  O   UNL     1       4.428  -4.362   3.229  0.00  0.00    -0.276 OA
ATOM     20  H   UNL     1       7.288  -4.034   1.817  0.00  0.00    +0.149 HD
BRANCH  17  21
ATOM     21  C   UNL     1       6.973  -5.071   3.764  0.00  0.00    +0.104 C 
BRANCH  21  22
ATOM     22  C   UNL     1       8.486  -5.288   3.716  0.00  0.00    +0.018 C 
BRANCH  22  24
ATOM     23  C   UNL     1      10.445  -6.273   4.913  0.00  0.00    +0.004 C 
ATOM     24  C   UNL     1       8.931  -6.056   4.962  0.00  0.00    -0.002 C 
ENDBRANCH  22  24
ENDBRANCH  21  22
ENDBRANCH  17  21
ENDBRANCH  16  18
ENDBRANCH  15  16
ENDBRANCH   1  15
BRANCH  14  25
ATOM     25  S   UNL     1      -1.535  -0.864   0.015  0.00  0.00    -0.080 S 
BRANCH  25  26
ATOM     26  C   UNL     1      -2.680   0.538   0.038  0.00  0.00    +0.173 C 
BRANCH  26  27
ATOM     27  C   UNL     1      -4.098   0.029   0.041  0.00  0.00    +0.227 C 
ATOM     28  O   UNL     1      -4.314  -1.165   0.029  0.00  0.00    -0.275 OA
ATOM     29  N   UNL     1      -5.127   0.899   0.058  0.00  0.00    -0.285 N 
ATOM     30  H   UNL     1      -4.933   1.978   0.146  0.00  0.00    +0.155 HD
BRANCH  29  31
ATOM     31  C   UNL     1      -6.442   0.431  -0.037  0.00  0.00    +0.033 A 
ATOM     32  C   UNL     1      -7.399   1.175  -0.715  0.00  0.00    +0.023 A 
ATOM     33  C   UNL     1      -8.695   0.707  -0.811  0.00  0.00    +0.005 A 
ATOM     34  C   UNL     1      -9.042  -0.496  -0.224  0.00  0.00    -0.048 A 
ATOM     35  C   UNL     1      -8.093  -1.237   0.456  0.00  0.00    +0.005 A 
ATOM     36  C   UNL     1      -6.794  -0.777   0.551  0.00  0.00    +0.023 A 
BRANCH  34  37
ATOM     37  C   UNL     1     -10.459  -1.000  -0.325  0.00  0.00    +0.032 C 
ATOM     38  C   UNL     1     -11.272  -0.478   0.861  0.00  0.00    +0.009 C 
ENDBRANCH  34  37
ENDBRANCH  29  31
ENDBRANCH  26  27
ENDBRANCH  25  26
ENDBRANCH  14  25
TORSDOF 11
