REMARK  Name = ZINC01897919
REMARK  4 active torsions:
REMARK  status: ('A' for Active; 'I' for Inactive)
REMARK    1  A    between atoms: C_3  and  C_6
REMARK    2  A    between atoms: C_12  and  N_24
REMARK    3  A    between atoms: C_13  and  C_15
REMARK    4  A    between atoms: C_15  and  C_17
REMARK                            x       y       z     vdW  Elec       q    Type
REMARK                         _______ _______ _______ _____ _____    ______ ____
ROOT
ATOM      1  C   UNL     1      -1.203   2.116  -0.097  0.00  0.00    +0.034 A 
ATOM      2  C   UNL     1      -1.342   3.002   0.977  0.00  0.00    -0.015 A 
ATOM      3  C   UNL     1      -2.250   4.033   0.902  0.00  0.00    +0.046 A 
ATOM      4  N   UNL     1      -2.999   4.185  -0.185  0.00  0.00    -0.244 NA
ATOM      5  C   UNL     1      -2.913   3.384  -1.221  0.00  0.00    +0.112 A 
ATOM      6  C   UNL     1      -2.010   2.298  -1.261  0.00  0.00    +0.040 A 
ATOM      7  C   UNL     1      -2.042   1.509  -2.478  0.00  0.00    +0.053 A 
ATOM      8  C   UNL     1      -2.926   1.881  -3.476  0.00  0.00    +0.083 A 
ATOM      9  S   UNL     1      -3.743   3.308  -2.789  0.00  0.00    -0.064 S 
ATOM     10  C   UNL     1      -2.440   5.027   2.019  0.00  0.00    +0.056 C 
ATOM     11  C   UNL     1      -1.861   4.487   3.324  0.00  0.00    +0.006 C 
ATOM     12  C   UNL     1      -0.424   4.022   3.059  0.00  0.00    +0.005 C 
ATOM     13  C   UNL     1      -0.477   2.769   2.188  0.00  0.00    +0.038 C 
ENDROOT
BRANCH   1  16
ATOM     14  C   UNL     1       0.796  -0.892   0.484  0.00  0.00    +0.042 A 
ATOM     15  C   UNL     1      -0.349  -0.112   0.733  0.00  0.00    +0.050 A 
ATOM     16  C   UNL     1      -0.232   1.010  -0.030  0.00  0.00    +0.136 A 
ATOM     17  O   UNL     1       0.925   0.931  -0.717  0.00  0.00    -0.463 OA
ATOM     18  C   UNL     1       1.548  -0.217  -0.409  0.00  0.00    +0.196 A 
ENDBRANCH   1  16
BRANCH   7  19
ATOM     19  N   UNL     1      -1.207   0.415  -2.639  0.00  0.00    -0.356 N 
ATOM     20  H   UNL     1      -1.254  -0.117  -3.449  0.00  0.00    +0.142 HD
ATOM     21  H   UNL     1      -0.575   0.180  -1.941  0.00  0.00    +0.142 HD
ENDBRANCH   7  19
BRANCH   8  22
ATOM     22  C   UNL     1      -3.131   1.276  -4.736  0.00  0.00    +0.202 C 
ATOM     23  O   UNL     1      -2.400   0.372  -5.104  0.00  0.00    -0.286 OA
BRANCH  22  24
ATOM     24  C   UNL     1      -4.232   1.738  -5.609  0.00  0.00    +0.023 A 
ATOM     25  C   UNL     1      -5.393   2.274  -5.048  0.00  0.00    +0.013 A 
ATOM     26  C   UNL     1      -6.413   2.709  -5.866  0.00  0.00    +0.021 A 
ATOM     27  C   UNL     1      -6.294   2.604  -7.242  0.00  0.00    +0.041 A 
ATOM     28  C   UNL     1      -5.147   2.067  -7.804  0.00  0.00    +0.021 A 
ATOM     29  C   UNL     1      -4.117   1.635  -6.996  0.00  0.00    +0.013 A 
ATOM     30 CL   UNL     1      -7.586   3.147  -8.266  0.00  0.00    -0.084 Cl
ENDBRANCH  22  24
ENDBRANCH   8  22
TORSDOF 4
