REMARK  Name = ZINC10510795
REMARK  12 active torsions:
REMARK  status: ('A' for Active; 'I' for Inactive)
REMARK    1  A    between atoms: C_4  and  C_7
REMARK    2  A    between atoms: C_7  and  C_8
REMARK    3  A    between atoms: C_8  and  O_9
REMARK    4  A    between atoms: O_9  and  C_10
REMARK    5  A    between atoms: C_15  and  C_16
REMARK    6  A    between atoms: N_18  and  C_19
REMARK    7  A    between atoms: C_19  and  N_21
REMARK    8  A    between atoms: N_21  and  N_22
REMARK    9  A    between atoms: C_23  and  C_25
REMARK   10  A    between atoms: C_25  and  O_26
REMARK   11  A    between atoms: O_26  and  C_27
REMARK   12  A    between atoms: C_30  and  N_33
REMARK                            x       y       z     vdW  Elec       q    Type
REMARK                         _______ _______ _______ _____ _____    ______ ____
ROOT
ATOM      1  C   UNL     1       7.885  -3.041   1.404  0.00  0.00    +0.253 C 
ATOM      2  O   UNL     1       7.398  -2.770   0.324  0.00  0.00    -0.270 OA
ATOM      3  N   UNL     1       9.060  -3.698   1.467  0.00  0.00    -0.263 N 
ATOM      4  H   UNL     1       9.449  -3.915   2.329  0.00  0.00    +0.157 HD
ENDROOT
BRANCH   1  10
ATOM      5  C   UNL     1       5.968  -1.968   2.584  0.00  0.00    +0.133 A 
ATOM      6  C   UNL     1       5.321  -1.611   3.758  0.00  0.00    +0.046 A 
ATOM      7  C   UNL     1       5.883  -1.924   4.980  0.00  0.00    +0.004 A 
ATOM      8  C   UNL     1       7.093  -2.594   5.044  0.00  0.00    +0.001 A 
ATOM      9  C   UNL     1       7.750  -2.956   3.889  0.00  0.00    +0.017 A 
ATOM     10  C   UNL     1       7.191  -2.651   2.645  0.00  0.00    +0.079 A 
BRANCH   5  11
ATOM     11  O   UNL     1       5.418  -1.661   1.382  0.00  0.00    -0.491 OA
BRANCH  11  12
ATOM     12  C   UNL     1       4.171  -0.963   1.399  0.00  0.00    +0.233 C 
BRANCH  12  13
ATOM     13  C   UNL     1       3.711  -0.707  -0.038  0.00  0.00    +0.076 C 
BRANCH  13  17
ATOM     14  C   UNL     1      -0.017   1.378   0.010  0.00  0.00    +0.000 A 
ATOM     15  C   UNL     1       1.171   2.086   0.002  0.00  0.00    +0.000 A 
ATOM     16  C   UNL     1       2.377   1.411  -0.013  0.00  0.00    +0.004 A 
ATOM     17  C   UNL     1       2.396   0.029  -0.020  0.00  0.00    -0.044 A 
ATOM     18  C   UNL     1       1.208  -0.679  -0.012  0.00  0.00    +0.004 A 
ATOM     19  C   UNL     1       0.002  -0.004   0.002  0.00  0.00    +0.000 A 
ENDBRANCH  13  17
ENDBRANCH  12  13
ENDBRANCH  11  12
ENDBRANCH   5  11
ENDBRANCH   1  10
BRANCH   3  20
ATOM     20  C   UNL     1       9.694  -4.055   0.332  0.00  0.00    +0.153 C 
ATOM     21  S   UNL     1       9.008  -3.673  -1.189  0.00  0.00    -0.017 S 
BRANCH  20  22
ATOM     22  N   UNL     1      10.870  -4.712   0.396  0.00  0.00    -0.245 N 
ATOM     23  H   UNL     1      11.326  -4.968  -0.421  0.00  0.00    +0.172 HD
BRANCH  22  24
ATOM     24  N   UNL     1      11.431  -5.025   1.640  0.00  0.00    -0.232 N 
ATOM     25  C   UNL     1      12.606  -5.682   1.703  0.00  0.00    +0.267 C 
ATOM     26  O   UNL     1      13.177  -6.003   0.683  0.00  0.00    -0.271 OA
ATOM     27  H   UNL     1      10.975  -4.768   2.457  0.00  0.00    +0.173 HD
BRANCH  25  28
ATOM     28  C   UNL     1      13.211  -6.018   3.042  0.00  0.00    +0.326 C 
BRANCH  28  29
ATOM     29  O   UNL     1      14.446  -6.709   2.847  0.00  0.00    -0.483 OA
BRANCH  29  30
ATOM     30  C   UNL     1      15.124  -7.087   3.963  0.00  0.00    +0.121 A 
ATOM     31  C   UNL     1      14.608  -6.804   5.219  0.00  0.00    +0.048 A 
ATOM     32  C   UNL     1      15.300  -7.189   6.351  0.00  0.00    +0.036 A 
ATOM     33  C   UNL     1      16.505  -7.857   6.233  0.00  0.00    +0.126 A 
ATOM     34  C   UNL     1      17.021  -8.141   4.982  0.00  0.00    +0.036 A 
ATOM     35  C   UNL     1      16.331  -7.762   3.847  0.00  0.00    +0.048 A 
BRANCH  33  36
ATOM     36  N   UNL     1      17.243  -8.270   7.448  0.00  0.00    +0.056 N 
ATOM     37  O   UNL     1      16.793  -8.022   8.542  0.00  0.00    -0.126 OA
ATOM     38  O   UNL     1      18.297  -8.854   7.346  0.00  0.00    -0.126 OA
ENDBRANCH  33  36
ENDBRANCH  29  30
ENDBRANCH  28  29
ENDBRANCH  25  28
ENDBRANCH  22  24
ENDBRANCH  20  22
ENDBRANCH   3  20
TORSDOF 12
