REMARK  Name = ZINC39594056
REMARK  8 active torsions:
REMARK  status: ('A' for Active; 'I' for Inactive)
REMARK    1  A    between atoms: C_6  and  C_7
REMARK    2  A    between atoms: C_9  and  C_13
REMARK    3  A    between atoms: C_17  and  S_21
REMARK    4  A    between atoms: N_19  and  N_20
REMARK    5  A    between atoms: S_21  and  C_22
REMARK    6  A    between atoms: C_22  and  C_23
REMARK    7  A    between atoms: N_25  and  C_26
REMARK    8  A    between atoms: C_31  and  C_32
REMARK                            x       y       z     vdW  Elec       q    Type
REMARK                         _______ _______ _______ _____ _____    ______ ____
ROOT
ATOM      1  C   UNL     1      -3.257  -3.170  -1.236  0.00  0.00    +0.244 C 
ATOM      2  N   UNL     1      -2.617  -4.491  -1.281  0.00  0.00    -0.167 NA
ATOM      3  N   UNL     1      -3.428  -5.369  -1.591  0.00  0.00    -0.159 NA
ATOM      4  C   UNL     1      -4.765  -4.804  -1.813  0.00  0.00    +0.272 C 
ATOM      5  N   UNL     1      -4.714  -3.453  -1.196  0.00  0.00    -0.183 NA
ENDROOT
BRANCH   1   8
ATOM      6  C   UNL     1      -1.236  -0.808   0.013  0.00  0.00    +0.091 C 
ATOM      7  C   UNL     1      -1.331  -2.152   0.004  0.00  0.00    +0.035 C 
ATOM      8  C   UNL     1      -2.826  -2.412   0.021  0.00  0.00    +0.195 C 
ATOM      9  N   UNL     1      -3.402  -1.057   0.038  0.00  0.00    -0.176 NA
ATOM     10  N   UNL     1      -2.473  -0.246   0.038  0.00  0.00    -0.154 NA
BRANCH   6  16
ATOM     11  C   UNL     1       0.022   1.345   0.019  0.00  0.00    +0.013 A 
ATOM     12  C   UNL     1       1.210   2.047   0.010  0.00  0.00    +0.039 A 
ATOM     13  C   UNL     1       2.417   1.368  -0.016  0.00  0.00    +0.123 A 
ATOM     14  C   UNL     1       2.438  -0.017  -0.032  0.00  0.00    +0.039 A 
ATOM     15  C   UNL     1       1.256  -0.727  -0.023  0.00  0.00    +0.013 A 
ATOM     16  C   UNL     1       0.038  -0.049   0.003  0.00  0.00    +0.002 A 
ATOM     17  F   UNL     1       3.578   2.060  -0.025  0.00  0.00    -0.205 F 
ENDBRANCH   6  16
ENDBRANCH   1   8
BRANCH   5  18
ATOM     18  N   UNL     1      -5.200  -3.488   0.174  0.00  0.00    -0.263 NA
ATOM     19  H   UNL     1      -6.190  -3.681   0.202  0.00  0.00    +0.137 HD
ATOM     20  H   UNL     1      -4.685  -4.161   0.723  0.00  0.00    +0.137 HD
ENDBRANCH   5  18
BRANCH   4  21
ATOM     21  S   UNL     1      -5.109  -4.674  -3.590  0.00  0.00    -0.107 S 
BRANCH  21  22
ATOM     22  C   UNL     1      -3.779  -3.613  -4.218  0.00  0.00    +0.168 C 
BRANCH  22  23
ATOM     23  C   UNL     1      -3.947  -3.421  -5.703  0.00  0.00    +0.227 C 
ATOM     24  O   UNL     1      -4.874  -3.949  -6.281  0.00  0.00    -0.275 OA
ATOM     25  N   UNL     1      -3.069  -2.664  -6.389  0.00  0.00    -0.284 N 
ATOM     26  H   UNL     1      -2.375  -2.177  -5.916  0.00  0.00    +0.155 HD
BRANCH  25  27
ATOM     27  C   UNL     1      -3.157  -2.579  -7.783  0.00  0.00    +0.045 A 
ATOM     28  C   UNL     1      -3.753  -3.604  -8.506  0.00  0.00    +0.025 A 
ATOM     29  C   UNL     1      -3.839  -3.518  -9.882  0.00  0.00    +0.022 A 
ATOM     30  C   UNL     1      -3.331  -2.412 -10.540  0.00  0.00    +0.042 A 
ATOM     31  C   UNL     1      -2.736  -1.389  -9.822  0.00  0.00    +0.034 A 
ATOM     32  C   UNL     1      -2.654  -1.467  -8.446  0.00  0.00    +0.077 A 
ATOM     33 CL   UNL     1      -3.439  -2.307 -12.270  0.00  0.00    -0.084 Cl
BRANCH  32  34
ATOM     34  C   UNL     1      -2.011  -0.350  -7.664  0.00  0.00    +0.419 C 
ATOM     35  F   UNL     1      -1.585   0.650  -8.544  0.00  0.00    -0.166 F 
ATOM     36  F   UNL     1      -2.941   0.184  -6.765  0.00  0.00    -0.166 F 
ATOM     37  F   UNL     1      -0.912  -0.849  -6.957  0.00  0.00    -0.166 F 
ENDBRANCH  32  34
ENDBRANCH  25  27
ENDBRANCH  22  23
ENDBRANCH  21  22
ENDBRANCH   4  21
TORSDOF 8
