REMARK  Name = ZINC43699358
REMARK  7 active torsions:
REMARK  status: ('A' for Active; 'I' for Inactive)
REMARK    1  A    between atoms: C_4  and  O_8
REMARK    2  A    between atoms: O_8  and  C_9
REMARK    3  A    between atoms: C_9  and  C_10
REMARK    4  A    between atoms: C_12  and  C_15
REMARK    5  A    between atoms: C_16  and  C_17
REMARK    6  A    between atoms: C_17  and  C_18
REMARK    7  A    between atoms: C_18  and  O_19
REMARK                            x       y       z     vdW  Elec       q    Type
REMARK                         _______ _______ _______ _____ _____    ______ ____
ROOT
ATOM      1  C   UNL     1       5.469  -1.682   1.015  0.00  0.00    +0.028 A 
ATOM      2  C   UNL     1       6.715  -1.172   0.900  0.00  0.00    +0.031 A 
ATOM      3  C   UNL     1       7.786  -2.042   0.705  0.00  0.00    +0.032 A 
ATOM      4  C   UNL     1       7.530  -3.385   0.637  0.00  0.00    +0.062 A 
ATOM      5  S   UNL     1       5.760  -3.436   0.857  0.00  0.00    -0.097 S 
ENDROOT
BRANCH   3   6
ATOM      6  C   UNL     1       9.123  -1.542   0.577  0.00  0.00    -0.066 C 
ATOM      7  C   UNL     1      10.218  -1.133   0.472  0.00  0.00    -0.095 C 
BRANCH   7   8
ATOM      8  C   UNL     1      11.591  -0.620   0.341  0.00  0.00    +0.117 C 
BRANCH   8   9
ATOM      9  C   UNL     1      12.556  -1.790   0.137  0.00  0.00    +0.168 C 
BRANCH   9  10
ATOM     10  O   UNL     1      13.889  -1.292   0.009  0.00  0.00    -0.394 OA
ATOM     11  H   UNL     1      14.555  -1.980  -0.123  0.00  0.00    +0.209 HD
ENDBRANCH   9  10
ENDBRANCH   8   9
ENDBRANCH   7   8
ENDBRANCH   3   6
BRANCH   1  12
ATOM     12  C   UNL     1       4.167  -0.955   1.230  0.00  0.00    +0.271 C 
BRANCH  12  13
ATOM     13  O   UNL     1       3.587  -0.632  -0.036  0.00  0.00    -0.484 OA
BRANCH  13  17
ATOM     14  C   UNL     1      -0.017   1.378   0.010  0.00  0.00    +0.003 A 
ATOM     15  C   UNL     1       1.170   2.088   0.002  0.00  0.00    +0.024 A 
ATOM     16  C   UNL     1       2.378   1.418  -0.013  0.00  0.00    +0.084 A 
ATOM     17  C   UNL     1       2.400   0.030  -0.021  0.00  0.00    +0.157 A 
ATOM     18  C   UNL     1       1.208  -0.680  -0.013  0.00  0.00    +0.084 A 
ATOM     19  C   UNL     1       0.002  -0.004   0.002  0.00  0.00    +0.024 A 
ATOM     20 CL   UNL     1       1.230  -2.416  -0.023  0.00  0.00    -0.080 Cl
ATOM     21 CL   UNL     1       3.867   2.310  -0.023  0.00  0.00    -0.080 Cl
ENDBRANCH  13  17
ENDBRANCH  12  13
ENDBRANCH   1  12
TORSDOF 7
