REMARK  Name = ZINC49060121
REMARK  6 active torsions:
REMARK  status: ('A' for Active; 'I' for Inactive)
REMARK    1  A    between atoms: C_1  and  C_2
REMARK    2  A    between atoms: C_5  and  C_8
REMARK    3  A    between atoms: N_13  and  C_15
REMARK    4  A    between atoms: C_15  and  C_17
REMARK    5  A    between atoms: C_15  and  C_18
REMARK    6  A    between atoms: C_23  and  C_26
REMARK                            x       y       z     vdW  Elec       q    Type
REMARK                         _______ _______ _______ _____ _____    ______ ____
ROOT
ATOM      1  C   UNL     1       0.094  -6.863   2.465  0.00  0.00    +0.194 C 
ATOM      2  C   UNL     1       1.338  -6.436   3.247  0.00  0.00    +0.043 C 
ENDROOT
BRANCH   1   3
ATOM      3  C   UNL     1      -1.141  -6.475   3.236  0.00  0.00    +0.243 C 
ATOM      4  O   UNL     1      -1.950  -5.717   2.744  0.00  0.00    -0.273 OA
ATOM      5  N   UNL     1      -1.347  -6.969   4.473  0.00  0.00    -0.263 N 
ATOM      6  C   UNL     1      -2.486  -6.611   5.183  0.00  0.00    +0.165 A 
ATOM      7  N   UNL     1      -2.864  -6.978   6.393  0.00  0.00    -0.221 NA
ATOM      8  C   UNL     1      -4.000  -6.532   6.925  0.00  0.00    +0.115 A 
ATOM      9  C   UNL     1      -4.788  -5.679   6.200  0.00  0.00    +0.080 A 
ATOM     10  S   UNL     1      -3.823  -5.526   4.703  0.00  0.00    -0.060 S 
ATOM     11  H   UNL     1      -0.701  -7.575   4.867  0.00  0.00    +0.157 HD
BRANCH   8  12
ATOM     12  C   UNL     1      -4.406  -6.954   8.282  0.00  0.00    +0.153 A 
ATOM     13  C   UNL     1      -3.711  -7.789   9.100  0.00  0.00    +0.051 A 
ATOM     14  C   UNL     1      -4.462  -7.913  10.287  0.00  0.00    +0.042 A 
ATOM     15  C   UNL     1      -5.566  -7.157  10.136  0.00  0.00    +0.196 A 
ATOM     16  O   UNL     1      -5.527  -6.574   8.925  0.00  0.00    -0.461 OA
ENDBRANCH   8  12
ENDBRANCH   1   3
BRANCH   1  22
ATOM     17  C   UNL     1       0.058  -4.256  -0.021  0.00  0.00    +0.092 A 
ATOM     18  C   UNL     1       0.067  -4.954  -1.252  0.00  0.00    +0.035 A 
ATOM     19  C   UNL     1       0.085  -6.317  -1.220  0.00  0.00    +0.074 A 
ATOM     20  C   UNL     1       0.094  -6.949   0.043  0.00  0.00    +0.268 A 
ATOM     21  O   UNL     1       0.111  -8.167   0.120  0.00  0.00    -0.266 OA
ATOM     22  N   UNL     1       0.085  -6.198   1.160  0.00  0.00    -0.217 N 
ATOM     23  N   UNL     1       0.073  -4.915   1.113  0.00  0.00    -0.168 NA
BRANCH  17  28
ATOM     24  C   UNL     1      -0.018   1.503   0.010  0.00  0.00    +0.044 C 
ATOM     25  C   UNL     1       0.002  -0.004   0.002  0.00  0.00    -0.050 A 
ATOM     26  C   UNL     1       0.006  -0.686  -1.201  0.00  0.00    +0.004 A 
ATOM     27  C   UNL     1       0.024  -2.066  -1.215  0.00  0.00    +0.010 A 
ATOM     28  C   UNL     1       0.039  -2.772  -0.013  0.00  0.00    +0.002 A 
ATOM     29  C   UNL     1       0.036  -2.079   1.196  0.00  0.00    +0.010 A 
ATOM     30  C   UNL     1       0.023  -0.700   1.198  0.00  0.00    +0.004 A 
ENDBRANCH  17  28
ENDBRANCH   1  22
TORSDOF 4
