REMARK  Name = ZINC20800661
REMARK  3 active torsions:
REMARK  status: ('A' for Active; 'I' for Inactive)
REMARK    1  A    between atoms: C_4  and  N_7
REMARK    2  A    between atoms: C_8  and  C_10
REMARK    3  A    between atoms: C_19  and  C_24
REMARK                            x       y       z     vdW  Elec       q    Type
REMARK                         _______ _______ _______ _____ _____    ______ ____
ROOT
ATOM      1  C   UNL     1       4.930  -2.704   0.151  0.00  0.00    +0.102 A 
ATOM      2  C   UNL     1       4.981  -4.091   0.139  0.00  0.00    +0.031 A 
ATOM      3  C   UNL     1       6.238  -4.727   0.233  0.00  0.00    +0.038 A 
ATOM      4  C   UNL     1       7.401  -3.983   0.340  0.00  0.00    +0.030 A 
ATOM      5  N   UNL     1       7.352  -2.635   0.346  0.00  0.00    -0.325 N 
ATOM      6  H   UNL     1       8.180  -2.135   0.415  0.00  0.00    +0.169 HD
ATOM      7  C   UNL     1       6.191  -1.966   0.253  0.00  0.00    +0.261 A 
ATOM      8  O   UNL     1       6.187  -0.748   0.259  0.00  0.00    -0.267 OA
ATOM      9  C   UNL     1       8.749  -4.646   0.462  0.00  0.00    +0.065 C 
ATOM     10  C   UNL     1       8.726  -6.060  -0.109  0.00  0.00    +0.068 C 
ATOM     11  C   UNL     1       7.608  -6.862   0.572  0.00  0.00    +0.091 C 
ATOM     12  C   UNL     1       6.296  -6.199   0.208  0.00  0.00    +0.166 C 
ATOM     13  O   UNL     1       5.324  -6.859  -0.093  0.00  0.00    -0.292 OA
ENDROOT
BRANCH  10  14
ATOM     14  C   UNL     1      10.052  -6.728   0.148  0.00  0.00    +0.109 A 
ATOM     15  C   UNL     1      10.893  -7.195  -0.793  0.00  0.00    +0.045 A 
ATOM     16  C   UNL     1      12.008  -7.737  -0.114  0.00  0.00    +0.041 A 
ATOM     17  C   UNL     1      11.782  -7.569   1.202  0.00  0.00    +0.195 A 
ATOM     18  O   UNL     1      10.599  -6.952   1.354  0.00  0.00    -0.468 OA
ENDBRANCH  10  14
BRANCH   1  20
ATOM     19  N   UNL     1       3.622  -0.651  -0.047  0.00  0.00    -0.281 N 
ATOM     20  C   UNL     1       3.644  -1.995   0.057  0.00  0.00    +0.254 C 
ATOM     21  O   UNL     1       2.601  -2.621   0.073  0.00  0.00    -0.270 OA
ATOM     22  H   UNL     1       4.451  -0.158  -0.144  0.00  0.00    +0.155 HD
BRANCH  19  26
ATOM     23  C   UNL     1      -0.011   1.385   0.048  0.00  0.00    +0.000 A 
ATOM     24  C   UNL     1       1.091   1.909   0.701  0.00  0.00    +0.002 A 
ATOM     25  C   UNL     1       2.297   1.236   0.671  0.00  0.00    +0.023 A 
ATOM     26  C   UNL     1       2.402   0.032  -0.014  0.00  0.00    +0.034 A 
ATOM     27  C   UNL     1       1.294  -0.490  -0.668  0.00  0.00    +0.023 A 
ATOM     28  C   UNL     1       0.091   0.188  -0.635  0.00  0.00    +0.002 A 
ENDBRANCH  19  26
ENDBRANCH   1  20
TORSDOF 3
