REMARK  Name = ZINC12293610
REMARK  5 active torsions:
REMARK  status: ('A' for Active; 'I' for Inactive)
REMARK    1  A    between atoms: C_6  and  C_11
REMARK    2  A    between atoms: C_11  and  C_13
REMARK    3  A    between atoms: C_11  and  O_31
REMARK    4  A    between atoms: C_13  and  N_56
REMARK    5  A    between atoms: C_20  and  O_30
REMARK                            x       y       z     vdW  Elec       q    Type
REMARK                         _______ _______ _______ _____ _____    ______ ____
ROOT
ATOM      1  C   UNL     1       2.200   9.965  -0.534  0.00  0.00    -0.075 C 
ATOM      2  C   UNL     1       2.139  11.494  -0.539  0.00  0.00    +0.029 C 
ATOM      3  C   UNL     1       2.428  12.007  -1.950  0.00  0.00    +0.110 C 
ATOM      4  C   UNL     1       1.420  11.400  -2.927  0.00  0.00    +0.029 C 
ATOM      5  C   UNL     1       1.502   9.873  -2.853  0.00  0.00    -0.075 C 
ATOM      6  C   UNL     1       2.309  13.535  -1.971  0.00  0.00    +0.084 C 
ATOM      7  C   UNL     1       3.249  14.104  -0.904  0.00  0.00    +0.152 C 
ATOM      8  C   UNL     1       4.611  13.472  -1.041  0.00  0.00    +0.025 A 
ATOM      9  C   UNL     1       5.697  14.094  -0.449  0.00  0.00    +0.048 A 
ATOM     10  C   UNL     1       6.961  13.542  -0.554  0.00  0.00    +0.124 A 
ATOM     11  C   UNL     1       7.142  12.363  -1.256  0.00  0.00    +0.042 A 
ATOM     12  C   UNL     1       6.063  11.739  -1.847  0.00  0.00    +0.049 A 
ATOM     13  C   UNL     1       4.790  12.292  -1.740  0.00  0.00    +0.127 A 
ATOM     14  O   UNL     1       3.753  11.648  -2.337  0.00  0.00    -0.485 OA
ATOM     15  F   UNL     1       8.016  14.154   0.026  0.00  0.00    -0.205 F 
ATOM     16  N   UNL     1       1.187   9.441  -1.475  0.00  0.00    +0.382 N 
ATOM     17  H   UNL     1       0.266   9.811  -1.212  0.00  0.00    -0.082 HD
ENDROOT
BRANCH   7  18
ATOM     18  O   UNL     1       3.361  15.518  -1.073  0.00  0.00    -0.387 OA
ATOM     19  H   UNL     1       3.941  15.947  -0.429  0.00  0.00    +0.210 HD
ENDBRANCH   7  18
BRANCH  16  20
ATOM     20  C   UNL     1       1.149   7.966  -1.405  0.00  0.00    -0.042 C 
BRANCH  20  21
ATOM     21  C   UNL     1      -0.055   7.466  -2.207  0.00  0.00    +0.128 C 
BRANCH  21  27
ATOM     22  C   UNL     1       0.195   1.041  -2.802  0.00  0.00    +0.001 A 
ATOM     23  C   UNL     1       0.843   1.630  -3.887  0.00  0.00    +0.001 A 
ATOM     24  C   UNL     1       0.926   2.983  -4.003  0.00  0.00    +0.008 A 
ATOM     25  C   UNL     1       0.359   3.802  -3.011  0.00  0.00    -0.018 A 
ATOM     26  C   UNL     1       0.428   5.203  -3.094  0.00  0.00    +0.014 A 
ATOM     27  C   UNL     1      -0.132   5.964  -2.115  0.00  0.00    -0.020 A 
ATOM     28  C   UNL     1      -0.775   5.375  -1.028  0.00  0.00    +0.007 A 
ATOM     29  C   UNL     1      -0.861   4.022  -0.914  0.00  0.00    +0.009 A 
ATOM     30  C   UNL     1      -0.295   3.203  -1.906  0.00  0.00    -0.018 A 
ATOM     31  C   UNL     1      -0.365   1.802  -1.823  0.00  0.00    +0.008 A 
ENDBRANCH  21  27
BRANCH  21  32
ATOM     32  O   UNL     1      -1.252   8.038  -1.675  0.00  0.00    -0.389 OA
ATOM     33  H   UNL     1      -1.414   7.817  -0.747  0.00  0.00    +0.210 HD
ENDBRANCH  21  32
ENDBRANCH  20  21
ENDBRANCH  16  20
TORSDOF 5
