REMARK  Name = ZINC39912584
REMARK  12 active torsions:
REMARK  status: ('A' for Active; 'I' for Inactive)
REMARK    1  A    between atoms: C_1  and  C_2
REMARK    2  A    between atoms: C_4  and  C_39
REMARK    3  A    between atoms: C_5  and  O_38
REMARK    4  A    between atoms: C_6  and  C_8
REMARK    5  A    between atoms: N_16  and  C_29
REMARK    6  A    between atoms: C_17  and  C_19
REMARK    7  A    between atoms: C_23  and  O_25
REMARK    8  A    between atoms: O_25  and  C_26
REMARK    9  A    between atoms: C_26  and  C_27
REMARK   10  A    between atoms: C_29  and  C_30
REMARK   11  A    between atoms: C_33  and  O_36
REMARK   12  A    between atoms: O_36  and  C_37
REMARK                            x       y       z     vdW  Elec       q    Type
REMARK                         _______ _______ _______ _____ _____    ______ ____
ROOT
ATOM      1  C   UNL     1       0.243  -3.075   2.679  0.00  0.00    +0.102 A 
ATOM      2  C   UNL     1       0.232  -2.380   3.893  0.00  0.00    +0.035 A 
ATOM      3  C   UNL     1       0.178  -3.347   4.879  0.00  0.00    +0.126 A 
ATOM      4  N   UNL     1       0.159  -4.549   4.232  0.00  0.00    -0.272 N 
ATOM      5  H   UNL     1       0.122  -5.416   4.667  0.00  0.00    +0.189 HD
ATOM      6  N   UNL     1       0.193  -4.362   2.960  0.00  0.00    -0.173 NA
ATOM      7  C   UNL     1       0.164  -2.680   6.186  0.00  0.00    +0.266 C 
ATOM      8  O   UNL     1       0.119  -3.253   7.258  0.00  0.00    -0.268 OA
ATOM      9  N   UNL     1       0.207  -1.344   6.031  0.00  0.00    -0.281 N 
ATOM     10  C   UNL     1       0.253  -1.049   4.593  0.00  0.00    +0.142 C 
ENDROOT
BRANCH   1  16
ATOM     11  C   UNL     1      -1.383   0.310  -0.610  0.00  0.00    +0.044 C 
ATOM     12  C   UNL     1      -0.483  -0.848  -0.262  0.00  0.00    -0.049 A 
ATOM     13  C   UNL     1       0.392  -1.350  -1.209  0.00  0.00    +0.010 A 
ATOM     14  C   UNL     1       1.220  -2.412  -0.899  0.00  0.00    -0.008 A 
ATOM     15  C   UNL     1       1.179  -2.979   0.365  0.00  0.00    +0.129 A 
ATOM     16  C   UNL     1       0.296  -2.474   1.323  0.00  0.00    +0.044 A 
ATOM     17  C   UNL     1      -0.531  -1.400   1.002  0.00  0.00    +0.017 A 
ATOM     18  C   UNL     1       2.171  -2.953  -1.936  0.00  0.00    +0.047 C 
BRANCH  15  19
ATOM     19  O   UNL     1       1.992  -4.023   0.671  0.00  0.00    -0.506 OA
ATOM     20  H   UNL     1       2.849  -3.761   1.033  0.00  0.00    +0.292 HD
ENDBRANCH  15  19
ENDBRANCH   1  16
BRANCH  10  21
ATOM     21  C   UNL     1       1.520  -0.306   4.256  0.00  0.00    -0.019 A 
ATOM     22  C   UNL     1       2.740  -0.785   4.698  0.00  0.00    +0.006 A 
ATOM     23  C   UNL     1       3.904  -0.106   4.391  0.00  0.00    +0.004 A 
ATOM     24  C   UNL     1       3.852   1.054   3.643  0.00  0.00    +0.045 A 
ATOM     25  C   UNL     1       2.630   1.537   3.198  0.00  0.00    +0.121 A 
ATOM     26  C   UNL     1       1.463   0.850   3.503  0.00  0.00    +0.051 A 
BRANCH  25  27
ATOM     27  O   UNL     1       2.575   2.678   2.462  0.00  0.00    -0.488 OA
BRANCH  27  28
ATOM     28  C   UNL     1       3.816   3.329   2.182  0.00  0.00    +0.256 C 
BRANCH  28  29
ATOM     29  C   UNL     1       3.560   4.566   1.361  0.00  0.00    +0.006 C 
ATOM     30  C   UNL     1       4.162   5.690   1.665  0.00  0.00    +0.007 C 
ENDBRANCH  28  29
ENDBRANCH  27  28
ENDBRANCH  25  27
ENDBRANCH  10  21
BRANCH   9  31
ATOM     31  C   UNL     1       0.209  -0.354   7.111  0.00  0.00    +0.144 C 
BRANCH  31  32
ATOM     32  C   UNL     1       1.629  -0.056   7.517  0.00  0.00    -0.030 A 
ATOM     33  C   UNL     1       2.235  -0.806   8.508  0.00  0.00    +0.009 A 
ATOM     34  C   UNL     1       3.536  -0.534   8.883  0.00  0.00    +0.046 A 
ATOM     35  C   UNL     1       4.236   0.491   8.264  0.00  0.00    +0.120 A 
ATOM     36  C   UNL     1       3.626   1.242   7.269  0.00  0.00    +0.046 A 
ATOM     37  C   UNL     1       2.326   0.963   6.894  0.00  0.00    +0.009 A 
BRANCH  35  38
ATOM     38  O   UNL     1       5.516   0.760   8.631  0.00  0.00    -0.495 OA
ATOM     39  C   UNL     1       6.175   1.830   7.950  0.00  0.00    +0.277 C 
ENDBRANCH  35  38
ENDBRANCH  31  32
ENDBRANCH   9  31
TORSDOF 9
