REMARK  Name = ZINC39978373
REMARK  3 active torsions:
REMARK  status: ('A' for Active; 'I' for Inactive)
REMARK    1  A    between atoms: C_5  and  C_6
REMARK    2  A    between atoms: C_7  and  C_8
REMARK    3  A    between atoms: C_7  and  C_10
REMARK                            x       y       z     vdW  Elec       q    Type
REMARK                         _______ _______ _______ _____ _____    ______ ____
ROOT
ATOM      1  C   UNL     1      -1.085  -0.911   0.008  0.00  0.00    +0.033 C 
ATOM      2  C   UNL     1      -0.853  -2.248  -0.002  0.00  0.00    +0.069 C 
ENDROOT
BRANCH   2   3
ATOM      3  C   UNL     1      -2.010  -3.213   0.005  0.00  0.00    +0.214 C 
ATOM      4  N   UNL     1      -1.930  -4.104   1.195  0.00  0.00    -0.279 NA
ATOM      5  C   UNL     1      -2.517  -5.344   0.665  0.00  0.00    +0.128 C 
ATOM      6  C   UNL     1      -2.064  -6.539   1.460  0.00  0.00    -0.002 C 
ATOM      7  C   UNL     1      -1.784  -7.653   0.768  0.00  0.00    -0.002 C 
ATOM      8  C   UNL     1      -1.909  -7.701  -0.684  0.00  0.00    +0.002 C 
ATOM      9  C   UNL     1      -2.083  -6.599  -1.447  0.00  0.00    +0.025 C 
ATOM     10  C   UNL     1      -2.185  -5.323  -0.817  0.00  0.00    +0.059 C 
ATOM     11  N   UNL     1      -1.936  -4.103  -1.165  0.00  0.00    -0.262 NA
ATOM     12  H   UNL     1      -0.972  -4.248   1.475  0.00  0.00    +0.125 HD
ENDBRANCH   2   3
BRANCH   1  17
ATOM     13  C   UNL     1      -0.017   1.386   0.010  0.00  0.00    +0.017 A 
ATOM     14  C   UNL     1       1.214   1.998   0.001  0.00  0.00    +0.028 A 
ATOM     15  C   UNL     1       2.333   1.230  -0.014  0.00  0.00    +0.079 A 
ATOM     16  S   UNL     1       1.751  -0.347  -0.017  0.00  0.00    -0.077 S 
ATOM     17  C   UNL     1       0.002  -0.004   0.002  0.00  0.00    +0.015 A 
ATOM     18 CL   UNL     1       3.987   1.756  -0.027  0.00  0.00    -0.076 Cl
ENDBRANCH   1  17
BRANCH   2  19
ATOM     19  C   UNL     1       0.491  -2.741  -0.018  0.00  0.00    +0.098 C 
ATOM     20  N   UNL     1       1.558  -3.132  -0.030  0.00  0.00    -0.191 NA
ENDBRANCH   2  19
TORSDOF 3
