REMARK  Name = ZINC41223248
REMARK  9 active torsions:
REMARK  status: ('A' for Active; 'I' for Inactive)
REMARK    1  A    between atoms: C_1  and  C_2
REMARK    2  A    between atoms: C_2  and  C_4
REMARK    3  A    between atoms: C_2  and  N_13
REMARK    4  A    between atoms: C_4  and  C_5
REMARK    5  A    between atoms: C_5  and  C_6
REMARK    6  A    between atoms: C_9  and  O_12
REMARK    7  A    between atoms: C_14  and  C_16
REMARK    8  A    between atoms: N_18  and  C_19
REMARK    9  A    between atoms: C_22  and  N_25
REMARK                            x       y       z     vdW  Elec       q    Type
REMARK                         _______ _______ _______ _____ _____    ______ ____
ROOT
ATOM      1  C   UNL     1       0.707  -1.077  -3.590  0.00  0.00    +0.303 C 
ATOM      2  O   UNL     1       1.894  -1.329  -3.553  0.00  0.00    -0.265 OA
ATOM      3  N   UNL     1       0.024  -1.221  -4.742  0.00  0.00    -0.278 N 
ATOM      4  H   UNL     1      -0.936  -1.083  -4.758  0.00  0.00    +0.155 HD
ENDROOT
BRANCH   3   5
ATOM      5  C   UNL     1       0.698  -1.571  -5.916  0.00  0.00    +0.034 A 
ATOM      6  C   UNL     1       0.286  -1.050  -7.136  0.00  0.00    +0.025 A 
ATOM      7  C   UNL     1       0.952  -1.395  -8.295  0.00  0.00    +0.025 A 
ATOM      8  C   UNL     1       2.034  -2.265  -8.241  0.00  0.00    +0.038 A 
ATOM      9  C   UNL     1       2.446  -2.786  -7.022  0.00  0.00    +0.025 A 
ATOM     10  C   UNL     1       1.784  -2.436  -5.862  0.00  0.00    +0.025 A 
BRANCH   8  11
ATOM     11  N   UNL     1       2.709  -2.615  -9.417  0.00  0.00    -0.254 N 
ATOM     12  C   UNL     1       3.786  -3.612  -9.516  0.00  0.00    +0.134 C 
ATOM     13  C   UNL     1       4.162  -3.602 -11.010  0.00  0.00    +0.125 C 
ATOM     14  N   UNL     1       3.258  -2.600 -11.594  0.00  0.00    -0.297 N 
ATOM     15  C   UNL     1       2.473  -2.100 -10.631  0.00  0.00    +0.307 C 
ATOM     16  O   UNL     1       1.626  -1.254 -10.838  0.00  0.00    -0.252 OA
ATOM     17  H   UNL     1       3.232  -2.344 -12.530  0.00  0.00    +0.150 HD
ENDBRANCH   8  11
ENDBRANCH   3   5
BRANCH   1  19
ATOM     18  N   UNL     1       0.688  -0.462  -1.206  0.00  0.00    -0.305 N 
ATOM     19  C   UNL     1       0.004  -0.607  -2.359  0.00  0.00    +0.300 C 
ATOM     20  O   UNL     1      -1.182  -0.355  -2.396  0.00  0.00    -0.265 OA
ATOM     21  H   UNL     1       1.636  -0.664  -1.177  0.00  0.00    +0.149 HD
BRANCH  18  23
ATOM     22  C   UNL     1      -0.049   1.528   0.009  0.00  0.00    +0.028 C 
ATOM     23  C   UNL     1      -0.001  -0.001   0.001  0.00  0.00    +0.071 C 
BRANCH  23  24
ATOM     24  C   UNL     1       0.752  -0.494   1.238  0.00  0.00    +0.026 C 
BRANCH  24  25
ATOM     25  C   UNL     1       0.693  -2.022   1.297  0.00  0.00    +0.037 C 
BRANCH  25  26
ATOM     26  C   UNL     1       1.435  -2.507   2.515  0.00  0.00    -0.047 A 
ATOM     27  C   UNL     1       2.787  -2.788   2.433  0.00  0.00    +0.007 A 
ATOM     28  C   UNL     1       3.470  -3.233   3.549  0.00  0.00    +0.045 A 
ATOM     29  C   UNL     1       2.798  -3.398   4.752  0.00  0.00    +0.117 A 
ATOM     30  C   UNL     1       1.442  -3.116   4.831  0.00  0.00    +0.045 A 
ATOM     31  C   UNL     1       0.765  -2.666   3.714  0.00  0.00    +0.007 A 
BRANCH  29  32
ATOM     32  O   UNL     1       3.467  -3.837   5.850  0.00  0.00    -0.507 OA
ATOM     33  H   UNL     1       3.848  -3.129   6.387  0.00  0.00    +0.292 HD
ENDBRANCH  29  32
ENDBRANCH  25  26
ENDBRANCH  24  25
ENDBRANCH  23  24
ENDBRANCH  18  23
ENDBRANCH   1  19
TORSDOF 8
