REMARK  Name = ZINC40317030
REMARK  14 active torsions:
REMARK  status: ('A' for Active; 'I' for Inactive)
REMARK    1  A    between atoms: C_1  and  C_2
REMARK    2  A    between atoms: C_2  and  C_3
REMARK    3  A    between atoms: C_2  and  C_4
REMARK    4  A    between atoms: C_2  and  C_5
REMARK    5  A    between atoms: C_8  and  C_11
REMARK    6  A    between atoms: C_11  and  N_12
REMARK    7  A    between atoms: N_12  and  C_13
REMARK    8  A    between atoms: N_12  and  C_19
REMARK    9  A    between atoms: C_13  and  C_14
REMARK   10  A    between atoms: C_19  and  C_20
REMARK   11  A    between atoms: C_20  and  C_22
REMARK   12  A    between atoms: C_20  and  O_31
REMARK   13  A    between atoms: C_22  and  O_23
REMARK   14  A    between atoms: O_23  and  C_24
REMARK                            x       y       z     vdW  Elec       q    Type
REMARK                         _______ _______ _______ _____ _____    ______ ____
ROOT
ATOM      1  N   UNL     1       2.337  -0.827  -5.683  0.00  0.00    +0.389 N 
ATOM      2  H   UNL     1       1.395  -0.480  -5.791  0.00  0.00    -0.081 HD
ENDROOT
BRANCH   1   3
ATOM      3  C   UNL     1       2.392  -1.743  -4.536  0.00  0.00    -0.042 C 
BRANCH   3   7
ATOM      4  C   UNL     1       0.895   0.234  -1.058  0.00  0.00    -0.042 A 
ATOM      5  C   UNL     1       0.033  -0.471  -1.877  0.00  0.00    +0.004 A 
ATOM      6  C   UNL     1       0.517  -1.111  -3.002  0.00  0.00    +0.002 A 
ATOM      7  C   UNL     1       1.864  -1.045  -3.309  0.00  0.00    -0.064 A 
ATOM      8  C   UNL     1       2.725  -0.339  -2.491  0.00  0.00    +0.002 A 
ATOM      9  C   UNL     1       2.240   0.304  -1.368  0.00  0.00    +0.004 A 
BRANCH   4  11
ATOM     10  C   UNL     1       0.644   2.433   0.061  0.00  0.00    +0.015 C 
ATOM     11  C   UNL     1       0.367   0.932   0.169  0.00  0.00    -0.013 C 
ATOM     12  C   UNL     1       1.063   0.373   1.412  0.00  0.00    +0.015 C 
ATOM     13  C   UNL     1      -1.141   0.698   0.280  0.00  0.00    +0.015 C 
ENDBRANCH   4  11
ENDBRANCH   3   7
ENDBRANCH   1   3
BRANCH   1  14
ATOM     14  C   UNL     1       3.251   0.300  -5.454  0.00  0.00    -0.003 C 
BRANCH  14  15
ATOM     15  C   UNL     1       3.096   1.306  -6.565  0.00  0.00    +0.089 A 
ATOM     16  C   UNL     1       2.171   2.280  -6.622  0.00  0.00    +0.042 A 
ATOM     17  C   UNL     1       2.390   2.983  -7.829  0.00  0.00    +0.041 A 
ATOM     18  C   UNL     1       3.436   2.397  -8.437  0.00  0.00    +0.195 A 
ATOM     19  O   UNL     1       3.864   1.385  -7.664  0.00  0.00    -0.470 OA
ENDBRANCH  14  15
ENDBRANCH   1  14
BRANCH   1  20
ATOM     20  C   UNL     1       2.738  -1.543  -6.901  0.00  0.00    -0.043 C 
BRANCH  20  21
ATOM     21  C   UNL     1       1.704  -2.624  -7.221  0.00  0.00    +0.135 C 
BRANCH  21  22
ATOM     22  O   UNL     1       0.435  -2.014  -7.461  0.00  0.00    -0.390 OA
ATOM     23  H   UNL     1       0.414  -1.442  -8.240  0.00  0.00    +0.210 HD
ENDBRANCH  21  22
BRANCH  21  24
ATOM     24  C   UNL     1       2.142  -3.396  -8.468  0.00  0.00    +0.258 C 
BRANCH  24  25
ATOM     25  O   UNL     1       1.239  -4.479  -8.700  0.00  0.00    -0.488 OA
BRANCH  25  26
ATOM     26  C   UNL     1       1.488  -5.270  -9.777  0.00  0.00    +0.135 A 
ATOM     27  C   UNL     1       2.581  -5.012 -10.591  0.00  0.00    +0.047 A 
ATOM     28  C   UNL     1       2.832  -5.817 -11.685  0.00  0.00    +0.004 A 
ATOM     29  C   UNL     1       1.994  -6.879 -11.970  0.00  0.00    +0.001 A 
ATOM     30  C   UNL     1       0.903  -7.139 -11.161  0.00  0.00    +0.019 A 
ATOM     31  C   UNL     1       0.651  -6.340 -10.061  0.00  0.00    +0.059 A 
ATOM     32 BR   UNL     1      -0.836  -6.700  -8.950  0.00  0.00    -0.047 Br
ENDBRANCH  25  26
ENDBRANCH  24  25
ENDBRANCH  21  24
ENDBRANCH  20  21
ENDBRANCH   1  20
TORSDOF 11
