REMARK  Name = ZINC37077030
REMARK  8 active torsions:
REMARK  status: ('A' for Active; 'I' for Inactive)
REMARK    1  A    between atoms: C_1  and  C_2
REMARK    2  A    between atoms: C_5  and  N_12
REMARK    3  A    between atoms: C_8  and  C_10
REMARK    4  A    between atoms: C_8  and  C_11
REMARK    5  A    between atoms: N_12  and  C_13
REMARK    6  A    between atoms: C_16  and  N_19
REMARK    7  A    between atoms: N_19  and  S_20
REMARK    8  A    between atoms: S_20  and  C_23
REMARK                            x       y       z     vdW  Elec       q    Type
REMARK                         _______ _______ _______ _____ _____    ______ ____
ROOT
ATOM      1  C   UNL     1      -1.017  -3.121  -1.869  0.00  0.00    +0.027 A 
ATOM      2  C   UNL     1      -2.183  -3.785  -1.512  0.00  0.00    +0.025 A 
ATOM      3  C   UNL     1      -2.593  -4.894  -2.226  0.00  0.00    +0.026 A 
ATOM      4  C   UNL     1      -1.839  -5.344  -3.302  0.00  0.00    +0.048 A 
ATOM      5  C   UNL     1      -0.673  -4.680  -3.659  0.00  0.00    +0.026 A 
ATOM      6  C   UNL     1      -0.266  -3.568  -2.948  0.00  0.00    +0.025 A 
ENDROOT
BRANCH   1   7
ATOM      7  N   UNL     1      -0.601  -1.997  -1.145  0.00  0.00    -0.341 N 
ATOM      8  H   UNL     1       0.211  -1.531  -1.397  0.00  0.00    +0.146 HD
BRANCH   7  12
ATOM      9  C   UNL     1       0.968   1.299   1.122  0.00  0.00    +0.007 C 
ATOM     10  C   UNL     1       0.528  -0.118   0.747  0.00  0.00    -0.012 C 
ATOM     11  C   UNL     1      -0.954  -0.108   0.368  0.00  0.00    +0.025 C 
ATOM     12  C   UNL     1      -1.394  -1.525  -0.007  0.00  0.00    +0.071 C 
ATOM     13  C   UNL     1      -1.178  -2.458   1.186  0.00  0.00    +0.028 C 
ATOM     14  C   UNL     1       0.304  -2.468   1.565  0.00  0.00    -0.033 C 
ATOM     15  C   UNL     1       0.744  -1.051   1.940  0.00  0.00    +0.009 C 
ATOM     16  C   UNL     1       1.131  -2.961   0.377  0.00  0.00    +0.011 C 
ATOM     17  C   UNL     1       0.519  -3.401   2.759  0.00  0.00    +0.011 C 
ENDBRANCH   7  12
ENDBRANCH   1   7
BRANCH   4  18
ATOM     18  N   UNL     1      -2.254  -6.469  -4.025  0.00  0.00    -0.221 N 
ATOM     19  H   UNL     1      -1.786  -7.312  -3.921  0.00  0.00    +0.173 HD
BRANCH  18  20
ATOM     20  S   UNL     1      -3.542  -6.358  -5.060  0.00  0.00    +0.040 S 
ATOM     21  O   UNL     1      -3.666  -7.656  -5.624  0.00  0.00    -0.155 OA
ATOM     22  O   UNL     1      -4.591  -5.806  -4.275  0.00  0.00    -0.155 OA
ATOM     23  C   UNL     1      -3.021  -5.172  -6.329  0.00  0.00    +0.218 C 
ENDBRANCH  18  20
ENDBRANCH   4  18
TORSDOF 4
