REMARK  Name = ZINC13659567
REMARK  9 active torsions:
REMARK  status: ('A' for Active; 'I' for Inactive)
REMARK    1  A    between atoms: C_1  and  C_2
REMARK    2  A    between atoms: C_6  and  C_8
REMARK    3  A    between atoms: C_8  and  O_9
REMARK    4  A    between atoms: O_9  and  C_10
REMARK    5  A    between atoms: C_11  and  O_28
REMARK    6  A    between atoms: C_13  and  C_17
REMARK    7  A    between atoms: N_18  and  N_19
REMARK    8  A    between atoms: C_20  and  C_21
REMARK    9  A    between atoms: O_28  and  C_29
REMARK                            x       y       z     vdW  Elec       q    Type
REMARK                         _______ _______ _______ _____ _____    ______ ____
ROOT
ATOM      1  C   UNL     1       2.707  -3.212   4.915  0.00  0.00    +0.176 A 
ATOM      2  C   UNL     1       2.919  -2.764   6.218  0.00  0.00    +0.163 A 
ATOM      3  C   UNL     1       2.981  -3.669   7.259  0.00  0.00    +0.059 A 
ATOM      4  C   UNL     1       2.829  -5.037   7.003  0.00  0.00    -0.001 A 
ATOM      5  C   UNL     1       2.616  -5.479   5.693  0.00  0.00    +0.028 A 
ATOM      6  C   UNL     1       2.551  -4.568   4.660  0.00  0.00    +0.064 A 
ATOM      7 BR   UNL     1       2.256  -5.167   2.891  0.00  0.00    -0.046 Br
ENDROOT
BRANCH   4   8
ATOM      8  C   UNL     1       2.894  -6.005   8.107  0.00  0.00    +0.140 C 
ATOM      9  N   UNL     1       2.753  -7.282   7.866  0.00  0.00    -0.180 NA
BRANCH   9  10
ATOM     10  N   UNL     1       2.810  -8.132   8.835  0.00  0.00    -0.263 N 
ATOM     11  C   UNL     1       2.667  -9.416   8.592  0.00  0.00    +0.143 C 
ATOM     12  N   UNL     1       2.728 -10.325   9.628  0.00  0.00    -0.342 N 
ATOM     13  H   UNL     1       2.757 -10.013  10.546  0.00  0.00    +0.144 HD
ATOM     14  H   UNL     1       2.743 -11.276   9.439  0.00  0.00    +0.144 HD
ATOM     15  H   UNL     1       2.958  -7.823   9.742  0.00  0.00    +0.190 HD
BRANCH  11  16
ATOM     16  C   UNL     1       2.442  -9.886   7.210  0.00  0.00    +0.187 A 
ATOM     17  C   UNL     1       1.833 -11.166   6.824  0.00  0.00    +0.191 A 
ATOM     18  N   UNL     1       1.801 -11.227   5.522  0.00  0.00    -0.033 NA
ATOM     19  O   UNL     1       2.367 -10.033   5.013  0.00  0.00    -0.240 OA
ATOM     20  N   UNL     1       2.745  -9.231   6.117  0.00  0.00    -0.044 NA
ATOM     21  N   UNL     1       1.372 -12.142   7.696  0.00  0.00    -0.339 N 
ATOM     22  H   UNL     1       1.335 -11.964   8.649  0.00  0.00    +0.144 HD
ATOM     23  H   UNL     1       1.086 -13.003   7.353  0.00  0.00    +0.144 HD
ENDBRANCH  11  16
ENDBRANCH   9  10
ENDBRANCH   4   8
BRANCH   2  24
ATOM     24  O   UNL     1       3.067  -1.434   6.463  0.00  0.00    -0.491 OA
ATOM     25  C   UNL     1       3.281  -1.045   7.822  0.00  0.00    +0.277 C 
ENDBRANCH   2  24
BRANCH   1  26
ATOM     26  O   UNL     1       2.646  -2.319   3.893  0.00  0.00    -0.483 OA
BRANCH  26  27
ATOM     27  C   UNL     1       1.361  -1.781   3.577  0.00  0.00    +0.264 C 
BRANCH  27  33
ATOM     28  C   UNL     1       2.114   2.867   1.880  0.00  0.00    +0.044 C 
ATOM     29  C   UNL     1       1.849   1.407   1.614  0.00  0.00    -0.050 A 
ATOM     30  C   UNL     1       1.723   0.953   0.315  0.00  0.00    +0.003 A 
ATOM     31  C   UNL     1       1.480  -0.385   0.071  0.00  0.00    +0.001 A 
ATOM     32  C   UNL     1       1.362  -1.270   1.127  0.00  0.00    +0.007 A 
ATOM     33  C   UNL     1       1.489  -0.816   2.426  0.00  0.00    -0.010 A 
ATOM     34  C   UNL     1       1.737   0.522   2.670  0.00  0.00    +0.010 A 
ENDBRANCH  27  33
ENDBRANCH  26  27
ENDBRANCH   1  26
TORSDOF 7
