REMARK  Name = ZINC09434193
REMARK  4 active torsions:
REMARK  status: ('A' for Active; 'I' for Inactive)
REMARK    1  A    between atoms: C_17  and  C_19
REMARK    2  A    between atoms: C_19  and  N_29
REMARK    3  A    between atoms: C_20  and  C_21
REMARK    4  A    between atoms: C_30  and  C_32
REMARK                            x       y       z     vdW  Elec       q    Type
REMARK                         _______ _______ _______ _____ _____    ______ ____
ROOT
ATOM      1  C   UNL     1       2.301   1.225  -0.220  0.00  0.00    +0.097 C 
ATOM      2  C   UNL     1       1.547   1.927   0.657  0.00  0.00    +0.036 C 
ENDROOT
BRANCH   1  17
ATOM      3  C   UNL     1       2.192   1.243  -4.872  0.00  0.00    +0.007 A 
ATOM      4  C   UNL     1       1.021   1.069  -4.127  0.00  0.00    +0.022 A 
ATOM      5  C   UNL     1       0.741  -0.130  -3.548  0.00  0.00    +0.027 A 
ATOM      6  N   UNL     1       1.561  -1.190  -3.731  0.00  0.00    -0.312 N 
ATOM      7  C   UNL     1       2.739  -1.026  -4.383  0.00  0.00    +0.251 A 
ATOM      8  O   UNL     1       3.530  -1.954  -4.442  0.00  0.00    -0.268 OA
ATOM      9  C   UNL     1       3.059   0.196  -4.990  0.00  0.00    +0.070 A 
ATOM     10  C   UNL     1       1.241  -2.542  -3.274  0.00  0.00    +0.130 C 
ATOM     11  C   UNL     1       0.150  -2.556  -2.219  0.00  0.00    +0.027 C 
ATOM     12  C   UNL     1      -1.008  -1.660  -2.658  0.00  0.00    +0.018 C 
ATOM     13  C   UNL     1      -0.508  -0.213  -2.701  0.00  0.00    +0.054 C 
ATOM     14  C   UNL     1      -0.131   0.209  -1.270  0.00  0.00    +0.117 C 
ATOM     15  N   UNL     1       0.927  -0.704  -0.810  0.00  0.00    -0.296 N 
ATOM     16  C   UNL     1       0.674  -2.149  -0.854  0.00  0.00    +0.113 C 
ATOM     17  C   UNL     1       2.105  -0.225  -0.362  0.00  0.00    +0.261 C 
ATOM     18  O   UNL     1       3.005  -0.992  -0.076  0.00  0.00    -0.269 OA
ENDBRANCH   1  17
BRANCH   2  19
ATOM     19  C   UNL     1       0.651   1.222   1.586  0.00  0.00    -0.022 A 
ATOM     20  C   UNL     1      -0.590   1.774   1.921  0.00  0.00    +0.009 A 
ATOM     21  C   UNL     1      -1.426   1.106   2.789  0.00  0.00    +0.022 A 
ATOM     22  C   UNL     1      -1.037  -0.105   3.338  0.00  0.00    +0.059 A 
ATOM     23  C   UNL     1       0.194  -0.656   3.015  0.00  0.00    +0.060 A 
ATOM     24  C   UNL     1       1.039  -0.001   2.143  0.00  0.00    +0.029 A 
ATOM     25 CL   UNL     1       0.672  -2.174   3.708  0.00  0.00    -0.082 Cl
ATOM     26 CL   UNL     1      -2.094  -0.936   4.436  0.00  0.00    -0.082 Cl
ENDBRANCH   2  19
BRANCH   1  27
ATOM     27  N   UNL     1       3.268   1.879  -0.990  0.00  0.00    -0.275 N 
ATOM     28  C   UNL     1       4.000   1.184  -1.883  0.00  0.00    +0.284 C 
ATOM     29  O   UNL     1       3.880  -0.025  -1.960  0.00  0.00    -0.266 OA
ATOM     30  H   UNL     1       3.413   2.832  -0.881  0.00  0.00    +0.155 HD
BRANCH  28  31
ATOM     31  C   UNL     1       4.946   1.884  -2.759  0.00  0.00    +0.189 A 
ATOM     32  C   UNL     1       5.721   1.309  -3.725  0.00  0.00    +0.054 A 
ATOM     33  C   UNL     1       6.467   2.344  -4.312  0.00  0.00    +0.042 A 
ATOM     34  C   UNL     1       6.119   3.490  -3.686  0.00  0.00    +0.196 A 
ATOM     35  O   UNL     1       5.198   3.209  -2.754  0.00  0.00    -0.458 OA
ENDBRANCH  28  31
ENDBRANCH   1  27
TORSDOF 4
