REMARK  Name = ZINC32116858
REMARK  6 active torsions:
REMARK  status: ('A' for Active; 'I' for Inactive)
REMARK    1  A    between atoms: C_3  and  C_8
REMARK    2  A    between atoms: N_10  and  N_11
REMARK    3  A    between atoms: C_12  and  C_13
REMARK    4  A    between atoms: C_16  and  S_22
REMARK    5  A    between atoms: C_17  and  N_19
REMARK    6  A    between atoms: S_22  and  C_23
REMARK                            x       y       z     vdW  Elec       q    Type
REMARK                         _______ _______ _______ _____ _____    ______ ____
ROOT
ATOM      1  C   UNL     1       1.169   2.174   0.601  0.00  0.00    -0.003 A 
ATOM      2  C   UNL     1       2.255   1.707   1.348  0.00  0.00    +0.011 A 
ATOM      3  C   UNL     1       2.264   0.411   1.812  0.00  0.00    +0.018 A 
ATOM      4  C   UNL     1       1.194  -0.436   1.536  0.00  0.00    +0.043 A 
ATOM      5  C   UNL     1       0.112   0.025   0.792  0.00  0.00    +0.140 A 
ATOM      6  C   UNL     1       0.096   1.320   0.326  0.00  0.00    +0.043 A 
ENDROOT
BRANCH   5   7
ATOM      7  N   UNL     1      -1.024  -0.880   0.502  0.00  0.00    +0.058 N 
ATOM      8  O   UNL     1      -1.972  -0.477  -0.148  0.00  0.00    -0.126 OA
ATOM      9  O   UNL     1      -1.011  -2.026   0.915  0.00  0.00    -0.126 OA
ENDBRANCH   5   7
BRANCH   1  11
ATOM     10  N   UNL     1       2.268   4.219  -0.013  0.00  0.00    -0.187 NA
ATOM     11  C   UNL     1       1.155   3.560   0.103  0.00  0.00    +0.138 C 
BRANCH  10  14
ATOM     12  C   UNL     1       4.649   4.226   0.036  0.00  0.00    +0.263 C 
ATOM     13  O   UNL     1       4.631   5.442   0.051  0.00  0.00    -0.268 OA
ATOM     14  N   UNL     1       3.492   3.536   0.003  0.00  0.00    -0.203 N 
ATOM     15  H   UNL     1       3.508   2.436  -0.011  0.00  0.00    +0.178 HD
BRANCH  12  18
ATOM     16  C   UNL     1       7.170   1.443   0.053  0.00  0.00    +0.002 A 
ATOM     17  C   UNL     1       5.963   2.110   0.041  0.00  0.00    +0.013 A 
ATOM     18  C   UNL     1       5.939   3.506   0.053  0.00  0.00    +0.039 A 
ATOM     19  C   UNL     1       7.139   4.218   0.087  0.00  0.00    +0.028 A 
ATOM     20  C   UNL     1       8.341   3.539   0.104  0.00  0.00    +0.019 A 
ATOM     21  C   UNL     1       8.357   2.154   0.087  0.00  0.00    +0.015 A 
ATOM     22 BR   UNL     1       9.968   4.501   0.150  0.00  0.00    -0.050 Br
ENDBRANCH  12  18
ENDBRANCH  10  14
ENDBRANCH   1  11
BRANCH   4  23
ATOM     23  S   UNL     1       1.210  -2.094   2.130  0.00  0.00    -0.087 S 
BRANCH  23  24
ATOM     24  C   UNL     1       2.817  -2.281   2.829  0.00  0.00    +0.013 A 
ATOM     25  C   UNL     1       3.889  -2.645   2.023  0.00  0.00    +0.016 A 
ATOM     26  C   UNL     1       5.148  -2.784   2.572  0.00  0.00    +0.021 A 
ATOM     27  C   UNL     1       5.341  -2.574   3.927  0.00  0.00    +0.041 A 
ATOM     28  C   UNL     1       4.274  -2.217   4.733  0.00  0.00    +0.021 A 
ATOM     29  C   UNL     1       3.014  -2.070   4.188  0.00  0.00    +0.016 A 
ATOM     30 CL   UNL     1       6.924  -2.757   4.615  0.00  0.00    -0.084 Cl
ENDBRANCH  23  24
ENDBRANCH   4  23
TORSDOF 6
