REMARK  Name = ZINC14531616
REMARK  16 active torsions:
REMARK  status: ('A' for Active; 'I' for Inactive)
REMARK    1  A    between atoms: C_1  and  C_2
REMARK    2  A    between atoms: C_2  and  C_4
REMARK    3  A    between atoms: C_2  and  N_75
REMARK    4  A    between atoms: C_4  and  C_5
REMARK    5  A    between atoms: C_5  and  C_6
REMARK    6  A    between atoms: C_6  and  C_8
REMARK    7  A    between atoms: N_16  and  C_30
REMARK    8  A    between atoms: N_19  and  C_20
REMARK    9  A    between atoms: C_20  and  C_21
REMARK   10  A    between atoms: C_21  and  C_22
REMARK   11  A    between atoms: C_25  and  O_28
REMARK   12  A    between atoms: O_28  and  C_29
REMARK   13  A    between atoms: C_30  and  C_31
REMARK   14  A    between atoms: C_31  and  N_77
REMARK   15  A    between atoms: C_32  and  N_77
REMARK   16  A    between atoms: C_33  and  N_77
REMARK                            x       y       z     vdW  Elec       q    Type
REMARK                         _______ _______ _______ _____ _____    ______ ____
ROOT
ATOM      1  C   UNL     1      -0.288   0.964  -0.795  0.00  0.00    -0.076 C 
ATOM      2  C   UNL     1      -0.497  -0.545  -0.949  0.00  0.00    +0.017 C 
ATOM      3  C   UNL     1       0.026  -0.990  -2.312  0.00  0.00    +0.112 C 
ATOM      4  C   UNL     1       1.491  -0.596  -2.475  0.00  0.00    +0.017 C 
ATOM      5  C   UNL     1       1.635   0.915  -2.271  0.00  0.00    -0.076 C 
ATOM      6  C   UNL     1      -0.142  -2.482  -2.482  0.00  0.00    +0.247 C 
ATOM      7  O   UNL     1       0.354  -3.358  -1.808  0.00  0.00    -0.273 OA
ATOM      8  N   UNL     1      -0.961  -2.632  -3.544  0.00  0.00    -0.226 N 
ATOM      9  C   UNL     1      -1.325  -1.450  -4.057  0.00  0.00    +0.312 C 
ATOM     10  O   UNL     1      -2.060  -1.328  -5.017  0.00  0.00    -0.252 OA
ATOM     11  N   UNL     1      -0.786  -0.412  -3.389  0.00  0.00    -0.271 N 
ATOM     12  N   UNL     1       1.155   1.262  -0.916  0.00  0.00    +0.382 N 
ATOM     13  H   UNL     1       1.670   0.701  -0.227  0.00  0.00    -0.081 HD
ENDROOT
BRANCH  12  15
ATOM     14  C   UNL     1       0.823   3.559  -1.769  0.00  0.00    -0.013 C 
ATOM     15  C   UNL     1       1.399   2.694  -0.646  0.00  0.00    -0.071 C 
BRANCH  15  16
ATOM     16  C   UNL     1       2.908   2.926  -0.546  0.00  0.00    -0.011 C 
BRANCH  16  17
ATOM     17  C   UNL     1       3.464   2.158   0.654  0.00  0.00    +0.028 C 
BRANCH  17  18
ATOM     18  C   UNL     1       4.950   2.386   0.752  0.00  0.00    -0.080 C 
ATOM     19  C   UNL     1       5.418   3.327   1.535  0.00  0.00    +0.007 C 
ATOM     20  C   UNL     1       5.898   1.533  -0.050  0.00  0.00    +0.038 C 
ENDBRANCH  17  18
ENDBRANCH  16  17
ENDBRANCH  15  16
ENDBRANCH  12  15
BRANCH  11  21
ATOM     21  C   UNL     1      -0.974   1.011  -3.680  0.00  0.00    +0.115 C 
BRANCH  21  22
ATOM     22  C   UNL     1      -2.428   1.400  -3.408  0.00  0.00    +0.054 C 
BRANCH  22  23
ATOM     23  C   UNL     1      -2.622   2.863  -3.712  0.00  0.00    -0.046 A 
ATOM     24  C   UNL     1      -2.556   3.795  -2.692  0.00  0.00    +0.007 A 
ATOM     25  C   UNL     1      -2.728   5.137  -2.969  0.00  0.00    +0.046 A 
ATOM     26  C   UNL     1      -2.978   5.550  -4.270  0.00  0.00    +0.120 A 
ATOM     27  C   UNL     1      -3.050   4.612  -5.290  0.00  0.00    +0.046 A 
ATOM     28  C   UNL     1      -2.871   3.272  -5.009  0.00  0.00    +0.007 A 
BRANCH  26  29
ATOM     29  O   UNL     1      -3.153   6.869  -4.544  0.00  0.00    -0.495 OA
ATOM     30  C   UNL     1      -3.066   7.777  -3.444  0.00  0.00    +0.277 C 
ENDBRANCH  26  29
ENDBRANCH  22  23
ENDBRANCH  21  22
ENDBRANCH  11  21
BRANCH   8  31
ATOM     31  C   UNL     1      -1.398  -3.928  -4.070  0.00  0.00    +0.099 C 
BRANCH  31  32
ATOM     32  C   UNL     1      -2.694  -4.350  -3.375  0.00  0.00    -0.060 C 
BRANCH  32  35
ATOM     33  C   UNL     1      -2.181  -6.710  -3.544  0.00  0.00    -0.097 C 
ATOM     34  C   UNL     1      -4.486  -5.976  -3.437  0.00  0.00    -0.097 C 
ATOM     35  N   UNL     1      -3.132  -5.647  -3.931  0.00  0.00    +0.377 N 
ATOM     36  H   UNL     1      -3.158  -5.579  -4.955  0.00  0.00    -0.083 HD
ENDBRANCH  32  35
ENDBRANCH  31  32
ENDBRANCH   8  31
TORSDOF 11
