REMARK  Name = ZINC44784863
REMARK  5 active torsions:
REMARK  status: ('A' for Active; 'I' for Inactive)
REMARK    1  A    between atoms: C_1  and  C_2
REMARK    2  A    between atoms: C_2  and  C_3
REMARK    3  A    between atoms: C_10  and  C_12
REMARK    4  A    between atoms: C_12  and  C_19
REMARK    5  A    between atoms: N_20  and  O_21
REMARK                            x       y       z     vdW  Elec       q    Type
REMARK                         _______ _______ _______ _____ _____    ______ ____
ROOT
ATOM      1  C   UNL     1      -1.780   0.885  -3.687  0.00  0.00    +0.105 C 
ATOM      2  C   UNL     1      -0.928   1.766  -4.559  0.00  0.00    +0.024 C 
ATOM      3  C   UNL     1       0.145   2.529  -3.758  0.00  0.00    +0.001 C 
ATOM      4  C   UNL     1      -0.388   3.084  -2.423  0.00  0.00    +0.000 C 
ATOM      5  C   UNL     1      -1.764   3.677  -2.555  0.00  0.00    +0.000 C 
ATOM      6  C   UNL     1      -2.801   2.595  -2.190  0.00  0.00    +0.001 C 
ATOM      7  C   UNL     1      -3.046   1.669  -3.286  0.00  0.00    +0.024 C 
ENDROOT
BRANCH   1  14
ATOM      8  C   UNL     1      -0.935  -0.409  -0.178  0.00  0.00    +0.076 C 
ATOM      9  C   UNL     1      -1.813   0.105   0.967  0.00  0.00    +0.022 C 
ATOM     10  C   UNL     1      -3.199  -0.537   0.870  0.00  0.00    +0.003 C 
ATOM     11  C   UNL     1      -3.854  -0.142  -0.456  0.00  0.00    +0.019 C 
ATOM     12  C   UNL     1      -2.999  -0.658  -1.617  0.00  0.00    +0.108 C 
ATOM     13  N   UNL     1      -1.625  -0.166  -1.452  0.00  0.00    -0.298 N 
ATOM     14  C   UNL     1      -1.009   0.501  -2.450  0.00  0.00    +0.229 C 
ATOM     15  O   UNL     1       0.164   0.791  -2.351  0.00  0.00    -0.275 OA
BRANCH   8  17
ATOM     16  C   UNL     1       1.124   0.068   1.155  0.00  0.00    +0.006 C 
ATOM     17  C   UNL     1       0.404   0.330  -0.170  0.00  0.00    +0.019 C 
ENDBRANCH   8  17
ENDBRANCH   1  14
BRANCH   1  18
ATOM     18  C   UNL     1      -2.172  -0.357  -4.445  0.00  0.00    +0.147 C 
ATOM     19  N   UNL     1      -3.411  -0.565  -4.747  0.00  0.00    -0.076 NA
ATOM     20  N   UNL     1      -1.210  -1.270  -4.815  0.00  0.00    -0.343 N 
ATOM     21  H   UNL     1      -0.292  -1.152  -4.526  0.00  0.00    +0.144 HD
ATOM     22  H   UNL     1      -1.451  -2.032  -5.365  0.00  0.00    +0.144 HD
BRANCH  19  23
ATOM     23  O   UNL     1      -3.779  -1.732  -5.460  0.00  0.00    -0.408 OA
ATOM     24  H   UNL     1      -4.727  -1.800  -5.640  0.00  0.00    +0.328 HD
ENDBRANCH  19  23
ENDBRANCH   1  18
TORSDOF 4
