REMARK  Name = ZINC39486298
REMARK  7 active torsions:
REMARK  status: ('A' for Active; 'I' for Inactive)
REMARK    1  A    between atoms: C_1  and  C_2
REMARK    2  A    between atoms: C_2  and  O_3
REMARK    3  A    between atoms: O_3  and  C_4
REMARK    4  A    between atoms: C_8  and  C_10
REMARK    5  A    between atoms: C_22  and  C_24
REMARK    6  A    between atoms: C_24  and  C_26
REMARK    7  A    between atoms: C_31  and  O_32
REMARK                            x       y       z     vdW  Elec       q    Type
REMARK                         _______ _______ _______ _____ _____    ______ ____
ROOT
ATOM      1  C   UNL     1       2.275  -4.298   3.754  0.00  0.00    +0.062 C 
ATOM      2  C   UNL     1       3.454  -5.106   3.287  0.00  0.00    -0.025 A 
ATOM      3  C   UNL     1       4.181  -4.665   2.198  0.00  0.00    +0.054 A 
ATOM      4  C   UNL     1       5.277  -5.386   1.744  0.00  0.00    +0.167 A 
ATOM      5  C   UNL     1       5.655  -6.567   2.386  0.00  0.00    +0.167 A 
ATOM      6  C   UNL     1       4.937  -7.017   3.474  0.00  0.00    +0.061 A 
ATOM      7  C   UNL     1       3.830  -6.289   3.929  0.00  0.00    +0.026 A 
ATOM      8  C   UNL     1       3.060  -6.780   5.085  0.00  0.00    +0.182 C 
ATOM      9  O   UNL     1       3.235  -7.896   5.527  0.00  0.00    -0.290 OA
ATOM     10  C   UNL     1       2.042  -5.843   5.701  0.00  0.00    +0.163 C 
ATOM     11  C   UNL     1       1.296  -5.157   4.549  0.00  0.00    +0.097 C 
ATOM     12 CL   UNL     1       0.881  -6.780   6.714  0.00  0.00    -0.113 Cl
ATOM     13  O   UNL     1       6.751  -7.076   1.751  0.00  0.00    -0.453 OA
ATOM     14  C   UNL     1       6.791  -6.420   0.470  0.00  0.00    +0.466 C 
ATOM     15  O   UNL     1       6.136  -5.160   0.710  0.00  0.00    -0.453 OA
ENDROOT
BRANCH   1  20
ATOM     16  C   UNL     1       0.802  -1.824   1.306  0.00  0.00    +0.121 A 
ATOM     17  C   UNL     1       0.260  -2.673   0.351  0.00  0.00    +0.045 A 
ATOM     18  C   UNL     1       0.372  -4.041   0.501  0.00  0.00    +0.004 A 
ATOM     19  C   UNL     1       1.024  -4.566   1.602  0.00  0.00    +0.004 A 
ATOM     20  C   UNL     1       1.565  -3.723   2.555  0.00  0.00    -0.036 A 
ATOM     21  C   UNL     1       1.460  -2.353   2.406  0.00  0.00    +0.050 A 
BRANCH  16  22
ATOM     22  O   UNL     1       0.693  -0.477   1.160  0.00  0.00    -0.492 OA
BRANCH  22  24
ATOM     23  C   UNL     1      -0.019   1.526   0.010  0.00  0.00    +0.048 C 
ATOM     24  C   UNL     1       0.002  -0.004   0.002  0.00  0.00    +0.225 C 
ENDBRANCH  22  24
ENDBRANCH  16  22
ENDBRANCH   1  20
BRANCH  11  25
ATOM     25  C   UNL     1       0.202  -4.285   5.109  0.00  0.00    +0.172 C 
ATOM     26  O   UNL     1       0.405  -3.105   5.301  0.00  0.00    -0.292 OA
BRANCH  25  27
ATOM     27  C   UNL     1      -1.110  -4.865   5.423  0.00  0.00    +0.059 A 
ATOM     28  C   UNL     1      -1.347  -6.228   5.210  0.00  0.00    +0.015 A 
ATOM     29  C   UNL     1      -2.580  -6.765   5.507  0.00  0.00    +0.001 A 
ATOM     30  C   UNL     1      -3.588  -5.962   6.017  0.00  0.00    +0.004 A 
ATOM     31  C   UNL     1      -3.370  -4.616   6.232  0.00  0.00    +0.046 A 
ATOM     32  C   UNL     1      -2.133  -4.057   5.945  0.00  0.00    +0.127 A 
BRANCH  32  33
ATOM     33  O   UNL     1      -1.915  -2.736   6.162  0.00  0.00    -0.506 OA
ATOM     34  H   UNL     1      -2.127  -2.173   5.406  0.00  0.00    +0.292 HD
ENDBRANCH  32  33
ENDBRANCH  25  27
ENDBRANCH  11  25
TORSDOF 6
