REMARK  Name = ZINC12220478
REMARK  8 active torsions:
REMARK  status: ('A' for Active; 'I' for Inactive)
REMARK    1  A    between atoms: C_1  and  C_2
REMARK    2  A    between atoms: C_2  and  C_3
REMARK    3  A    between atoms: C_2  and  C_4
REMARK    4  A    between atoms: C_7  and  O_27
REMARK    5  A    between atoms: C_8  and  S_10
REMARK    6  A    between atoms: S_10  and  N_13
REMARK    7  A    between atoms: C_22  and  C_24
REMARK    8  A    between atoms: O_27  and  C_28
REMARK                            x       y       z     vdW  Elec       q    Type
REMARK                         _______ _______ _______ _____ _____    ______ ____
ROOT
ATOM      1  N   UNL     1      -0.225   3.515  -1.588  0.00  0.00    -0.160 NA
ATOM      2  C   UNL     1       0.471   3.493  -2.880  0.00  0.00    +0.145 C 
ATOM      3  C   UNL     1      -0.506   3.829  -3.984  0.00  0.00    -0.028 A 
ATOM      4  C   UNL     1      -0.095   3.631  -5.295  0.00  0.00    +0.005 A 
ATOM      5  C   UNL     1      -0.931   3.945  -6.346  0.00  0.00    +0.000 A 
ATOM      6  C   UNL     1      -2.188   4.461  -6.092  0.00  0.00    +0.000 A 
ATOM      7  C   UNL     1      -2.600   4.654  -4.790  0.00  0.00    +0.004 A 
ATOM      8  C   UNL     1      -1.762   4.334  -3.728  0.00  0.00    -0.041 A 
ATOM      9  C   UNL     1      -2.283   4.561  -2.334  0.00  0.00    +0.065 C 
ATOM     10  C   UNL     1      -1.135   4.644  -1.330  0.00  0.00    +0.170 C 
ENDROOT
BRANCH  10  11
ATOM     11  C   UNL     1      -1.675   4.552   0.074  0.00  0.00    +0.230 C 
ATOM     12  O   UNL     1      -2.616   3.826   0.315  0.00  0.00    -0.274 OA
ATOM     13  N   UNL     1      -1.113   5.277   1.061  0.00  0.00    -0.328 N 
ATOM     14  H   UNL     1      -0.411   5.915   0.856  0.00  0.00    +0.145 HD
ATOM     15  H   UNL     1      -1.409   5.160   1.977  0.00  0.00    +0.145 HD
ENDBRANCH  10  11
BRANCH   1  16
ATOM     16  S   UNL     1       0.009   2.323  -0.464  0.00  0.00    +0.065 S 
ATOM     17  O   UNL     1      -0.737   2.697   0.686  0.00  0.00    -0.153 OA
ATOM     18  O   UNL     1       1.408   2.077  -0.417  0.00  0.00    -0.153 OA
BRANCH  16  23
ATOM     19  C   UNL     1      -0.542  -1.382  -1.919  0.00  0.00    -0.043 A 
ATOM     20  C   UNL     1      -1.914  -1.444  -2.087  0.00  0.00    +0.007 A 
ATOM     21  C   UNL     1      -2.701  -0.358  -1.760  0.00  0.00    +0.048 A 
ATOM     22  C   UNL     1      -2.115   0.797  -1.262  0.00  0.00    +0.146 A 
ATOM     23  C   UNL     1      -0.739   0.858  -1.094  0.00  0.00    +0.147 A 
ATOM     24  C   UNL     1       0.044  -0.232  -1.423  0.00  0.00    +0.036 A 
BRANCH  19  26
ATOM     25  C   UNL     1      -0.107  -3.775  -1.435  0.00  0.00    +0.012 C 
ATOM     26  C   UNL     1       0.314  -2.569  -2.277  0.00  0.00    +0.013 C 
ATOM     27  C   UNL     1       0.138  -2.896  -3.761  0.00  0.00    +0.012 C 
ENDBRANCH  19  26
BRANCH  22  28
ATOM     28  O   UNL     1      -2.887   1.870  -0.946  0.00  0.00    -0.493 OA
ATOM     29  C   UNL     1      -4.281   1.777  -1.243  0.00  0.00    +0.277 C 
ENDBRANCH  22  28
ENDBRANCH  16  23
ENDBRANCH   1  16
TORSDOF 5
