REMARK  Name = ZINC20382695
REMARK  4 active torsions:
REMARK  status: ('A' for Active; 'I' for Inactive)
REMARK    1  A    between atoms: C_5  and  C_7
REMARK    2  A    between atoms: C_7  and  N_8
REMARK    3  A    between atoms: C_20  and  C_23
REMARK    4  A    between atoms: C_31  and  C_33
REMARK                            x       y       z     vdW  Elec       q    Type
REMARK                         _______ _______ _______ _____ _____    ______ ____
ROOT
ATOM      1  N   UNL     1       1.990   4.555  -0.750  0.00  0.00    -0.309 N 
ATOM      2  C   UNL     1       1.295   3.411  -0.395  0.00  0.00    +0.068 A 
ATOM      3  C   UNL     1       1.230   2.126  -0.911  0.00  0.00    +0.028 A 
ATOM      4  C   UNL     1       0.418   1.185  -0.311  0.00  0.00    +0.002 A 
ATOM      5  C   UNL     1      -0.338   1.518   0.803  0.00  0.00    +0.002 A 
ATOM      6  C   UNL     1      -0.281   2.788   1.333  0.00  0.00    +0.028 A 
ATOM      7  C   UNL     1       0.535   3.752   0.737  0.00  0.00    +0.065 A 
ATOM      8  N   UNL     1       0.795   5.057   1.015  0.00  0.00    -0.327 N 
ATOM      9  C   UNL     1       1.649   5.531   0.142  0.00  0.00    +0.177 A 
ATOM     10  N   UNL     1       2.132   6.822   0.128  0.00  0.00    -0.302 N 
ATOM     11  C   UNL     1       3.017   7.066   1.274  0.00  0.00    +0.108 C 
ATOM     12  C   UNL     1       3.647   8.455   1.148  0.00  0.00    +0.032 C 
ATOM     13  C   UNL     1       2.539   9.510   1.101  0.00  0.00    +0.078 C 
ATOM     14  C   UNL     1       1.604   9.206  -0.072  0.00  0.00    +0.032 C 
ATOM     15  C   UNL     1       1.033   7.795   0.090  0.00  0.00    +0.108 C 
ATOM     16  H   UNL     1       0.305   5.545   1.870  0.00  0.00    +0.169 HD
ENDROOT
BRANCH  13  17
ATOM     17  C   UNL     1       3.150  10.876   0.918  0.00  0.00    +0.219 C 
ATOM     18  O   UNL     1       3.240  11.355  -0.193  0.00  0.00    -0.275 OA
ATOM     19  N   UNL     1       3.596  11.564   1.987  0.00  0.00    -0.298 N 
ATOM     20  C   UNL     1       3.391  11.047   3.348  0.00  0.00    +0.127 C 
ATOM     21  C   UNL     1       4.759  10.962   4.046  0.00  0.00    +0.127 C 
ATOM     22  N   UNL     1       5.453  12.246   3.873  0.00  0.00    -0.292 N 
ATOM     23  C   UNL     1       5.653  12.765   2.513  0.00  0.00    +0.127 C 
ATOM     24  C   UNL     1       4.290  12.847   1.814  0.00  0.00    +0.127 C 
ATOM     25  C   UNL     1       5.899  12.934   4.942  0.00  0.00    +0.282 C 
ATOM     26  O   UNL     1       5.820  12.448   6.055  0.00  0.00    -0.267 OA
BRANCH  25  27
ATOM     27  C   UNL     1       6.478  14.270   4.765  0.00  0.00    +0.189 A 
ATOM     28  C   UNL     1       7.085  15.017   5.734  0.00  0.00    +0.054 A 
ATOM     29  C   UNL     1       7.487  16.216   5.127  0.00  0.00    +0.042 A 
ATOM     30  C   UNL     1       7.112  16.151   3.830  0.00  0.00    +0.196 A 
ATOM     31  O   UNL     1       6.509  14.975   3.615  0.00  0.00    -0.458 OA
ENDBRANCH  25  27
ENDBRANCH  13  17
BRANCH   1  32
ATOM     32  C   UNL     1       2.919   4.693  -1.875  0.00  0.00    +0.163 C 
BRANCH  32  37
ATOM     33  C   UNL     1       1.564   7.022  -4.519  0.00  0.00    +0.000 A 
ATOM     34  C   UNL     1       0.813   6.157  -5.293  0.00  0.00    +0.003 A 
ATOM     35  C   UNL     1       0.742   4.817  -4.961  0.00  0.00    +0.039 A 
ATOM     36  C   UNL     1       1.428   4.341  -3.856  0.00  0.00    +0.128 A 
ATOM     37  C   UNL     1       2.176   5.209  -3.080  0.00  0.00    +0.007 A 
ATOM     38  C   UNL     1       2.246   6.549  -3.414  0.00  0.00    +0.008 A 
ATOM     39  F   UNL     1       1.363   3.031  -3.534  0.00  0.00    -0.205 F 
ENDBRANCH  32  37
ENDBRANCH   1  32
TORSDOF 4
