REMARK  Name = ZINC37303274
REMARK  5 active torsions:
REMARK  status: ('A' for Active; 'I' for Inactive)
REMARK    1  A    between atoms: C_3  and  O_9
REMARK    2  A    between atoms: O_9  and  C_10
REMARK    3  A    between atoms: C_10  and  C_11
REMARK    4  A    between atoms: C_11  and  C_12
REMARK    5  A    between atoms: C_14  and  C_17
REMARK                            x       y       z     vdW  Elec       q    Type
REMARK                         _______ _______ _______ _____ _____    ______ ____
ROOT
ATOM      1  O   UNL     1       3.548   2.106  -0.021  0.00  0.00    -0.490 OA
ENDROOT
BRANCH   1   4
ATOM      2  C   UNL     1      -0.017   1.379   0.010  0.00  0.00    +0.023 A 
ATOM      3  C   UNL     1       1.170   2.087   0.002  0.00  0.00    +0.048 A 
ATOM      4  C   UNL     1       2.380   1.411  -0.013  0.00  0.00    +0.134 A 
ATOM      5  C   UNL     1       2.397   0.023  -0.021  0.00  0.00    +0.061 A 
ATOM      6  C   UNL     1       1.209  -0.681  -0.013  0.00  0.00    +0.039 A 
ATOM      7  C   UNL     1       0.002  -0.004   0.002  0.00  0.00    +0.042 A 
ATOM      8 CL   UNL     1      -1.490  -0.891   0.011  0.00  0.00    -0.084 Cl
ATOM      9 BR   UNL     1       4.046  -0.903  -0.042  0.00  0.00    -0.046 Br
ENDBRANCH   1   4
BRANCH   1  10
ATOM     10  C   UNL     1       3.455   3.532  -0.013  0.00  0.00    +0.236 C 
BRANCH  10  11
ATOM     11  C   UNL     1       4.861   4.136  -0.024  0.00  0.00    +0.104 C 
BRANCH  11  12
ATOM     12  C   UNL     1       4.762   5.639  -0.015  0.00  0.00    +0.082 A 
ATOM     13  N   UNL     1       4.724   6.447   1.016  0.00  0.00    -0.248 NA
ATOM     14  C   UNL     1       4.636   7.753   0.861  0.00  0.00    +0.063 A 
ATOM     15  C   UNL     1       4.586   8.220  -0.412  0.00  0.00    +0.071 A 
ATOM     16  S   UNL     1       4.681   6.690  -1.328  0.00  0.00    -0.080 S 
BRANCH  14  17
ATOM     17  C   UNL     1       4.591   8.685   2.045  0.00  0.00    +0.164 C 
ATOM     18 CL   UNL     1       6.269   9.169   2.492  0.00  0.00    -0.119 Cl
ENDBRANCH  14  17
ENDBRANCH  11  12
ENDBRANCH  10  11
ENDBRANCH   1  10
TORSDOF 5
