REMARK  Name = ZINC40892959
REMARK  9 active torsions:
REMARK  status: ('A' for Active; 'I' for Inactive)
REMARK    1  A    between atoms: C_1  and  C_2
REMARK    2  A    between atoms: C_2  and  C_3
REMARK    3  A    between atoms: C_5  and  O_35
REMARK    4  A    between atoms: C_7  and  C_28
REMARK    5  A    between atoms: C_7  and  O_34
REMARK    6  A    between atoms: C_17  and  O_19
REMARK    7  A    between atoms: O_19  and  C_20
REMARK    8  A    between atoms: C_20  and  C_21
REMARK    9  A    between atoms: C_26  and  C_27
REMARK                            x       y       z     vdW  Elec       q    Type
REMARK                         _______ _______ _______ _____ _____    ______ ____
ROOT
ATOM      1  C   UNL     1       0.397  -1.043  -1.213  0.00  0.00    +0.001 C 
ATOM      2  C   UNL     1       1.719  -0.296  -1.379  0.00  0.00    +0.046 C 
ATOM      3  C   UNL     1       2.569  -0.510  -0.122  0.00  0.00    +0.151 C 
ATOM      4  C   UNL     1       2.830  -2.002   0.084  0.00  0.00    +0.117 C 
ATOM      5  C   UNL     1       1.502  -2.753   0.220  0.00  0.00    +0.046 C 
ATOM      6  C   UNL     1       0.680  -2.536  -1.049  0.00  0.00    +0.003 C 
ATOM      7  C   UNL     1      -0.658  -3.271  -0.970  0.00  0.00    +0.009 C 
ATOM      8  C   UNL     1      -1.314  -3.217  -2.349  0.00  0.00    +0.036 C 
ATOM      9  C   UNL     1      -1.304  -1.816  -2.903  0.00  0.00    -0.040 A 
ATOM     10  C   UNL     1      -0.497  -0.811  -2.397  0.00  0.00    -0.037 A 
ATOM     11  C   UNL     1      -0.524   0.457  -2.961  0.00  0.00    +0.008 A 
ATOM     12  C   UNL     1      -1.332   0.728  -4.045  0.00  0.00    +0.046 A 
ATOM     13  C   UNL     1      -2.128  -0.277  -4.576  0.00  0.00    +0.121 A 
ATOM     14  C   UNL     1      -2.135  -1.546  -3.982  0.00  0.00    +0.049 A 
ENDROOT
BRANCH   4  15
ATOM     15  C   UNL     1       3.592  -2.545  -1.098  0.00  0.00    -0.014 A 
ATOM     16  C   UNL     1       4.081  -1.682  -2.060  0.00  0.00    +0.006 A 
ATOM     17  C   UNL     1       4.780  -2.179  -3.144  0.00  0.00    +0.000 A 
ATOM     18  C   UNL     1       4.990  -3.540  -3.265  0.00  0.00    +0.000 A 
ATOM     19  C   UNL     1       4.502  -4.403  -2.303  0.00  0.00    +0.000 A 
ATOM     20  C   UNL     1       3.807  -3.905  -1.216  0.00  0.00    +0.006 A 
ENDBRANCH   4  15
BRANCH   1  22
ATOM     21  C   UNL     1      -0.597   0.963  -0.104  0.00  0.00    +0.005 C 
ATOM     22  C   UNL     1      -0.306  -0.532   0.046  0.00  0.00    +0.008 C 
ENDBRANCH   1  22
BRANCH   4  23
ATOM     23  O   UNL     1       3.604  -2.189   1.271  0.00  0.00    -0.381 OA
ATOM     24  H   UNL     1       4.465  -1.747   1.252  0.00  0.00    +0.211 HD
ENDBRANCH   4  23
BRANCH   3  25
ATOM     25  O   UNL     1       3.816   0.171  -0.272  0.00  0.00    -0.389 OA
ATOM     26  H   UNL     1       3.730   1.126  -0.399  0.00  0.00    +0.210 HD
ENDBRANCH   3  25
BRANCH  13  27
ATOM     27  O   UNL     1      -2.932  -0.021  -5.641  0.00  0.00    -0.487 OA
BRANCH  27  28
ATOM     28  C   UNL     1      -2.908   1.308  -6.166  0.00  0.00    +0.266 C 
BRANCH  28  29
ATOM     29  C   UNL     1      -3.855   1.403  -7.335  0.00  0.00    +0.011 A 
ATOM     30  C   UNL     1      -4.587   0.296  -7.737  0.00  0.00    +0.010 A 
ATOM     31  C   UNL     1      -5.446   0.429  -8.817  0.00  0.00    +0.020 A 
ATOM     32  C   UNL     1      -5.543   1.653  -9.453  0.00  0.00    +0.111 A 
ATOM     33  N   UNL     1      -4.831   2.685  -9.043  0.00  0.00    -0.260 NA
ATOM     34  C   UNL     1      -4.009   2.595  -8.015  0.00  0.00    +0.045 A 
ATOM     35  C   UNL     1      -3.224   3.807  -7.582  0.00  0.00    +0.066 C 
ENDBRANCH  28  29
ENDBRANCH  27  28
ENDBRANCH  13  27
TORSDOF 7
