REMARK  Name = ZINC63985897
REMARK  13 active torsions:
REMARK  status: ('A' for Active; 'I' for Inactive)
REMARK    1  A    between atoms: C_1  and  C_2
REMARK    2  A    between atoms: C_2  and  N_3
REMARK    3  A    between atoms: N_3  and  C_4
REMARK    4  A    between atoms: C_4  and  C_5
REMARK    5  A    between atoms: C_6  and  C_8
REMARK    6  A    between atoms: C_8  and  O_9
REMARK    7  A    between atoms: O_9  and  C_10
REMARK    8  A    between atoms: N_17  and  C_19
REMARK    9  A    between atoms: C_19  and  C_20
REMARK   10  A    between atoms: C_20  and  C_21
REMARK   11  A    between atoms: C_27  and  C_29
REMARK   12  A    between atoms: C_29  and  C_30
REMARK   13  A    between atoms: C_30  and  C_31
REMARK                            x       y       z     vdW  Elec       q    Type
REMARK                         _______ _______ _______ _____ _____    ______ ____
ROOT
ATOM      1  C   UNL     1      -1.546  -0.618   4.862  0.00  0.00    +0.153 C 
ATOM      2  C   UNL     1      -0.834  -1.893   5.302  0.00  0.00    +0.141 C 
ATOM      3  N   UNL     1      -0.156  -1.713   6.583  0.00  0.00    -0.290 N 
ATOM      4  C   UNL     1      -0.927  -1.411   7.794  0.00  0.00    +0.203 C 
ATOM      5  C   UNL     1      -1.221   0.073   7.825  0.00  0.00    +0.233 C 
ATOM      6  O   UNL     1      -0.702   0.783   8.660  0.00  0.00    -0.274 OA
ATOM      7  N   UNL     1      -2.061   0.595   6.917  0.00  0.00    -0.297 N 
ATOM      8  C   UNL     1      -2.640  -0.255   5.869  0.00  0.00    +0.141 C 
ATOM      9  C   UNL     1       1.185  -1.826   6.654  0.00  0.00    +0.216 C 
ATOM     10  O   UNL     1       1.826  -2.076   5.655  0.00  0.00    -0.276 OA
ENDROOT
BRANCH   1  11
ATOM     11  O   UNL     1      -2.135  -0.824   3.577  0.00  0.00    -0.364 OA
BRANCH  11  12
ATOM     12  C   UNL     1      -1.274  -0.497   2.484  0.00  0.00    +0.256 C 
BRANCH  12  14
ATOM     13  N   UNL     1      -1.372  -0.511   0.012  0.00  0.00    -0.300 N 
ATOM     14  C   UNL     1      -1.993  -0.751   1.184  0.00  0.00    +0.241 C 
ATOM     15  O   UNL     1      -3.131  -1.171   1.193  0.00  0.00    -0.273 OA
BRANCH  13  17
ATOM     16  C   UNL     1      -0.019   1.526   0.010  0.00  0.00    +0.024 C 
ATOM     17  C   UNL     1       0.002  -0.004   0.002  0.00  0.00    +0.104 C 
ENDBRANCH  13  17
BRANCH  13  18
ATOM     18  C   UNL     1      -2.072  -0.758  -1.251  0.00  0.00    +0.104 C 
ATOM     19  C   UNL     1      -1.816  -2.197  -1.703  0.00  0.00    +0.024 C 
ENDBRANCH  13  18
ENDBRANCH  12  14
ENDBRANCH  11  12
ENDBRANCH   1  11
BRANCH   7  20
ATOM     20  C   UNL     1      -2.402   2.019   6.975  0.00  0.00    +0.112 C 
BRANCH  20  21
ATOM     21  C   UNL     1      -1.404   2.817   6.135  0.00  0.00    +0.054 C 
BRANCH  21  22
ATOM     22  C   UNL     1      -1.755   4.282   6.195  0.00  0.00    -0.046 A 
ATOM     23  C   UNL     1      -2.624   4.822   5.266  0.00  0.00    +0.004 A 
ATOM     24  C   UNL     1      -2.946   6.166   5.320  0.00  0.00    +0.000 A 
ATOM     25  C   UNL     1      -2.399   6.968   6.304  0.00  0.00    +0.000 A 
ATOM     26  C   UNL     1      -1.531   6.427   7.234  0.00  0.00    +0.000 A 
ATOM     27  C   UNL     1      -1.212   5.083   7.182  0.00  0.00    +0.004 A 
ENDBRANCH  21  22
ENDBRANCH  20  21
ENDBRANCH   7  20
BRANCH   9  28
ATOM     28  C   UNL     1       1.888  -1.641   7.973  0.00  0.00    +0.100 C 
BRANCH  28  29
ATOM     29  C   UNL     1       3.395  -1.820   7.778  0.00  0.00    +0.042 C 
BRANCH  29  30
ATOM     30  C   UNL     1       4.099  -1.636   9.098  0.00  0.00    -0.041 C 
ATOM     31  C   UNL     1       4.467  -2.606   9.965  0.00  0.00    -0.001 A 
ATOM     32  C   UNL     1       4.327  -4.067   9.941  0.00  0.00    +0.010 A 
ATOM     33  C   UNL     1       4.806  -4.788  10.980  0.00  0.00    +0.001 A 
ATOM     34  C   UNL     1       5.429  -4.178  12.077  0.00  0.00    +0.002 A 
ATOM     35  C   UNL     1       5.595  -2.841  12.171  0.00  0.00    +0.026 A 
ATOM     36  C   UNL     1       5.130  -1.985  11.134  0.00  0.00    +0.043 A 
ATOM     37  N   UNL     1       5.170  -0.682  10.995  0.00  0.00    -0.380 N 
ATOM     38  C   UNL     1       4.542  -0.329   9.717  0.00  0.00    +0.144 C 
ATOM     39  H   UNL     1       5.555  -0.057  11.629  0.00  0.00    +0.160 HD
ENDBRANCH  29  30
ENDBRANCH  28  29
ENDBRANCH   9  28
TORSDOF 11
