REMARK  Name = ZINC38656167
REMARK  8 active torsions:
REMARK  status: ('A' for Active; 'I' for Inactive)
REMARK    1  A    between atoms: C_1  and  O_2
REMARK    2  A    between atoms: O_2  and  C_3
REMARK    3  A    between atoms: C_8  and  C_9
REMARK    4  A    between atoms: C_9  and  O_11
REMARK    5  A    between atoms: O_11  and  C_12
REMARK    6  A    between atoms: C_19  and  N_30
REMARK    7  A    between atoms: C_20  and  C_28
REMARK    8  A    between atoms: C_21  and  C_23
REMARK                            x       y       z     vdW  Elec       q    Type
REMARK                         _______ _______ _______ _____ _____    ______ ____
ROOT
ATOM      1  C   UNL     1      -0.490  -4.808   0.896  0.00  0.00    +0.135 A 
ATOM      2  C   UNL     1      -1.140  -4.071   1.876  0.00  0.00    +0.047 A 
ATOM      3  C   UNL     1      -1.764  -4.718   2.925  0.00  0.00    +0.012 A 
ATOM      4  C   UNL     1      -1.745  -6.099   3.003  0.00  0.00    +0.008 A 
ATOM      5  C   UNL     1      -1.097  -6.840   2.027  0.00  0.00    +0.138 A 
ATOM      6  C   UNL     1      -0.474  -6.191   0.969  0.00  0.00    +0.093 A 
ATOM      7  O   UNL     1      -1.068  -8.194   2.087  0.00  0.00    -0.441 OA
ATOM      8  C   UNL     1      -1.961  -8.851   2.845  0.00  0.00    +0.199 C 
ATOM      9  C   UNL     1      -2.641  -8.239   3.843  0.00  0.00    +0.098 C 
ATOM     10  C   UNL     1      -2.431  -6.785   4.155  0.00  0.00    +0.105 C 
ENDROOT
BRANCH  10  11
ATOM     11  C   UNL     1      -1.578  -6.658   5.391  0.00  0.00    +0.002 A 
ATOM     12  C   UNL     1      -1.879  -6.081   6.580  0.00  0.00    +0.012 A 
ATOM     13  C   UNL     1      -0.930  -6.082   7.585  0.00  0.00    +0.008 A 
ATOM     14  C   UNL     1       0.273  -6.660   7.352  0.00  0.00    +0.045 A 
ATOM     15  S   UNL     1       0.088  -7.235   5.672  0.00  0.00    -0.101 S 
ENDBRANCH  10  11
BRANCH   8  16
ATOM     16  N   UNL     1      -2.190 -10.182   2.601  0.00  0.00    -0.328 N 
ATOM     17  H   UNL     1      -1.710 -10.635   1.890  0.00  0.00    +0.145 HD
ATOM     18  H   UNL     1      -2.832 -10.671   3.140  0.00  0.00    +0.145 HD
ENDBRANCH   8  16
BRANCH   9  19
ATOM     19  C   UNL     1      -3.581  -8.994   4.617  0.00  0.00    +0.101 C 
ATOM     20  N   UNL     1      -4.326  -9.593   5.230  0.00  0.00    -0.191 NA
ENDBRANCH   9  19
BRANCH   1  21
ATOM     21  O   UNL     1       0.125  -4.173  -0.137  0.00  0.00    -0.422 OA
BRANCH  21  22
ATOM     22  C   UNL     1      -0.498  -4.159  -1.332  0.00  0.00    +0.348 C 
ATOM     23  O   UNL     1      -1.533  -4.779  -1.485  0.00  0.00    -0.244 OA
BRANCH  22  29
ATOM     24  C   UNL     1      -0.570  -3.376  -3.698  0.00  0.00    +0.134 A 
ATOM     25  C   UNL     1      -0.024  -2.646  -4.744  0.00  0.00    +0.046 A 
ATOM     26  C   UNL     1       1.151  -1.945  -4.560  0.00  0.00    +0.004 A 
ATOM     27  C   UNL     1       1.794  -1.964  -3.333  0.00  0.00    +0.001 A 
ATOM     28  C   UNL     1       1.267  -2.684  -2.283  0.00  0.00    +0.018 A 
ATOM     29  C   UNL     1       0.075  -3.393  -2.453  0.00  0.00    +0.101 A 
BRANCH  24  31
ATOM     30  C   UNL     1      -2.324  -4.000  -5.172  0.00  0.00    +0.277 C 
ATOM     31  O   UNL     1      -1.724  -4.064  -3.877  0.00  0.00    -0.494 OA
ENDBRANCH  24  31
ENDBRANCH  22  29
ENDBRANCH  21  22
ENDBRANCH   1  21
TORSDOF 7
