REMARK  Name = ZINC06137370
REMARK  12 active torsions:
REMARK  status: ('A' for Active; 'I' for Inactive)
REMARK    1  A    between atoms: C_1  and  C_2
REMARK    2  A    between atoms: C_3  and  C_32
REMARK    3  A    between atoms: C_4  and  C_25
REMARK    4  A    between atoms: C_10  and  C_15
REMARK    5  A    between atoms: C_18  and  O_23
REMARK    6  A    between atoms: C_19  and  O_21
REMARK    7  A    between atoms: O_21  and  C_22
REMARK    8  A    between atoms: O_23  and  C_24
REMARK    9  A    between atoms: C_28  and  O_31
REMARK   10  A    between atoms: C_32  and  O_34
REMARK   11  A    between atoms: O_34  and  C_35
REMARK   12  A    between atoms: C_35  and  C_36
REMARK                            x       y       z     vdW  Elec       q    Type
REMARK                         _______ _______ _______ _____ _____    ______ ____
ROOT
ATOM      1  C   UNL     1      -1.161  -3.770   2.450  0.00  0.00    +0.061 C 
ATOM      2  C   UNL     1      -1.104  -2.947   1.189  0.00  0.00    +0.031 C 
ATOM      3  C   UNL     1      -1.345  -1.627   1.243  0.00  0.00    +0.154 C 
ATOM      4  C   UNL     1      -1.292  -0.774   0.011  0.00  0.00    +0.073 C 
ATOM      5  C   UNL     1      -1.374  -1.619  -1.236  0.00  0.00    +0.025 C 
ATOM      6  C   UNL     1      -1.127  -2.945  -1.188  0.00  0.00    +0.049 C 
ATOM      7  N   UNL     1      -0.807  -3.549  -0.002  0.00  0.00    -0.260 NA
ATOM      8  C   UNL     1      -1.194  -3.794  -2.433  0.00  0.00    +0.064 C 
ATOM      9  C   UNL     1      -2.227  -3.211  -3.398  0.00  0.00    +0.032 C 
ATOM     10  C   UNL     1      -1.828  -1.768  -3.727  0.00  0.00    +0.088 C 
ATOM     11  C   UNL     1      -1.715  -0.988  -2.445  0.00  0.00    +0.162 C 
ATOM     12  O   UNL     1      -1.923   0.209  -2.456  0.00  0.00    -0.292 OA
ENDROOT
BRANCH   9  13
ATOM     13  C   UNL     1      -2.260  -4.031  -4.662  0.00  0.00    -0.040 A 
ATOM     14  C   UNL     1      -1.120  -4.156  -5.433  0.00  0.00    +0.008 A 
ATOM     15  C   UNL     1      -1.145  -4.908  -6.593  0.00  0.00    +0.049 A 
ATOM     16  C   UNL     1      -2.314  -5.538  -6.984  0.00  0.00    +0.161 A 
ATOM     17  C   UNL     1      -3.462  -5.413  -6.208  0.00  0.00    +0.162 A 
ATOM     18  C   UNL     1      -3.429  -4.662  -5.044  0.00  0.00    +0.053 A 
BRANCH  17  19
ATOM     19  O   UNL     1      -4.613  -6.031  -6.588  0.00  0.00    -0.491 OA
ATOM     20  C   UNL     1      -5.752  -5.858  -5.742  0.00  0.00    +0.277 C 
ENDBRANCH  17  19
BRANCH  16  21
ATOM     21  O   UNL     1      -2.341  -6.278  -8.126  0.00  0.00    -0.491 OA
ATOM     22  C   UNL     1      -1.126  -6.362  -8.873  0.00  0.00    +0.277 C 
ENDBRANCH  16  21
ENDBRANCH   9  13
BRANCH   4  23
ATOM     23  C   UNL     1       0.003  -0.004   0.003  0.00  0.00    -0.038 A 
ATOM     24  C   UNL     1      -0.015   1.378   0.010  0.00  0.00    +0.008 A 
ATOM     25  C   UNL     1       1.172   2.086   0.003  0.00  0.00    +0.045 A 
ATOM     26  C   UNL     1       2.382   1.408  -0.012  0.00  0.00    +0.117 A 
ATOM     27  C   UNL     1       2.398   0.021  -0.019  0.00  0.00    +0.045 A 
ATOM     28  C   UNL     1       1.208  -0.682  -0.012  0.00  0.00    +0.008 A 
BRANCH  26  29
ATOM     29  O   UNL     1       3.550   2.102  -0.020  0.00  0.00    -0.507 OA
ATOM     30  H   UNL     1       3.880   2.307  -0.905  0.00  0.00    +0.292 HD
ENDBRANCH  26  29
ENDBRANCH   4  23
BRANCH   3  31
ATOM     31  C   UNL     1      -1.656  -1.030   2.487  0.00  0.00    +0.317 C 
ATOM     32  O   UNL     1      -1.704  -1.711   3.494  0.00  0.00    -0.250 OA
BRANCH  31  33
ATOM     33  O   UNL     1      -1.900   0.296   2.557  0.00  0.00    -0.459 OA
BRANCH  33  34
ATOM     34  C   UNL     1      -2.208   0.832   3.845  0.00  0.00    +0.267 C 
BRANCH  34  35
ATOM     35  C   UNL     1      -2.449   2.315   3.728  0.00  0.00    -0.010 A 
ATOM     36  C   UNL     1      -1.397   3.199   3.873  0.00  0.00    +0.007 A 
ATOM     37  C   UNL     1      -1.616   4.559   3.761  0.00  0.00    +0.000 A 
ATOM     38  C   UNL     1      -2.890   5.035   3.513  0.00  0.00    +0.000 A 
ATOM     39  C   UNL     1      -3.944   4.151   3.373  0.00  0.00    +0.000 A 
ATOM     40  C   UNL     1      -3.723   2.791   3.480  0.00  0.00    +0.007 A 
ENDBRANCH  34  35
ENDBRANCH  33  34
ENDBRANCH  31  33
ENDBRANCH   3  31
TORSDOF 9
