REMARK  Name = ZINC20331595
REMARK  9 active torsions:
REMARK  status: ('A' for Active; 'I' for Inactive)
REMARK    1  A    between atoms: C_1  and  C_2
REMARK    2  A    between atoms: C_2  and  C_3
REMARK    3  A    between atoms: C_10  and  C_12
REMARK    4  A    between atoms: C_12  and  C_13
REMARK    5  A    between atoms: C_13  and  C_14
REMARK    6  A    between atoms: C_14  and  C_15
REMARK    7  A    between atoms: C_15  and  N_16
REMARK    8  A    between atoms: C_23  and  O_29
REMARK    9  A    between atoms: O_29  and  C_30
REMARK                            x       y       z     vdW  Elec       q    Type
REMARK                         _______ _______ _______ _____ _____    ______ ____
ROOT
ATOM      1  N   UNL     1      -0.835  -3.121  -7.173  0.00  0.00    -0.287 N 
ATOM      2  C   UNL     1      -0.948  -2.491  -8.359  0.00  0.00    +0.279 A 
ATOM      3  O   UNL     1      -1.796  -1.632  -8.520  0.00  0.00    -0.265 OA
ATOM      4  C   UNL     1      -0.066  -2.833  -9.417  0.00  0.00    +0.129 A 
ATOM      5  C   UNL     1       0.880  -3.817  -9.196  0.00  0.00    +0.079 A 
ATOM      6  C   UNL     1       1.636  -3.964 -10.439  0.00  0.00    +0.027 A 
ATOM      7  C   UNL     1       2.700  -4.783 -10.830  0.00  0.00    +0.057 A 
ATOM      8  C   UNL     1       3.207  -4.682 -12.109  0.00  0.00    +0.121 A 
ATOM      9  C   UNL     1       2.663  -3.769 -13.009  0.00  0.00    +0.047 A 
ATOM     10  C   UNL     1       1.616  -2.957 -12.637  0.00  0.00    +0.030 A 
ATOM     11  C   UNL     1       1.089  -3.042 -11.351  0.00  0.00    +0.049 A 
ATOM     12  N   UNL     1       0.066  -2.371 -10.716  0.00  0.00    -0.349 N 
ATOM     13  H   UNL     1      -0.601  -1.580 -11.089  0.00  0.00    +0.166 HD
ATOM     14  N   UNL     1       0.945  -4.433  -7.959  0.00  0.00    -0.333 N 
ATOM     15  C   UNL     1       0.092  -4.075  -6.980  0.00  0.00    +0.161 A 
ATOM     16  S   UNL     1       0.191  -4.852  -5.457  0.00  0.00    -0.013 S 
ATOM     17  H   UNL     1       1.694  -5.217  -7.774  0.00  0.00    +0.168 HD
ENDROOT
BRANCH   8  18
ATOM     18  O   UNL     1       4.242  -5.477 -12.492  0.00  0.00    -0.495 OA
ATOM     19  C   UNL     1       4.718  -5.321 -13.831  0.00  0.00    +0.277 C 
ENDBRANCH   8  18
BRANCH   1  20
ATOM     20  C   UNL     1      -1.742  -2.766  -6.079  0.00  0.00    +0.127 C 
BRANCH  20  21
ATOM     21  C   UNL     1      -1.122  -1.641  -5.248  0.00  0.00    +0.022 C 
BRANCH  21  22
ATOM     22  C   UNL     1      -2.069  -1.270  -4.105  0.00  0.00    +0.011 C 
BRANCH  22  23
ATOM     23  C   UNL     1      -1.449  -0.145  -3.273  0.00  0.00    +0.096 C 
BRANCH  23  30
ATOM     24  C   UNL     1      -2.986   1.639  -0.246  0.00  0.00    +0.076 C 
ATOM     25  C   UNL     1      -2.299   1.553   1.120  0.00  0.00    +0.022 C 
ATOM     26  C   UNL     1      -0.991   2.348   1.080  0.00  0.00    +0.003 C 
ATOM     27  C   UNL     1      -0.057   1.742   0.029  0.00  0.00    +0.019 C 
ATOM     28  C   UNL     1      -0.719   1.830  -1.349  0.00  0.00    +0.108 C 
ATOM     29  N   UNL     1      -2.042   1.194  -1.280  0.00  0.00    -0.298 N 
ATOM     30  C   UNL     1      -2.382   0.221  -2.148  0.00  0.00    +0.216 C 
ATOM     31  O   UNL     1      -3.439  -0.361  -2.023  0.00  0.00    -0.276 OA
BRANCH  24  33
ATOM     32  C   UNL     1      -5.218   1.221   0.798  0.00  0.00    +0.006 C 
ATOM     33  C   UNL     1      -4.223   0.737  -0.259  0.00  0.00    +0.019 C 
ENDBRANCH  24  33
ENDBRANCH  23  30
ENDBRANCH  22  23
ENDBRANCH  21  22
ENDBRANCH  20  21
ENDBRANCH   1  20
TORSDOF 7
