REMARK  Name = ZINC40727078
REMARK  5 active torsions:
REMARK  status: ('A' for Active; 'I' for Inactive)
REMARK    1  A    between atoms: C_4  and  N_7
REMARK    2  A    between atoms: C_14  and  N_28
REMARK    3  A    between atoms: C_15  and  N_19
REMARK    4  A    between atoms: N_19  and  C_20
REMARK    5  A    between atoms: C_20  and  C_21
REMARK                            x       y       z     vdW  Elec       q    Type
REMARK                         _______ _______ _______ _____ _____    ______ ____
ROOT
ATOM      1  N   UNL     1       4.211   0.383   1.173  0.00  0.00    -0.327 N 
ATOM      2  C   UNL     1       4.924   0.096   2.426  0.00  0.00    +0.124 C 
ATOM      3  C   UNL     1       5.186  -1.413   2.506  0.00  0.00    +0.125 C 
ATOM      4  N   UNL     1       5.779  -1.855   1.236  0.00  0.00    -0.311 N 
ATOM      5  C   UNL     1       5.065  -1.568  -0.017  0.00  0.00    +0.125 C 
ATOM      6  C   UNL     1       4.801  -0.064  -0.096  0.00  0.00    +0.124 C 
ATOM      7  C   UNL     1       6.992  -2.532   1.220  0.00  0.00    +0.147 A 
ATOM      8  C   UNL     1       7.026  -3.928   1.200  0.00  0.00    +0.105 A 
ATOM      9  C   UNL     1       8.271  -4.557   1.184  0.00  0.00    +0.145 A 
ATOM     10  N   UNL     1       9.372  -3.809   1.188  0.00  0.00    -0.219 NA
ATOM     11  C   UNL     1       9.296  -2.493   1.206  0.00  0.00    +0.225 A 
ATOM     12  N   UNL     1       8.141  -1.860   1.217  0.00  0.00    -0.219 NA
ENDROOT
BRANCH   1  16
ATOM     13  C   UNL     1       0.574   2.410   1.222  0.00  0.00    +0.000 A 
ATOM     14  C   UNL     1       1.176   2.102   0.016  0.00  0.00    +0.002 A 
ATOM     15  C   UNL     1       2.382   1.430  -0.004  0.00  0.00    +0.023 A 
ATOM     16  C   UNL     1       2.991   1.063   1.190  0.00  0.00    +0.030 A 
ATOM     17  C   UNL     1       2.383   1.374   2.400  0.00  0.00    +0.023 A 
ATOM     18  C   UNL     1       1.177   2.046   2.412  0.00  0.00    +0.002 A 
ENDBRANCH   1  16
BRANCH   8  19
ATOM     19  N   UNL     1       5.838  -4.678   1.197  0.00  0.00    -0.353 N 
ATOM     20  H   UNL     1       4.981  -4.228   1.135  0.00  0.00    +0.143 HD
ATOM     21  H   UNL     1       5.875  -5.645   1.257  0.00  0.00    +0.143 HD
ENDBRANCH   8  19
BRANCH   9  22
ATOM     22  N   UNL     1       8.361  -5.944   1.164  0.00  0.00    -0.323 N 
ATOM     23  H   UNL     1       7.554  -6.482   1.162  0.00  0.00    +0.148 HD
BRANCH  22  24
ATOM     24  C   UNL     1       9.674  -6.593   1.147  0.00  0.00    +0.138 C 
BRANCH  24  25
ATOM     25  C   UNL     1       9.495  -8.089   1.128  0.00  0.00    -0.030 A 
ATOM     26  C   UNL     1       9.414  -8.790   2.317  0.00  0.00    +0.006 A 
ATOM     27  C   UNL     1       9.250 -10.163   2.300  0.00  0.00    +0.020 A 
ATOM     28  C   UNL     1       9.166 -10.834   1.093  0.00  0.00    +0.041 A 
ATOM     29  C   UNL     1       9.247 -10.132  -0.096  0.00  0.00    +0.020 A 
ATOM     30  C   UNL     1       9.405  -8.759  -0.078  0.00  0.00    +0.006 A 
ATOM     31 CL   UNL     1       8.960 -12.558   1.071  0.00  0.00    -0.084 Cl
ENDBRANCH  24  25
ENDBRANCH  22  24
ENDBRANCH   9  22
TORSDOF 5
