REMARK  Name = ZINC00697640
REMARK  11 active torsions:
REMARK  status: ('A' for Active; 'I' for Inactive)
REMARK    1  A    between atoms: C_1  and  C_2
REMARK    2  A    between atoms: C_5  and  C_8
REMARK    3  A    between atoms: N_10  and  C_11
REMARK    4  A    between atoms: N_10  and  C_15
REMARK    5  A    between atoms: C_11  and  C_12
REMARK    6  A    between atoms: C_12  and  C_13
REMARK    7  A    between atoms: C_12  and  C_14
REMARK    8  A    between atoms: C_15  and  C_16
REMARK    9  A    between atoms: C_21  and  C_24
REMARK   10  A    between atoms: C_24  and  C_25
REMARK   11  A    between atoms: C_33  and  C_35
REMARK                            x       y       z     vdW  Elec       q    Type
REMARK                         _______ _______ _______ _____ _____    ______ ____
ROOT
ATOM      1  C   UNL     1      -7.001  -2.529  -4.116  0.00  0.00    +0.236 C 
ATOM      2  O   UNL     1      -6.254  -3.484  -4.145  0.00  0.00    -0.274 OA
ATOM      3  N   UNL     1      -7.006  -1.709  -3.046  0.00  0.00    -0.263 N 
ATOM      4  C   UNL     1      -6.154  -1.958  -1.976  0.00  0.00    +0.165 A 
ATOM      5  N   UNL     1      -6.017  -1.283  -0.851  0.00  0.00    -0.229 NA
ATOM      6  C   UNL     1      -5.149  -1.657   0.068  0.00  0.00    +0.059 A 
ATOM      7  C   UNL     1      -4.402  -2.764  -0.161  0.00  0.00    +0.072 A 
ATOM      8  S   UNL     1      -5.003  -3.242  -1.774  0.00  0.00    -0.060 S 
ATOM      9  H   UNL     1      -7.684  -0.843  -3.019  0.00  0.00    +0.157 HD
ENDROOT
BRANCH   1  10
ATOM     10  C   UNL     1      -7.925  -2.259  -5.275  0.00  0.00    +0.204 C 
BRANCH  10  13
ATOM     11  C   UNL     1      -7.070  -2.983  -7.439  0.00  0.00    +0.247 C 
ATOM     12  O   UNL     1      -6.960  -3.816  -8.318  0.00  0.00    -0.270 OA
ATOM     13  N   UNL     1      -7.730  -3.284  -6.304  0.00  0.00    -0.288 N 
BRANCH  11  18
ATOM     14  C   UNL     1      -4.773   2.248  -8.130  0.00  0.00    +0.044 C 
ATOM     15  C   UNL     1      -5.374   0.878  -7.949  0.00  0.00    -0.050 A 
ATOM     16  C   UNL     1      -5.774   0.150  -9.055  0.00  0.00    +0.004 A 
ATOM     17  C   UNL     1      -6.325  -1.105  -8.897  0.00  0.00    +0.013 A 
ATOM     18  C   UNL     1      -6.479  -1.639  -7.617  0.00  0.00    +0.037 A 
ATOM     19  C   UNL     1      -6.079  -0.897  -6.504  0.00  0.00    +0.013 A 
ATOM     20  C   UNL     1      -5.524   0.354  -6.677  0.00  0.00    +0.004 A 
ENDBRANCH  11  18
BRANCH  13  21
ATOM     21  C   UNL     1      -8.253  -4.637  -6.097  0.00  0.00    +0.111 C 
BRANCH  21  22
ATOM     22  C   UNL     1      -9.616  -4.766  -6.780  0.00  0.00    +0.000 C 
ATOM     23  C   UNL     1     -10.105  -6.212  -6.672  0.00  0.00    +0.009 C 
ATOM     24  C   UNL     1     -10.620  -3.836  -6.096  0.00  0.00    +0.009 C 
ENDBRANCH  21  22
ENDBRANCH  13  21
ENDBRANCH  10  13
ENDBRANCH   1  10
BRANCH   6  25
ATOM     25  C   UNL     1      -4.996  -0.874   1.347  0.00  0.00    +0.152 C 
BRANCH  25  26
ATOM     26  C   UNL     1      -4.696   0.567   1.021  0.00  0.00    +0.221 C 
ATOM     27  O   UNL     1      -4.615   0.923  -0.135  0.00  0.00    -0.275 OA
ATOM     28  N   UNL     1      -4.519   1.460   2.015  0.00  0.00    -0.298 N 
ATOM     29  C   UNL     1      -4.226   2.868   1.713  0.00  0.00    +0.126 C 
ATOM     30  C   UNL     1      -2.930   3.264   2.431  0.00  0.00    +0.126 C 
ATOM     31  N   UNL     1      -3.026   2.847   3.837  0.00  0.00    -0.299 N 
ATOM     32  C   UNL     1      -3.318   1.439   4.139  0.00  0.00    +0.126 C 
ATOM     33  C   UNL     1      -4.614   1.042   3.421  0.00  0.00    +0.126 C 
ATOM     34  C   UNL     1      -2.848   3.740   4.831  0.00  0.00    +0.213 C 
ATOM     35  O   UNL     1      -2.929   3.384   5.987  0.00  0.00    -0.276 OA
ATOM     36  C   UNL     1      -2.549   5.181   4.505  0.00  0.00    +0.109 C 
ENDBRANCH  25  26
ENDBRANCH   6  25
TORSDOF 7
