REMARK  Name = ZINC33315206
REMARK  5 active torsions:
REMARK  status: ('A' for Active; 'I' for Inactive)
REMARK    1  A    between atoms: C_1  and  C_2
REMARK    2  A    between atoms: C_2  and  C_24
REMARK    3  A    between atoms: N_16  and  C_17
REMARK    4  A    between atoms: C_17  and  C_18
REMARK    5  A    between atoms: N_26  and  C_27
REMARK                            x       y       z     vdW  Elec       q    Type
REMARK                         _______ _______ _______ _____ _____    ______ ____
ROOT
ATOM      1  C   UNL     1       4.678   0.266   0.591  0.00  0.00    +0.045 C 
ATOM      2  C   UNL     1       3.740   1.474   0.527  0.00  0.00    +0.145 C 
ATOM      3  C   UNL     1       3.932   2.296   1.780  0.00  0.00    +0.264 C 
ATOM      4  O   UNL     1       2.901   3.237   1.975  0.00  0.00    -0.485 OA
ATOM      5  C   UNL     1       2.819   4.336   1.205  0.00  0.00    +0.178 A 
ATOM      6  C   UNL     1       2.315   5.647   1.632  0.00  0.00    +0.063 A 
ATOM      7  C   UNL     1       1.819   6.149   2.836  0.00  0.00    +0.015 A 
ATOM      8  C   UNL     1       1.422   7.455   2.912  0.00  0.00    +0.001 A 
ATOM      9  C   UNL     1       1.508   8.281   1.800  0.00  0.00    +0.004 A 
ATOM     10  C   UNL     1       1.994   7.802   0.603  0.00  0.00    +0.047 A 
ATOM     11  C   UNL     1       2.404   6.477   0.502  0.00  0.00    +0.140 A 
ATOM     12  O   UNL     1       2.905   5.741  -0.506  0.00  0.00    -0.446 OA
ATOM     13  C   UNL     1       3.171   4.466  -0.106  0.00  0.00    +0.232 A 
ATOM     14  C   UNL     1       3.739   3.451  -0.978  0.00  0.00    +0.287 C 
ATOM     15  O   UNL     1       4.001   3.807  -2.113  0.00  0.00    -0.266 OA
ATOM     16  N   UNL     1       4.003   2.195  -0.691  0.00  0.00    -0.273 N 
ENDROOT
BRANCH   2  17
ATOM     17  C   UNL     1       2.318   0.975   0.492  0.00  0.00    +0.240 C 
ATOM     18  O   UNL     1       2.039  -0.094   0.991  0.00  0.00    -0.273 OA
ATOM     19  N   UNL     1       1.358   1.718  -0.093  0.00  0.00    -0.311 N 
ATOM     20  H   UNL     1       1.612   2.688  -0.545  0.00  0.00    +0.149 HD
BRANCH  19  21
ATOM     21  C   UNL     1      -0.024   1.233  -0.126  0.00  0.00    +0.073 C 
ATOM     22  C   UNL     1      -0.763   1.655   1.160  0.00  0.00    +0.022 C 
ATOM     23  C   UNL     1      -1.499   2.960   0.764  0.00  0.00    +0.002 C 
ATOM     24  C   UNL     1      -1.954   2.670  -0.687  0.00  0.00    +0.002 C 
ATOM     25  C   UNL     1      -0.781   1.879  -1.301  0.00  0.00    +0.022 C 
ENDBRANCH  19  21
ENDBRANCH   2  17
BRANCH  16  26
ATOM     26  C   UNL     1       4.654   1.426  -1.755  0.00  0.00    +0.144 C 
BRANCH  26  27
ATOM     27  C   UNL     1       3.606   0.858  -2.677  0.00  0.00    -0.030 A 
ATOM     28  C   UNL     1       2.994  -0.344  -2.371  0.00  0.00    +0.005 A 
ATOM     29  C   UNL     1       2.030  -0.863  -3.214  0.00  0.00    +0.000 A 
ATOM     30  C   UNL     1       1.684  -0.185  -4.368  0.00  0.00    +0.000 A 
ATOM     31  C   UNL     1       2.299   1.014  -4.676  0.00  0.00    +0.000 A 
ATOM     32  C   UNL     1       3.260   1.535  -3.831  0.00  0.00    +0.005 A 
ENDBRANCH  26  27
ENDBRANCH  16  26
TORSDOF 4
