REMARK  Name = ZINC16790464
REMARK  8 active torsions:
REMARK  status: ('A' for Active; 'I' for Inactive)
REMARK    1  A    between atoms: C_6  and  C_24
REMARK    2  A    between atoms: C_7  and  N_9
REMARK    3  A    between atoms: N_9  and  C_10
REMARK    4  A    between atoms: C_10  and  N_12
REMARK    5  A    between atoms: N_12  and  C_13
REMARK    6  A    between atoms: C_13  and  C_15
REMARK    7  A    between atoms: C_13  and  N_19
REMARK    8  A    between atoms: C_20  and  C_22
REMARK                            x       y       z     vdW  Elec       q    Type
REMARK                         _______ _______ _______ _____ _____    ______ ____
ROOT
ATOM      1  C   UNL     1      -2.281   7.221  -2.922  0.00  0.00    +0.136 C 
ATOM      2  S   UNL     1      -2.254   5.976  -4.097  0.00  0.00    -0.019 S 
ENDROOT
BRANCH   1   3
ATOM      3  N   UNL     1      -1.968   6.945  -1.641  0.00  0.00    -0.290 N 
ATOM      4  H   UNL     1      -1.983   7.650  -0.975  0.00  0.00    +0.154 HD
BRANCH   3  11
ATOM      5  C   UNL     1      -0.735   1.583   1.264  0.00  0.00    +0.005 C 
ATOM      6  C   UNL     1      -0.013   1.086   0.008  0.00  0.00    +0.005 C 
ATOM      7  C   UNL     1      -0.761   1.597  -1.232  0.00  0.00    +0.043 C 
ATOM      8  C   UNL     1      -1.032   3.059  -1.049  0.00  0.00    -0.004 A 
ATOM      9  C   UNL     1      -0.951   3.765   0.100  0.00  0.00    -0.018 A 
ATOM     10  C   UNL     1      -1.272   5.177  -0.019  0.00  0.00    +0.084 A 
ATOM     11  C   UNL     1      -1.622   5.652  -1.274  0.00  0.00    +0.089 A 
ATOM     12  S   UNL     1      -1.524   4.240  -2.273  0.00  0.00    -0.077 S 
ATOM     13  C   UNL     1      -0.550   3.094   1.407  0.00  0.00    +0.037 C 
BRANCH  10  14
ATOM     14  C   UNL     1      -1.227   6.047   1.118  0.00  0.00    +0.102 C 
ATOM     15  N   UNL     1      -1.191   6.737   2.020  0.00  0.00    -0.191 NA
ENDBRANCH  10  14
ENDBRANCH   3  11
ENDBRANCH   1   3
BRANCH   1  16
ATOM     16  N   UNL     1      -2.617   8.476  -3.279  0.00  0.00    -0.305 N 
ATOM     17  H   UNL     1      -2.633   9.182  -2.613  0.00  0.00    +0.150 HD
BRANCH  16  18
ATOM     18  C   UNL     1      -2.958   8.776  -4.672  0.00  0.00    +0.211 C 
BRANCH  18  19
ATOM     19  C   UNL     1      -2.254  10.064  -5.104  0.00  0.00    +0.225 C 
ATOM     20 CL   UNL     1      -0.469   9.852  -4.954  0.00  0.00    -0.080 Cl
ATOM     21 CL   UNL     1      -2.674  10.433  -6.818  0.00  0.00    -0.080 Cl
ATOM     22 CL   UNL     1      -2.788  11.424  -4.048  0.00  0.00    -0.080 Cl
ENDBRANCH  18  19
BRANCH  18  23
ATOM     23  N   UNL     1      -4.408   8.949  -4.793  0.00  0.00    -0.291 N 
ATOM     24  C   UNL     1      -5.157   7.979  -5.354  0.00  0.00    +0.245 C 
ATOM     25  O   UNL     1      -4.631   6.964  -5.758  0.00  0.00    -0.273 OA
ATOM     26  H   UNL     1      -4.829   9.761  -4.470  0.00  0.00    +0.151 HD
BRANCH  24  27
ATOM     27  C   UNL     1      -6.649   8.156  -5.479  0.00  0.00    +0.308 C 
ATOM     28  F   UNL     1      -7.203   7.026  -6.088  0.00  0.00    -0.239 F 
ENDBRANCH  24  27
ENDBRANCH  18  23
ENDBRANCH  16  18
ENDBRANCH   1  16
TORSDOF 8
