REMARK  Name = ZINC37376279
REMARK  3 active torsions:
REMARK  status: ('A' for Active; 'I' for Inactive)
REMARK    1  A    between atoms: C_6  and  N_7
REMARK    2  A    between atoms: N_8  and  S_9
REMARK    3  A    between atoms: S_9  and  C_12
REMARK                            x       y       z     vdW  Elec       q    Type
REMARK                         _______ _______ _______ _____ _____    ______ ____
ROOT
ATOM      1  C   UNL     1      -0.017   1.405   0.010  0.00  0.00    +0.028 A 
ATOM      2  C   UNL     1       1.154   2.093   0.002  0.00  0.00    +0.049 A 
ATOM      3  C   UNL     1       2.377   1.383  -0.013  0.00  0.00    +0.153 A 
ATOM      4  N   UNL     1       2.366   0.010  -0.021  0.00  0.00    -0.343 N 
ATOM      5  C   UNL     1       1.181  -0.671  -0.013  0.00  0.00    +0.107 A 
ATOM      6  C   UNL     1       0.002  -0.004   0.002  0.00  0.00    +0.041 A 
ATOM      7  N   UNL     1       3.522   2.036  -0.021  0.00  0.00    -0.111 NA
ATOM      8  H   UNL     1       3.204  -0.479  -0.031  0.00  0.00    +0.167 HD
ENDROOT
BRANCH   6   9
ATOM      9  N   UNL     1      -1.206  -0.720   0.010  0.00  0.00    -0.357 N 
ATOM     10  H   UNL     1      -2.051  -0.244   0.020  0.00  0.00    +0.142 HD
ATOM     11  H   UNL     1      -1.195  -1.690   0.004  0.00  0.00    +0.142 HD
ENDBRANCH   6   9
BRANCH   7  12
ATOM     12  S   UNL     1       4.952   1.200  -0.039  0.00  0.00    +0.103 S 
ATOM     13  O   UNL     1       5.036   0.513   1.202  0.00  0.00    -0.146 OA
ATOM     14  O   UNL     1       5.012   0.526  -1.289  0.00  0.00    -0.146 OA
BRANCH  12  15
ATOM     15  C   UNL     1       6.251   2.390  -0.046  0.00  0.00    +0.139 A 
ATOM     16  C   UNL     1       7.122   2.484   1.024  0.00  0.00    +0.058 A 
ATOM     17  C   UNL     1       8.111   3.411   0.986  0.00  0.00    +0.081 A 
ATOM     18  S   UNL     1       7.829   4.189  -0.596  0.00  0.00    -0.063 S 
ATOM     19  C   UNL     1       6.415   3.224  -1.102  0.00  0.00    +0.106 A 
ATOM     20 CL   UNL     1       5.489   3.328  -2.567  0.00  0.00    -0.074 Cl
ATOM     21 CL   UNL     1       9.335   3.753   2.169  0.00  0.00    -0.076 Cl
ENDBRANCH  12  15
ENDBRANCH   7  12
TORSDOF 3
