REMARK  Name = ZINC20079736
REMARK  10 active torsions:
REMARK  status: ('A' for Active; 'I' for Inactive)
REMARK    1  A    between atoms: C_1  and  C_2
REMARK    2  A    between atoms: C_5  and  C_42
REMARK    3  A    between atoms: C_6  and  N_8
REMARK    4  A    between atoms: N_11  and  C_14
REMARK    5  A    between atoms: C_14  and  C_16
REMARK    6  A    between atoms: C_14  and  C_30
REMARK    7  A    between atoms: C_19  and  C_29
REMARK    8  A    between atoms: C_21  and  C_28
REMARK    9  A    between atoms: N_34  and  C_35
REMARK   10  A    between atoms: C_35  and  C_36
REMARK                            x       y       z     vdW  Elec       q    Type
REMARK                         _______ _______ _______ _____ _____    ______ ____
ROOT
ATOM      1  C   UNL     1      -8.094   2.855   1.234  0.00  0.00    +0.162 C 
ENDROOT
BRANCH   1   2
ATOM      2  C   UNL     1      -8.429   1.427   0.887  0.00  0.00    +0.042 A 
ATOM      3  C   UNL     1      -9.308   0.734   1.651  0.00  0.00    +0.021 A 
ATOM      4  C   UNL     1      -9.616  -0.649   1.284  0.00  0.00    +0.002 A 
ATOM      5  C   UNL     1     -10.519  -1.412   2.031  0.00  0.00    -0.041 A 
ATOM      6  C   UNL     1     -10.780  -2.702   1.665  0.00  0.00    +0.007 A 
ATOM      7  C   UNL     1     -10.158  -3.262   0.558  0.00  0.00    -0.048 A 
ATOM      8  C   UNL     1      -9.265  -2.529  -0.193  0.00  0.00    +0.029 A 
ATOM      9  C   UNL     1      -8.983  -1.214   0.161  0.00  0.00    +0.050 A 
ATOM     10  N   UNL     1      -8.094  -0.457  -0.573  0.00  0.00    -0.322 N 
ATOM     11  H   UNL     1      -7.596  -0.892  -1.452  0.00  0.00    +0.169 HD
ATOM     12  C   UNL     1      -7.822   0.815  -0.231  0.00  0.00    +0.254 A 
ATOM     13  O   UNL     1      -7.030   1.454  -0.902  0.00  0.00    -0.268 OA
ATOM     14  C   UNL     1     -10.463  -4.687   0.173  0.00  0.00    +0.044 C 
ATOM     15  C   UNL     1     -11.200  -0.815   3.235  0.00  0.00    +0.044 C 
ENDBRANCH   1   2
BRANCH   1  19
ATOM     16  N   UNL     1      -4.346   3.530   3.064  0.00  0.00    -0.327 N 
ATOM     17  C   UNL     1      -4.713   2.145   2.736  0.00  0.00    +0.120 C 
ATOM     18  C   UNL     1      -6.230   2.051   2.555  0.00  0.00    +0.104 C 
ATOM     19  N   UNL     1      -6.652   2.971   1.490  0.00  0.00    -0.286 NA
ATOM     20  C   UNL     1      -6.285   4.356   1.818  0.00  0.00    +0.104 C 
ATOM     21  C   UNL     1      -4.768   4.450   1.998  0.00  0.00    +0.120 C 
BRANCH  16  27
ATOM     22  C   UNL     1       0.278   3.205   1.433  0.00  0.00    +0.044 C 
ATOM     23  C   UNL     1      -0.710   3.489   2.535  0.00  0.00    -0.049 A 
ATOM     24  C   UNL     1      -0.259   3.860   3.789  0.00  0.00    +0.004 A 
ATOM     25  C   UNL     1      -1.163   4.120   4.802  0.00  0.00    +0.005 A 
ATOM     26  C   UNL     1      -2.519   4.012   4.565  0.00  0.00    -0.029 A 
ATOM     27  C   UNL     1      -2.975   3.640   3.307  0.00  0.00    +0.033 A 
ATOM     28  C   UNL     1      -2.065   3.384   2.289  0.00  0.00    +0.026 A 
ATOM     29  C   UNL     1      -3.503   4.297   5.670  0.00  0.00    +0.045 C 
ENDBRANCH  16  27
ENDBRANCH   1  19
BRANCH   1  30
ATOM     30  C   UNL     1      -8.857   3.264   2.467  0.00  0.00    +0.173 A 
ATOM     31  N   UNL     1      -8.679   2.810   3.684  0.00  0.00    -0.111 NA
ATOM     32  N   UNL     1      -9.523   3.403   4.457  0.00  0.00    -0.023 NA
ATOM     33  N   UNL     1     -10.233   4.224   3.765  0.00  0.00    -0.044 NA
ATOM     34  N   UNL     1      -9.850   4.171   2.534  0.00  0.00    -0.225 N 
BRANCH  34  35
ATOM     35  C   UNL     1     -10.394   4.948   1.419  0.00  0.00    +0.179 C 
BRANCH  35  36
ATOM     36  C   UNL     1     -11.545   4.175   0.772  0.00  0.00    +0.140 C 
ATOM     37  C   UNL     1     -12.122   4.971  -0.426  0.00  0.00    +0.035 C 
ATOM     38  C   UNL     1     -12.740   3.825  -1.272  0.00  0.00    +0.031 C 
ATOM     39  C   UNL     1     -11.760   2.661  -1.012  0.00  0.00    +0.160 C 
ATOM     40  O   UNL     1     -11.064   2.945   0.207  0.00  0.00    -0.375 OA
ENDBRANCH  35  36
ENDBRANCH  34  35
ENDBRANCH   1  30
TORSDOF 6
