REMARK  Name = ZINC38650804
REMARK  12 active torsions:
REMARK  status: ('A' for Active; 'I' for Inactive)
REMARK    1  A    between atoms: C_1  and  C_2
REMARK    2  A    between atoms: C_2  and  C_3
REMARK    3  A    between atoms: C_3  and  C_4
REMARK    4  A    between atoms: C_4  and  O_5
REMARK    5  A    between atoms: O_5  and  C_6
REMARK    6  A    between atoms: C_9  and  C_12
REMARK    7  A    between atoms: C_17  and  O_26
REMARK    8  A    between atoms: C_21  and  N_25
REMARK    9  A    between atoms: C_22  and  C_23
REMARK   10  A    between atoms: O_26  and  C_27
REMARK   11  A    between atoms: C_27  and  C_29
REMARK   12  A    between atoms: C_34  and  N_35
REMARK                            x       y       z     vdW  Elec       q    Type
REMARK                         _______ _______ _______ _____ _____    ______ ____
ROOT
ATOM      1  C   UNL     1       1.901  -7.808  -3.200  0.00  0.00    +0.098 C 
ATOM      2  C   UNL     1       1.210  -8.250  -4.462  0.00  0.00    +0.008 A 
ATOM      3  C   UNL     1      -0.168  -8.378  -4.474  0.00  0.00    +0.012 A 
ATOM      4  C   UNL     1      -0.819  -8.782  -5.623  0.00  0.00    +0.047 A 
ATOM      5  C   UNL     1      -0.091  -9.061  -6.771  0.00  0.00    +0.135 A 
ATOM      6  C   UNL     1       1.288  -8.934  -6.763  0.00  0.00    +0.093 A 
ATOM      7  C   UNL     1       1.942  -8.527  -5.606  0.00  0.00    +0.138 A 
ATOM      8  O   UNL     1       3.292  -8.406  -5.614  0.00  0.00    -0.441 OA
ATOM      9  C   UNL     1       3.971  -8.399  -4.455  0.00  0.00    +0.199 C 
ATOM     10  C   UNL     1       3.369  -8.123  -3.277  0.00  0.00    +0.098 C 
ENDROOT
BRANCH   1  14
ATOM     11  C   UNL     1       1.382  -3.596  -2.700  0.00  0.00    +0.121 A 
ATOM     12  C   UNL     1       0.905  -4.474  -1.738  0.00  0.00    +0.046 A 
ATOM     13  C   UNL     1       1.075  -5.835  -1.901  0.00  0.00    +0.008 A 
ATOM     14  C   UNL     1       1.718  -6.323  -3.024  0.00  0.00    -0.034 A 
ATOM     15  C   UNL     1       2.194  -5.450  -3.985  0.00  0.00    +0.008 A 
ATOM     16  C   UNL     1       2.022  -4.088  -3.828  0.00  0.00    +0.046 A 
BRANCH  11  17
ATOM     17  O   UNL     1       1.216  -2.256  -2.542  0.00  0.00    -0.492 OA
BRANCH  17  18
ATOM     18  C   UNL     1       0.548  -1.821  -1.356  0.00  0.00    +0.229 C 
BRANCH  18  19
ATOM     19  C   UNL     1       0.456  -0.294  -1.353  0.00  0.00    +0.041 C 
BRANCH  19  21
ATOM     20  C   UNL     1      -0.351   1.699  -0.081  0.00  0.00    +0.004 C 
ATOM     21  C   UNL     1      -0.259   0.172  -0.084  0.00  0.00    -0.000 C 
ENDBRANCH  19  21
ENDBRANCH  18  19
ENDBRANCH  17  18
ENDBRANCH  11  17
ENDBRANCH   1  14
BRANCH   9  22
ATOM     22  N   UNL     1       5.315  -8.680  -4.468  0.00  0.00    -0.328 N 
ATOM     23  H   UNL     1       5.760  -8.880  -5.306  0.00  0.00    +0.145 HD
ATOM     24  H   UNL     1       5.819  -8.679  -3.639  0.00  0.00    +0.145 HD
ENDBRANCH   9  22
BRANCH  10  25
ATOM     25  C   UNL     1       4.149  -8.130  -2.077  0.00  0.00    +0.101 C 
ATOM     26  N   UNL     1       4.769  -8.136  -1.124  0.00  0.00    -0.191 NA
ENDBRANCH  10  25
BRANCH   5  27
ATOM     27  O   UNL     1      -0.730  -9.459  -7.903  0.00  0.00    -0.422 OA
BRANCH  27  28
ATOM     28  C   UNL     1      -1.542  -8.575  -8.515  0.00  0.00    +0.347 C 
ATOM     29  O   UNL     1      -1.613  -7.433  -8.108  0.00  0.00    -0.244 OA
BRANCH  28  30
ATOM     30  C   UNL     1      -2.347  -8.996  -9.680  0.00  0.00    +0.089 A 
ATOM     31  C   UNL     1      -1.725  -9.571 -10.791  0.00  0.00    +0.017 A 
ATOM     32  C   UNL     1      -2.482  -9.961 -11.876  0.00  0.00    +0.001 A 
ATOM     33  C   UNL     1      -3.855  -9.783 -11.865  0.00  0.00    +0.002 A 
ATOM     34  C   UNL     1      -4.477  -9.214 -10.769  0.00  0.00    +0.033 A 
ATOM     35  C   UNL     1      -3.732  -8.825  -9.674  0.00  0.00    +0.140 A 
BRANCH  35  36
ATOM     36  N   UNL     1      -4.400  -8.222  -8.499  0.00  0.00    +0.057 N 
ATOM     37  O   UNL     1      -5.579  -7.957  -8.543  0.00  0.00    -0.126 OA
ATOM     38  O   UNL     1      -3.767  -7.994  -7.495  0.00  0.00    -0.126 OA
ENDBRANCH  35  36
ENDBRANCH  28  30
ENDBRANCH  27  28
ENDBRANCH   5  27
TORSDOF 11
