REMARK  Name = ZINC45840403
REMARK  5 active torsions:
REMARK  status: ('A' for Active; 'I' for Inactive)
REMARK    1  A    between atoms: C_8  and  C_10
REMARK    2  A    between atoms: C_13  and  C_15
REMARK    3  A    between atoms: C_15  and  N_16
REMARK    4  A    between atoms: C_17  and  C_19
REMARK    5  A    between atoms: C_19  and  N_20
REMARK                            x       y       z     vdW  Elec       q    Type
REMARK                         _______ _______ _______ _____ _____    ______ ____
ROOT
ATOM      1  C   UNL     1       2.985  -4.014  -0.049  0.00  0.00    +0.160 A 
ATOM      2  C   UNL     1       4.254  -4.513  -0.059  0.00  0.00    +0.052 A 
ATOM      3  C   UNL     1       4.137  -5.915  -0.069  0.00  0.00    +0.047 A 
ATOM      4  C   UNL     1       2.819  -6.202  -0.064  0.00  0.00    +0.123 A 
ATOM      5  O   UNL     1       2.127  -5.053  -0.047  0.00  0.00    -0.456 OA
ENDROOT
BRANCH   1  13
ATOM      6  C   UNL     1      -0.016   1.355   0.009  0.00  0.00    +0.002 A 
ATOM      7  C   UNL     1       1.155   2.100   0.002  0.00  0.00    +0.001 A 
ATOM      8  C   UNL     1       2.373   1.447  -0.013  0.00  0.00    +0.017 A 
ATOM      9  C   UNL     1       2.403   0.074  -0.020  0.00  0.00    +0.040 A 
ATOM     10  C   UNL     1       1.227  -0.713  -0.013  0.00  0.00    +0.079 A 
ATOM     11  C   UNL     1       0.002  -0.004   0.002  0.00  0.00    +0.029 A 
ATOM     12  N   UNL     1       1.417  -2.046  -0.023  0.00  0.00    -0.236 NA
ATOM     13  C   UNL     1       2.617  -2.590  -0.037  0.00  0.00    +0.144 A 
ATOM     14  S   UNL     1       3.684  -1.156  -0.040  0.00  0.00    -0.064 S 
ENDBRANCH   1  13
BRANCH   4  15
ATOM     15  C   UNL     1       2.223  -7.587  -0.072  0.00  0.00    +0.178 C 
BRANCH  15  16
ATOM     16  N   UNL     1       2.036  -8.046   1.306  0.00  0.00    -0.310 N 
ATOM     17  C   UNL     1       1.513  -9.264   1.546  0.00  0.00    +0.197 C 
ATOM     18  O   UNL     1       1.197  -9.981   0.620  0.00  0.00    -0.278 OA
ATOM     19  H   UNL     1       2.289  -7.473   2.047  0.00  0.00    +0.149 HD
BRANCH  17  20
ATOM     20  C   UNL     1       1.321  -9.737   2.964  0.00  0.00    +0.019 C 
BRANCH  20  21
ATOM     21  N   UNL     1       0.740 -11.086   2.956  0.00  0.00    +0.385 N 
ATOM     22  C   UNL     1      -0.575 -11.031   2.289  0.00  0.00    -0.078 C 
ATOM     23  C   UNL     1      -0.888 -12.402   1.745  0.00  0.00    -0.019 C 
ATOM     24  C   UNL     1      -1.772 -13.206   2.717  0.00  0.00    -0.002 C 
ATOM     25  C   UNL     1      -1.337 -13.007   4.183  0.00  0.00    -0.002 C 
ATOM     26  C   UNL     1       0.162 -13.006   4.343  0.00  0.00    -0.019 C 
ATOM     27  C   UNL     1       0.675 -11.553   4.270  0.00  0.00    -0.078 C 
ATOM     28  H   UNL     1       1.345 -11.695   2.426  0.00  0.00    -0.081 HD
ENDBRANCH  20  21
ENDBRANCH  17  20
ENDBRANCH  15  16
ENDBRANCH   4  15
TORSDOF 5
