REMARK  Name = ZINC64742264
REMARK  6 active torsions:
REMARK  status: ('A' for Active; 'I' for Inactive)
REMARK    1  A    between atoms: C_7  and  C_10
REMARK    2  A    between atoms: N_13  and  C_16
REMARK    3  A    between atoms: C_16  and  C_17
REMARK    4  A    between atoms: N_19  and  C_20
REMARK    5  A    between atoms: C_20  and  C_21
REMARK    6  A    between atoms: C_21  and  C_22
REMARK                            x       y       z     vdW  Elec       q    Type
REMARK                         _______ _______ _______ _____ _____    ______ ____
ROOT
ATOM      1  C   UNL     1       0.691  -3.186  -0.024  0.00  0.00    +0.014 C 
ATOM      2  C   UNL     1       0.953  -4.049   1.213  0.00  0.00    -0.011 C 
ATOM      3  C   UNL     1       0.050  -5.284   1.167  0.00  0.00    -0.078 C 
ATOM      4  N   UNL     1       0.338  -6.061  -0.044  0.00  0.00    +0.385 N 
ATOM      5  C   UNL     1       0.020  -5.263  -1.234  0.00  0.00    -0.078 C 
ATOM      6  C   UNL     1       0.922  -4.028  -1.281  0.00  0.00    -0.011 C 
ATOM      7  H   UNL     1       1.316  -6.310  -0.058  0.00  0.00    -0.081 HD
ENDROOT
BRANCH   1  14
ATOM      8  C   UNL     1      -0.016   1.348   0.009  0.00  0.00    +0.001 A 
ATOM      9  C   UNL     1       1.166   2.101   0.002  0.00  0.00    +0.002 A 
ATOM     10  C   UNL     1       2.391   1.535  -0.013  0.00  0.00    +0.026 A 
ATOM     11  C   UNL     1       2.529   0.120  -0.022  0.00  0.00    +0.043 A 
ATOM     12  N   UNL     1       3.587  -0.654  -0.037  0.00  0.00    -0.380 N 
ATOM     13  C   UNL     1       3.143  -2.053  -0.041  0.00  0.00    +0.145 C 
ATOM     14  C   UNL     1       1.631  -2.008  -0.025  0.00  0.00    -0.039 C 
ATOM     15  C   UNL     1       1.295  -0.698  -0.014  0.00  0.00    -0.001 A 
ATOM     16  C   UNL     1       0.002  -0.004   0.002  0.00  0.00    +0.010 A 
ATOM     17  H   UNL     1       4.509  -0.353  -0.045  0.00  0.00    +0.160 HD
ENDBRANCH   1  14
BRANCH   4  18
ATOM     18  C   UNL     1      -0.475  -7.284  -0.044  0.00  0.00    +0.019 C 
BRANCH  18  19
ATOM     19  C   UNL     1      -0.093  -8.142  -1.223  0.00  0.00    +0.196 C 
ATOM     20  O   UNL     1       0.773  -7.770  -1.987  0.00  0.00    -0.278 OA
ATOM     21  N   UNL     1      -0.712  -9.321  -1.427  0.00  0.00    -0.317 N 
ATOM     22  H   UNL     1      -1.404  -9.618  -0.816  0.00  0.00    +0.149 HD
BRANCH  21  23
ATOM     23  C   UNL     1      -0.340 -10.155  -2.573  0.00  0.00    +0.108 C 
BRANCH  23  24
ATOM     24  C   UNL     1      -1.187 -11.429  -2.574  0.00  0.00    +0.049 C 
BRANCH  24  25
ATOM     25  C   UNL     1      -0.804 -12.286  -3.752  0.00  0.00    -0.072 C 
ATOM     26  C   UNL     1       0.065 -13.226  -3.562  0.00  0.00    -0.028 C 
ATOM     27  C   UNL     1       0.552 -14.152  -4.638  0.00  0.00    +0.027 C 
ATOM     28  C   UNL     1      -0.401 -14.117  -5.834  0.00  0.00    +0.004 C 
ATOM     29  C   UNL     1      -0.660 -12.651  -6.206  0.00  0.00    +0.005 C 
ATOM     30  C   UNL     1      -1.459 -12.001  -5.072  0.00  0.00    +0.030 C 
ENDBRANCH  24  25
ENDBRANCH  23  24
ENDBRANCH  21  23
ENDBRANCH  18  19
ENDBRANCH   4  18
TORSDOF 6
