REMARK  Name = ZINC03907769
REMARK  6 active torsions:
REMARK  status: ('A' for Active; 'I' for Inactive)
REMARK    1  A    between atoms: C_1  and  C_2
REMARK    2  A    between atoms: C_7  and  C_9
REMARK    3  A    between atoms: C_7  and  C_10
REMARK    4  A    between atoms: C_13  and  C_15
REMARK    5  A    between atoms: C_17  and  C_20
REMARK    6  A    between atoms: C_23  and  O_26
REMARK                            x       y       z     vdW  Elec       q    Type
REMARK                         _______ _______ _______ _____ _____    ______ ____
ROOT
ATOM      1  C   UNL     1      -0.019   1.532   0.011  0.00  0.00    +0.013 C 
ATOM      2  C   UNL     1       0.002  -0.004   0.002  0.00  0.00    -0.014 C 
ATOM      3  C   UNL     1      -1.426  -0.614  -0.023  0.00  0.00    +0.030 C 
ATOM      4  C   UNL     1      -1.088  -2.044  -0.513  0.00  0.00    +0.077 C 
ATOM      5  C   UNL     1      -0.480  -2.795   0.669  0.00  0.00    +0.029 C 
ATOM      6  C   UNL     1       0.727  -2.106   1.280  0.00  0.00    -0.033 C 
ATOM      7  C   UNL     1       0.726  -0.590   1.213  0.00  0.00    +0.014 C 
ATOM      8  C   UNL     1       0.765  -2.497   2.779  0.00  0.00    +0.011 C 
ATOM      9  C   UNL     1       2.014  -2.662   0.655  0.00  0.00    +0.011 C 
ATOM     10  N   UNL     1      -0.054  -1.854  -1.550  0.00  0.00    -0.293 N 
ATOM     11  C   UNL     1       0.625  -0.576  -1.291  0.00  0.00    +0.115 C 
ATOM     12  C   UNL     1       0.214  -2.699  -2.566  0.00  0.00    +0.269 C 
ATOM     13  O   UNL     1      -0.423  -3.727  -2.687  0.00  0.00    -0.268 OA
ENDROOT
BRANCH  12  14
ATOM     14  C   UNL     1       1.288  -2.374  -3.537  0.00  0.00    +0.168 A 
ATOM     15  C   UNL     1       1.670  -3.160  -4.645  0.00  0.00    +0.086 A 
ATOM     16  C   UNL     1       2.686  -2.519  -5.282  0.00  0.00    +0.168 A 
ATOM     17  O   UNL     1       2.940  -1.379  -4.614  0.00  0.00    -0.354 OA
ATOM     18  N   UNL     1       2.045  -1.303  -3.519  0.00  0.00    -0.073 NA
BRANCH  16  19
ATOM     19  C   UNL     1       3.387  -2.991  -6.494  0.00  0.00    +0.020 A 
ATOM     20  C   UNL     1       3.017  -4.197  -7.093  0.00  0.00    +0.015 A 
ATOM     21  C   UNL     1       3.673  -4.633  -8.223  0.00  0.00    +0.046 A 
ATOM     22  C   UNL     1       4.702  -3.876  -8.767  0.00  0.00    +0.117 A 
ATOM     23  C   UNL     1       5.074  -2.676  -8.174  0.00  0.00    +0.046 A 
ATOM     24  C   UNL     1       4.418  -2.229  -7.048  0.00  0.00    +0.015 A 
BRANCH  22  25
ATOM     25  O   UNL     1       5.347  -4.310  -9.881  0.00  0.00    -0.507 OA
ATOM     26  H   UNL     1       4.951  -4.005 -10.709  0.00  0.00    +0.292 HD
ENDBRANCH  22  25
ENDBRANCH  16  19
ENDBRANCH  12  14
TORSDOF 3
