REMARK  Name = ZINC20332025
REMARK  8 active torsions:
REMARK  status: ('A' for Active; 'I' for Inactive)
REMARK    1  A    between atoms: C_1  and  C_2
REMARK    2  A    between atoms: C_8  and  C_12
REMARK    3  A    between atoms: C_12  and  O_13
REMARK    4  A    between atoms: O_13  and  C_14
REMARK    5  A    between atoms: C_17  and  C_22
REMARK    6  A    between atoms: C_19  and  O_20
REMARK    7  A    between atoms: O_20  and  C_21
REMARK    8  A    between atoms: C_32  and  C_34
REMARK                            x       y       z     vdW  Elec       q    Type
REMARK                         _______ _______ _______ _____ _____    ______ ____
ROOT
ATOM      1  C   UNL     1       1.651  -7.928  -1.614  0.00  0.00    +0.162 A 
ATOM      2  C   UNL     1       1.652  -8.789  -0.523  0.00  0.00    +0.050 A 
ATOM      3  C   UNL     1       2.026 -10.104  -0.680  0.00  0.00    +0.012 A 
ATOM      4  C   UNL     1       2.408 -10.578  -1.943  0.00  0.00    -0.021 A 
ATOM      5  C   UNL     1       2.406  -9.708  -3.043  0.00  0.00    +0.057 A 
ATOM      6  C   UNL     1       2.024  -8.393  -2.876  0.00  0.00    +0.162 A 
ENDROOT
BRANCH   4   7
ATOM      7  C   UNL     1       2.807 -11.977  -2.114  0.00  0.00    +0.024 C 
ATOM      8  C   UNL     1       2.223 -12.958  -1.345  0.00  0.00    +0.081 C 
ATOM      9  C   UNL     1       1.057 -12.673  -0.461  0.00  0.00    +0.152 C 
ATOM     10  N   UNL     1       0.139 -11.789  -0.748  0.00  0.00    -0.283 NA
ATOM     11  N   UNL     1       1.042 -13.453   0.715  0.00  0.00    -0.152 N 
ATOM     12  C   UNL     1       1.730 -14.647   0.696  0.00  0.00    +0.181 C 
ATOM     13  N   UNL     1       2.489 -15.116  -0.263  0.00  0.00    -0.152 NA
ATOM     14  C   UNL     1       2.716 -14.358  -1.356  0.00  0.00    +0.273 C 
ATOM     15  O   UNL     1       3.312 -14.806  -2.322  0.00  0.00    -0.268 OA
ATOM     16  S   UNL     1       1.333 -15.330   2.284  0.00  0.00    -0.038 S 
ATOM     17  C   UNL     1       0.373 -13.952   2.898  0.00  0.00    +0.097 C 
ATOM     18  N   UNL     1       0.389 -13.132   1.886  0.00  0.00    -0.170 NA
ATOM     19  C   UNL     1      -0.285 -13.783   4.243  0.00  0.00    +0.075 C 
ATOM     20  H   UNL     1      -0.601 -11.643  -0.137  0.00  0.00    +0.188 HD
ENDBRANCH   4   7
BRANCH   6  21
ATOM     21  O   UNL     1       2.016  -7.547  -3.941  0.00  0.00    -0.491 OA
ATOM     22  C   UNL     1       2.409  -8.089  -5.203  0.00  0.00    +0.277 C 
ENDBRANCH   6  21
BRANCH   1  23
ATOM     23  O   UNL     1       1.281  -6.632  -1.453  0.00  0.00    -0.482 OA
BRANCH  23  24
ATOM     24  C   UNL     1       0.911  -6.222  -0.135  0.00  0.00    +0.284 C 
BRANCH  24  32
ATOM     25  C   UNL     1       0.712   1.586  -0.650  0.00  0.00    +0.075 C 
ATOM     26  C   UNL     1       0.698   0.083  -0.538  0.00  0.00    +0.099 A 
ATOM     27  N   UNL     1      -0.291  -0.704  -0.243  0.00  0.00    -0.159 NA
ATOM     28  N   UNL     1      -0.132  -2.085  -0.182  0.00  0.00    -0.171 N 
ATOM     29  C   UNL     1      -1.088  -3.015   0.114  0.00  0.00    +0.275 A 
ATOM     30  O   UNL     1      -2.229  -2.660   0.363  0.00  0.00    -0.266 OA
ATOM     31  C   UNL     1      -0.758  -4.370   0.133  0.00  0.00    +0.099 A 
ATOM     32  C   UNL     1       0.533  -4.763  -0.149  0.00  0.00    +0.087 A 
ATOM     33  N   UNL     1       1.440  -3.832  -0.434  0.00  0.00    -0.223 NA
ATOM     34  C   UNL     1       1.122  -2.562  -0.449  0.00  0.00    +0.199 A 
ATOM     35  S   UNL     1       2.037  -1.073  -0.784  0.00  0.00    -0.033 S 
ENDBRANCH  24  32
ENDBRANCH  23  24
ENDBRANCH   1  23
TORSDOF 5
