REMARK  Name = ZINC07160548
REMARK  5 active torsions:
REMARK  status: ('A' for Active; 'I' for Inactive)
REMARK    1  A    between atoms: C_1  and  C_2
REMARK    2  A    between atoms: C_12  and  C_14
REMARK    3  A    between atoms: C_14  and  S_15
REMARK    4  A    between atoms: S_15  and  C_16
REMARK    5  A    between atoms: C_24  and  C_26
REMARK                            x       y       z     vdW  Elec       q    Type
REMARK                         _______ _______ _______ _____ _____    ______ ____
ROOT
ATOM      1  S   UNL     1       0.418  -0.339  -5.168  0.00  0.00    -0.096 S 
ENDROOT
BRANCH   1   2
ATOM      2  C   UNL     1       1.541  -1.109  -6.287  0.00  0.00    +0.109 A 
ATOM      3  C   UNL     1       1.358  -1.007  -7.688  0.00  0.00    +0.032 A 
ATOM      4  C   UNL     1       0.289  -0.300  -8.249  0.00  0.00    +0.012 A 
ATOM      5  C   UNL     1       0.164  -0.237  -9.606  0.00  0.00    +0.001 A 
ATOM      6  C   UNL     1       1.084  -0.866 -10.439  0.00  0.00    +0.002 A 
ATOM      7  C   UNL     1       2.143  -1.554  -9.923  0.00  0.00    +0.028 A 
ATOM      8  C   UNL     1       2.298  -1.644  -8.533  0.00  0.00    +0.076 A 
ATOM      9  N   UNL     1       3.312  -2.322  -7.974  0.00  0.00    -0.224 NA
ATOM     10  C   UNL     1       3.429  -2.388  -6.669  0.00  0.00    +0.236 A 
ATOM     11  N   UNL     1       2.579  -1.805  -5.839  0.00  0.00    -0.217 NA
BRANCH  10  12
ATOM     12  C   UNL     1       4.585  -3.161  -6.088  0.00  0.00    +0.452 C 
ATOM     13  F   UNL     1       4.351  -3.400  -4.730  0.00  0.00    -0.163 F 
ATOM     14  F   UNL     1       4.715  -4.381  -6.761  0.00  0.00    -0.163 F 
ATOM     15  F   UNL     1       5.763  -2.420  -6.235  0.00  0.00    -0.163 F 
ENDBRANCH  10  12
ENDBRANCH   1   2
BRANCH   1  16
ATOM     16  C   UNL     1       1.162  -0.825  -3.591  0.00  0.00    +0.172 C 
BRANCH  16  27
ATOM     17  C   UNL     1      -0.019   1.526   0.010  0.00  0.00    +0.029 C 
ATOM     18  C   UNL     1       0.002  -0.004   0.002  0.00  0.00    +0.083 C 
ATOM     19  C   UNL     1       0.801  -0.533   1.204  0.00  0.00    +0.059 C 
ATOM     20  C   UNL     1       1.943  -1.310   0.590  0.00  0.00    -0.024 A 
ATOM     21  C   UNL     1       2.983  -2.008   1.175  0.00  0.00    +0.005 A 
ATOM     22  C   UNL     1       3.920  -2.649   0.386  0.00  0.00    +0.000 A 
ATOM     23  C   UNL     1       3.815  -2.590  -0.992  0.00  0.00    +0.002 A 
ATOM     24  C   UNL     1       2.780  -1.895  -1.580  0.00  0.00    +0.024 A 
ATOM     25  C   UNL     1       1.829  -1.246  -0.790  0.00  0.00    +0.040 A 
ATOM     26  N   UNL     1       0.713  -0.496  -1.181  0.00  0.00    -0.267 N 
ATOM     27  C   UNL     1       0.345  -0.262  -2.456  0.00  0.00    +0.230 C 
ATOM     28  O   UNL     1      -0.642   0.402  -2.691  0.00  0.00    -0.274 OA
ENDBRANCH  16  27
ENDBRANCH   1  16
TORSDOF 4
