REMARK  Name = ZINC30675594
REMARK  12 active torsions:
REMARK  status: ('A' for Active; 'I' for Inactive)
REMARK    1  A    between atoms: C_1  and  C_2
REMARK    2  A    between atoms: C_2  and  N_3
REMARK    3  A    between atoms: N_3  and  C_4
REMARK    4  A    between atoms: N_3  and  C_29
REMARK    5  A    between atoms: C_7  and  N_10
REMARK    6  A    between atoms: C_11  and  C_13
REMARK    7  A    between atoms: C_13  and  C_14
REMARK    8  A    between atoms: C_14  and  C_15
REMARK    9  A    between atoms: C_15  and  C_16
REMARK   10  A    between atoms: C_16  and  C_17
REMARK   11  A    between atoms: C_29  and  C_30
REMARK   12  A    between atoms: C_29  and  C_31
REMARK                            x       y       z     vdW  Elec       q    Type
REMARK                         _______ _______ _______ _____ _____    ______ ____
ROOT
ATOM      1  N   UNL     1      -0.239  -5.873   1.309  0.00  0.00    -0.285 N 
ATOM      2  C   UNL     1      -0.603  -6.405   2.493  0.00  0.00    +0.217 C 
ATOM      3  O   UNL     1      -0.849  -5.679   3.433  0.00  0.00    -0.275 OA
ATOM      4  H   UNL     1      -0.114  -6.448   0.537  0.00  0.00    +0.155 HD
ENDROOT
BRANCH   1   8
ATOM      5  C   UNL     1       0.347  -1.763   0.961  0.00  0.00    +0.014 A 
ATOM      6  C   UNL     1       0.654  -2.406   2.146  0.00  0.00    +0.023 A 
ATOM      7  C   UNL     1       0.461  -3.769   2.264  0.00  0.00    +0.025 A 
ATOM      8  C   UNL     1      -0.043  -4.493   1.192  0.00  0.00    +0.033 A 
ATOM      9  C   UNL     1      -0.351  -3.844   0.003  0.00  0.00    +0.025 A 
ATOM     10  C   UNL     1      -0.160  -2.481  -0.107  0.00  0.00    +0.023 A 
BRANCH   5  11
ATOM     11  N   UNL     1       0.544  -0.384   0.844  0.00  0.00    -0.392 NA
ATOM     12  H   UNL     1       0.266  -0.082  -0.077  0.00  0.00    +0.127 HD
BRANCH  11  13
ATOM     13  C   UNL     1      -0.265   0.313   1.853  0.00  0.00    +0.049 C 
ATOM     14  C   UNL     1      -0.121   1.825   1.667  0.00  0.00    +0.026 C 
ATOM     15  C   UNL     1      -1.734  -0.083   1.692  0.00  0.00    +0.026 C 
ENDBRANCH  11  13
BRANCH  11  17
ATOM     16  C   UNL     1       2.793  -0.685  -0.076  0.00  0.00    +0.022 C 
ATOM     17  C   UNL     1       1.964  -0.072   1.054  0.00  0.00    +0.082 C 
ENDBRANCH  11  17
ENDBRANCH   5  11
ENDBRANCH   1   8
BRANCH   2  18
ATOM     18  C   UNL     1      -0.703  -7.900   2.649  0.00  0.00    +0.096 C 
BRANCH  18  19
ATOM     19  C   UNL     1      -1.130  -8.236   4.079  0.00  0.00    +0.009 C 
BRANCH  19  20
ATOM     20  C   UNL     1      -1.232  -9.755   4.237  0.00  0.00    +0.002 C 
BRANCH  20  21
ATOM     21  C   UNL     1      -1.659 -10.091   5.667  0.00  0.00    +0.016 C 
BRANCH  21  22
ATOM     22  C   UNL     1      -1.761 -11.610   5.825  0.00  0.00    +0.069 C 
ATOM     23  C   UNL     1      -2.149 -11.992   7.270  0.00  0.00    +0.108 C 
ATOM     24  C   UNL     1      -3.149 -13.148   7.353  0.00  0.00    +0.105 C 
ATOM     25  C   UNL     1      -3.579 -13.697   5.975  0.00  0.00    +0.093 C 
ATOM     26  S   UNL     1      -3.191 -12.281   4.872  0.00  0.00    -0.154 S 
ATOM     27  N   UNL     1      -4.324 -12.558   8.013  0.00  0.00    -0.294 N 
ATOM     28  C   UNL     1      -4.073 -11.269   8.281  0.00  0.00    +0.300 C 
ATOM     29  O   UNL     1      -4.875 -10.537   8.828  0.00  0.00    -0.253 OA
ATOM     30  N   UNL     1      -2.866 -10.865   7.889  0.00  0.00    -0.294 N 
ATOM     31  H   UNL     1      -5.148 -13.026   8.221  0.00  0.00    +0.151 HD
ATOM     32  H   UNL     1      -2.517  -9.967   7.998  0.00  0.00    +0.151 HD
ENDBRANCH  21  22
ENDBRANCH  20  21
ENDBRANCH  19  20
ENDBRANCH  18  19
ENDBRANCH   2  18
TORSDOF 9
