REMARK  Name = ZINC23055162
REMARK  8 active torsions:
REMARK  status: ('A' for Active; 'I' for Inactive)
REMARK    1  A    between atoms: C_1  and  C_2
REMARK    2  A    between atoms: C_2  and  C_4
REMARK    3  A    between atoms: C_2  and  O_23
REMARK    4  A    between atoms: C_4  and  O_6
REMARK    5  A    between atoms: O_6  and  C_7
REMARK    6  A    between atoms: C_7  and  C_8
REMARK    7  A    between atoms: N_10  and  C_11
REMARK    8  A    between atoms: O_23  and  C_24
REMARK                            x       y       z     vdW  Elec       q    Type
REMARK                         _______ _______ _______ _____ _____    ______ ____
ROOT
ATOM      1  C   UNL     1      -0.122   1.548  -0.254  0.00  0.00    +0.255 C 
ATOM      2  O   UNL     1       0.048   0.347  -0.254  0.00  0.00    -0.272 OA
ATOM      3  N   UNL     1       0.939   2.378  -0.303  0.00  0.00    -0.283 N 
ATOM      4  H   UNL     1       0.783   3.465  -0.372  0.00  0.00    +0.155 HD
ENDROOT
BRANCH   3   5
ATOM      5  C   UNL     1       2.239   1.857  -0.265  0.00  0.00    +0.036 A 
ATOM      6  C   UNL     1       3.248   2.558   0.385  0.00  0.00    +0.025 A 
ATOM      7  C   UNL     1       4.530   2.048   0.430  0.00  0.00    +0.029 A 
ATOM      8  C   UNL     1       4.815   0.837  -0.184  0.00  0.00    +0.067 A 
ATOM      9  C   UNL     1       3.804   0.134  -0.843  0.00  0.00    +0.069 A 
ATOM     10  C   UNL     1       2.517   0.647  -0.882  0.00  0.00    +0.051 A 
ATOM     11  N   UNL     1       4.386  -1.025  -1.352  0.00  0.00    -0.306 N 
ATOM     12  H   UNL     1       3.775  -1.744  -1.917  0.00  0.00    +0.170 HD
ATOM     13  C   UNL     1       5.690  -1.028  -1.018  0.00  0.00    +0.325 A 
ATOM     14  O   UNL     1       6.486  -1.901  -1.309  0.00  0.00    -0.247 OA
ATOM     15  N   UNL     1       5.980   0.082  -0.314  0.00  0.00    -0.306 N 
ATOM     16  H   UNL     1       6.920   0.441   0.131  0.00  0.00    +0.170 HD
ENDBRANCH   3   5
BRANCH   1  17
ATOM     17  C   UNL     1      -1.518   2.111  -0.205  0.00  0.00    +0.328 C 
BRANCH  17  18
ATOM     18  O   UNL     1      -2.478   1.023  -0.163  0.00  0.00    -0.453 OA
BRANCH  18  19
ATOM     19  C   UNL     1      -3.778   1.357  -0.117  0.00  0.00    +0.348 C 
ATOM     20  O   UNL     1      -4.102   2.521  -0.111  0.00  0.00    -0.247 OA
BRANCH  19  22
ATOM     21  C   UNL     1      -4.705  -0.503   1.235  0.00  0.00    +0.064 C 
ATOM     22  C   UNL     1      -4.832   0.281  -0.072  0.00  0.00    +0.278 C 
BRANCH  22  23
ATOM     23  O   UNL     1      -6.127   0.880  -0.145  0.00  0.00    -0.478 OA
BRANCH  23  24
ATOM     24  C   UNL     1      -7.140   0.105  -0.614  0.00  0.00    +0.122 A 
ATOM     25  C   UNL     1      -6.875  -1.171  -1.088  0.00  0.00    +0.047 A 
ATOM     26  C   UNL     1      -7.907  -1.960  -1.560  0.00  0.00    +0.023 A 
ATOM     27  C   UNL     1      -9.202  -1.473  -1.570  0.00  0.00    +0.041 A 
ATOM     28  C   UNL     1      -9.467  -0.198  -1.102  0.00  0.00    +0.023 A 
ATOM     29  C   UNL     1      -8.439   0.591  -0.624  0.00  0.00    +0.047 A 
ATOM     30 CL   UNL     1     -10.495  -2.464  -2.170  0.00  0.00    -0.084 Cl
ENDBRANCH  23  24
ENDBRANCH  22  23
ENDBRANCH  19  22
ENDBRANCH  18  19
ENDBRANCH  17  18
ENDBRANCH   1  17
TORSDOF 7
