REMARK  Name = ZINC19865693
REMARK  7 active torsions:
REMARK  status: ('A' for Active; 'I' for Inactive)
REMARK    1  A    between atoms: C_1  and  N_2
REMARK    2  A    between atoms: N_2  and  C_3
REMARK    3  A    between atoms: C_3  and  C_4
REMARK    4  A    between atoms: N_6  and  C_9
REMARK    5  A    between atoms: N_12  and  C_15
REMARK    6  A    between atoms: C_22  and  O_26
REMARK    7  A    between atoms: O_26  and  C_27
REMARK                            x       y       z     vdW  Elec       q    Type
REMARK                         _______ _______ _______ _____ _____    ______ ____
ROOT
ATOM      1  C   UNL     1      -4.431   0.825   4.793  0.00  0.00    +0.105 C 
ATOM      2  C   UNL     1      -4.989   1.687   3.657  0.00  0.00    +0.008 C 
ATOM      3  C   UNL     1      -4.320   1.284   2.341  0.00  0.00    -0.076 C 
ATOM      4  N   UNL     1      -2.867   1.470   2.452  0.00  0.00    +0.382 N 
ATOM      5  C   UNL     1      -2.302   0.617   3.505  0.00  0.00    -0.076 C 
ATOM      6  C   UNL     1      -2.911   0.999   4.856  0.00  0.00    +0.008 C 
ATOM      7  H   UNL     1      -2.684   2.517   2.735  0.00  0.00    -0.081 HD
ENDROOT
BRANCH   4   8
ATOM      8  C   UNL     1      -2.205   1.225   1.164  0.00  0.00    -0.064 C 
ATOM      9  C   UNL     1      -2.671   2.263   0.137  0.00  0.00    -0.010 C 
ATOM     10  C   UNL     1      -1.797   2.137  -1.109  0.00  0.00    +0.034 C 
ATOM     11  C   UNL     1      -1.743   0.706  -1.575  0.00  0.00    -0.044 A 
ATOM     12  C   UNL     1      -1.318   0.466  -2.876  0.00  0.00    +0.007 A 
ATOM     13  C   UNL     1      -1.240  -0.821  -3.364  0.00  0.00    +0.046 A 
ATOM     14  C   UNL     1      -1.590  -1.887  -2.549  0.00  0.00    +0.120 A 
ATOM     15  C   UNL     1      -2.016  -1.649  -1.253  0.00  0.00    +0.049 A 
ATOM     16  C   UNL     1      -2.095  -0.351  -0.766  0.00  0.00    -0.042 A 
ATOM     17  C   UNL     1      -2.579  -0.163   0.648  0.00  0.00    +0.020 C 
BRANCH  14  18
ATOM     18  O   UNL     1      -1.515  -3.160  -3.019  0.00  0.00    -0.495 OA
ATOM     19  C   UNL     1      -1.067  -3.329  -4.365  0.00  0.00    +0.277 C 
ENDBRANCH  14  18
ENDBRANCH   4   8
BRANCH   1  22
ATOM     20  C   UNL     1      -5.418   2.295   7.915  0.00  0.00    +0.066 A 
ATOM     21  C   UNL     1      -4.584   2.255   6.850  0.00  0.00    +0.132 A 
ATOM     22  N   UNL     1      -5.025   1.245   6.064  0.00  0.00    -0.249 N 
ATOM     23  N   UNL     1      -6.059   0.721   6.623  0.00  0.00    -0.065 NA
ATOM     24  N   UNL     1      -6.316   1.321   7.731  0.00  0.00    -0.136 NA
BRANCH  20  25
ATOM     25  C   UNL     1      -5.348   3.249   9.079  0.00  0.00    -0.023 C 
BRANCH  25  27
ATOM     26  C   UNL     1      -6.199   5.342   9.949  0.00  0.00    -0.100 C 
ATOM     27  N   UNL     1      -6.242   4.389   8.832  0.00  0.00    +0.381 N 
ATOM     28  H   UNL     1      -7.268   4.013   8.710  0.00  0.00    -0.086 HD
ATOM     29  H   UNL     1      -5.923   4.893   7.908  0.00  0.00    -0.086 HD
ENDBRANCH  25  27
ENDBRANCH  20  25
ENDBRANCH   1  22
TORSDOF 5
