REMARK  Name = ZINC40826270
REMARK  6 active torsions:
REMARK  status: ('A' for Active; 'I' for Inactive)
REMARK    1  A    between atoms: C_1  and  C_2
REMARK    2  A    between atoms: C_6  and  C_7
REMARK    3  A    between atoms: N_9  and  N_10
REMARK    4  A    between atoms: N_15  and  N_16
REMARK    5  A    between atoms: N_16  and  S_17
REMARK    6  A    between atoms: S_17  and  C_20
REMARK                            x       y       z     vdW  Elec       q    Type
REMARK                         _______ _______ _______ _____ _____    ______ ____
ROOT
ATOM      1  C   UNL     1      -0.018   1.503   0.010  0.00  0.00    +0.048 C 
ATOM      2  C   UNL     1       0.002  -0.004   0.002  0.00  0.00    +0.009 A 
ATOM      3  C   UNL     1       0.009  -0.838  -1.122  0.00  0.00    +0.042 A 
ATOM      4  C   UNL     1       0.027  -2.136  -0.673  0.00  0.00    +0.115 A 
ATOM      5  O   UNL     1       0.035  -2.112   0.658  0.00  0.00    -0.454 OA
ATOM      6  C   UNL     1       0.024  -0.830   1.091  0.00  0.00    +0.194 A 
ATOM      7  C   UNL     1       0.033  -3.325  -1.601  0.00  0.00    +0.075 C 
ATOM      8  C   UNL     1      -0.492  -2.901  -2.975  0.00  0.00    +0.014 C 
ATOM      9  C   UNL     1       0.279  -1.684  -3.496  0.00  0.00    +0.058 C 
ATOM     10  C   UNL     1       0.000  -0.511  -2.567  0.00  0.00    +0.071 C 
ATOM     11  N   UNL     1      -0.227   0.687  -3.008  0.00  0.00    -0.170 NA
ENDROOT
BRANCH   6  12
ATOM     12  C   UNL     1       0.031  -0.400   2.494  0.00  0.00    +0.293 C 
ATOM     13  O   UNL     1       0.017   0.786   2.766  0.00  0.00    -0.266 OA
ATOM     14  N   UNL     1       0.054  -1.318   3.480  0.00  0.00    -0.247 N 
ATOM     15  H   UNL     1       0.065  -2.263   3.263  0.00  0.00    +0.169 HD
BRANCH  14  16
ATOM     16  N   UNL     1       0.060  -0.917   4.786  0.00  0.00    -0.254 NA
ATOM     17  H   UNL     1      -0.728  -0.319   4.985  0.00  0.00    +0.140 HD
ATOM     18  H   UNL     1       0.077  -1.711   5.408  0.00  0.00    +0.140 HD
ENDBRANCH  14  16
ENDBRANCH   6  12
BRANCH  11  19
ATOM     19  N   UNL     1      -0.222   0.939  -4.386  0.00  0.00    -0.136 N 
ATOM     20  H   UNL     1      -0.049   0.217  -5.010  0.00  0.00    +0.197 HD
BRANCH  19  21
ATOM     21  S   UNL     1      -0.512   2.469  -4.949  0.00  0.00    +0.086 S 
ATOM     22  O   UNL     1      -0.299   2.432  -6.353  0.00  0.00    -0.149 OA
ATOM     23  O   UNL     1      -1.744   2.886  -4.376  0.00  0.00    -0.149 OA
BRANCH  21  24
ATOM     24  C   UNL     1       0.735   3.517  -4.277  0.00  0.00    +0.110 A 
ATOM     25  C   UNL     1       0.531   4.141  -3.060  0.00  0.00    +0.031 A 
ATOM     26  C   UNL     1       1.509   4.962  -2.532  0.00  0.00    +0.040 A 
ATOM     27  C   UNL     1       2.693   5.160  -3.222  0.00  0.00    +0.124 A 
ATOM     28  C   UNL     1       2.896   4.535  -4.441  0.00  0.00    +0.040 A 
ATOM     29  C   UNL     1       1.919   3.709  -4.964  0.00  0.00    +0.031 A 
ATOM     30  F   UNL     1       3.650   5.963  -2.707  0.00  0.00    -0.205 F 
ENDBRANCH  21  24
ENDBRANCH  19  21
ENDBRANCH  11  19
TORSDOF 5
