REMARK  Name = ZINC66088180
REMARK  6 active torsions:
REMARK  status: ('A' for Active; 'I' for Inactive)
REMARK    1  A    between atoms: C_1  and  C_2
REMARK    2  A    between atoms: C_2  and  O_25
REMARK    3  A    between atoms: C_4  and  C_19
REMARK    4  A    between atoms: C_6  and  C_15
REMARK    5  A    between atoms: C_15  and  O_17
REMARK    6  A    between atoms: O_17  and  C_18
REMARK                            x       y       z     vdW  Elec       q    Type
REMARK                         _______ _______ _______ _____ _____    ______ ____
ROOT
ATOM      1  C   UNL     1      -1.375   0.425   3.914  0.00  0.00    +0.041 C 
ATOM      2  C   UNL     1      -0.141   0.297   3.018  0.00  0.00    +0.067 C 
ATOM      3  C   UNL     1      -0.035  -1.137   2.497  0.00  0.00    +0.043 C 
ATOM      4  C   UNL     1      -1.292  -1.486   1.697  0.00  0.00    +0.039 C 
ATOM      5  C   UNL     1      -1.422  -0.528   0.510  0.00  0.00    +0.145 C 
ATOM      6  C   UNL     1      -1.508   0.907   1.020  0.00  0.00    +0.116 C 
ATOM      7  C   UNL     1      -0.268   1.261   1.835  0.00  0.00    +0.078 C 
ATOM      8  N   UNL     1      -1.667   1.840  -0.101  0.00  0.00    -0.306 N 
ATOM      9  C   UNL     1      -2.846   2.466   0.081  0.00  0.00    +0.146 C 
ATOM     10  S   UNL     1      -3.477   3.655  -0.976  0.00  0.00    -0.018 S 
ATOM     11  N   UNL     1      -3.464   2.042   1.192  0.00  0.00    -0.260 N 
ATOM     12  N   UNL     1      -2.723   1.089   1.833  0.00  0.00    -0.217 NA
ATOM     13  H   UNL     1      -1.045   1.980  -0.832  0.00  0.00    +0.150 HD
ATOM     14  H   UNL     1      -4.324   2.368   1.501  0.00  0.00    +0.168 HD
ATOM     15  H   UNL     1      -3.237   0.225   1.913  0.00  0.00    +0.147 HD
ENDROOT
BRANCH   4  16
ATOM     16  C   UNL     1      -1.189  -2.902   1.192  0.00  0.00    -0.043 A 
ATOM     17  C   UNL     1      -2.253  -3.770   1.347  0.00  0.00    +0.004 A 
ATOM     18  C   UNL     1      -2.159  -5.069   0.884  0.00  0.00    +0.000 A 
ATOM     19  C   UNL     1      -1.000  -5.500   0.264  0.00  0.00    +0.000 A 
ATOM     20  C   UNL     1       0.064  -4.631   0.108  0.00  0.00    +0.000 A 
ATOM     21  C   UNL     1      -0.032  -3.331   0.568  0.00  0.00    +0.004 A 
ENDBRANCH   4  16
BRANCH   5  22
ATOM     22  C   UNL     1      -0.218  -0.672  -0.386  0.00  0.00    +0.314 C 
ATOM     23  O   UNL     1       0.877  -0.362   0.020  0.00  0.00    -0.250 OA
BRANCH  22  24
ATOM     24  O   UNL     1      -0.363  -1.144  -1.634  0.00  0.00    -0.468 OA
ATOM     25  C   UNL     1       0.821  -1.253  -2.427  0.00  0.00    +0.280 C 
ENDBRANCH  22  24
ENDBRANCH   5  22
BRANCH   2  26
ATOM     26  O   UNL     1       1.030   0.619   3.771  0.00  0.00    -0.389 OA
ATOM     27  H   UNL     1       1.174   0.047   4.538  0.00  0.00    +0.210 HD
ENDBRANCH   2  26
TORSDOF 4
