REMARK  Name = ZINC28054152
REMARK  5 active torsions:
REMARK  status: ('A' for Active; 'I' for Inactive)
REMARK    1  A    between atoms: C_1  and  C_2
REMARK    2  A    between atoms: C_5  and  C_8
REMARK    3  A    between atoms: C_19  and  C_21
REMARK    4  A    between atoms: C_25  and  O_27
REMARK    5  A    between atoms: O_27  and  C_28
REMARK                            x       y       z     vdW  Elec       q    Type
REMARK                         _______ _______ _______ _____ _____    ______ ____
ROOT
ATOM      1  C   UNL     1       2.272   0.010   0.506  0.00  0.00    +0.174 C 
ATOM      2  C   UNL     1       2.317   1.491   0.223  0.00  0.00    +0.025 C 
ATOM      3  C   UNL     1       1.215   2.210  -0.000  0.00  0.00    +0.050 C 
ATOM      4  C   UNL     1       1.358   3.666  -0.239  0.00  0.00    +0.038 A 
ATOM      5  C   UNL     1       0.327   4.416  -0.790  0.00  0.00    +0.013 A 
ATOM      6  C   UNL     1       0.504   5.771  -0.995  0.00  0.00    +0.001 A 
ATOM      7  C   UNL     1       1.700   6.378  -0.655  0.00  0.00    +0.004 A 
ATOM      8  C   UNL     1       2.732   5.639  -0.105  0.00  0.00    +0.046 A 
ATOM      9  C   UNL     1       2.568   4.282   0.106  0.00  0.00    +0.131 A 
ATOM     10  O   UNL     1       3.557   3.523   0.642  0.00  0.00    -0.479 OA
ATOM     11  C   UNL     1       3.665   2.176   0.182  0.00  0.00    +0.234 C 
ATOM     12  N   UNL     1      -0.062   1.637  -0.007  0.00  0.00    -0.282 N 
ATOM     13  C   UNL     1      -0.137   0.254  -0.049  0.00  0.00    +0.240 A 
ATOM     14  N   UNL     1       0.955  -0.521   0.185  0.00  0.00    -0.201 N 
ATOM     15  N   UNL     1       0.513  -1.836   0.050  0.00  0.00    -0.042 NA
ATOM     16  N   UNL     1      -0.748  -1.774  -0.234  0.00  0.00    -0.021 NA
ATOM     17  N   UNL     1      -1.135  -0.545  -0.292  0.00  0.00    -0.092 NA
ATOM     18  H   UNL     1      -0.954   2.280   0.020  0.00  0.00    +0.155 HD
ENDROOT
BRANCH   1  23
ATOM     19  C   UNL     1       3.393  -0.907   6.101  0.00  0.00    +0.044 C 
ATOM     20  C   UNL     1       3.101  -0.668   4.642  0.00  0.00    -0.050 A 
ATOM     21  C   UNL     1       3.926  -1.209   3.674  0.00  0.00    +0.004 A 
ATOM     22  C   UNL     1       3.658  -0.990   2.336  0.00  0.00    +0.006 A 
ATOM     23  C   UNL     1       2.564  -0.229   1.965  0.00  0.00    -0.019 A 
ATOM     24  C   UNL     1       1.742   0.317   2.933  0.00  0.00    +0.006 A 
ATOM     25  C   UNL     1       2.007   0.093   4.272  0.00  0.00    +0.004 A 
ENDBRANCH   1  23
BRANCH  11  26
ATOM     26  C   UNL     1       4.179   2.175  -1.235  0.00  0.00    +0.000 A 
ATOM     27  C   UNL     1       5.184   1.300  -1.604  0.00  0.00    +0.008 A 
ATOM     28  C   UNL     1       5.655   1.293  -2.904  0.00  0.00    +0.004 A 
ATOM     29  C   UNL     1       5.130   2.168  -3.835  0.00  0.00    +0.045 A 
ATOM     30  C   UNL     1       4.125   3.050  -3.466  0.00  0.00    +0.120 A 
ATOM     31  C   UNL     1       3.651   3.052  -2.162  0.00  0.00    +0.053 A 
BRANCH  30  32
ATOM     32  O   UNL     1       3.606   3.912  -4.380  0.00  0.00    -0.495 OA
ATOM     33  C   UNL     1       4.143   3.854  -5.703  0.00  0.00    +0.277 C 
ENDBRANCH  30  32
ENDBRANCH  11  26
TORSDOF 3
