REMARK  Name = ZINC08800224
REMARK  9 active torsions:
REMARK  status: ('A' for Active; 'I' for Inactive)
REMARK    1  A    between atoms: C_1  and  C_2
REMARK    2  A    between atoms: C_5  and  N_31
REMARK    3  A    between atoms: C_7  and  S_8
REMARK    4  A    between atoms: S_8  and  N_11
REMARK    5  A    between atoms: N_11  and  C_12
REMARK    6  A    between atoms: C_12  and  C_13
REMARK    7  A    between atoms: C_13  and  C_15
REMARK    8  A    between atoms: C_13  and  N_65
REMARK    9  A    between atoms: N_24  and  C_25
REMARK                            x       y       z     vdW  Elec       q    Type
REMARK                         _______ _______ _______ _____ _____    ______ ____
ROOT
ATOM      1  C   UNL     1       5.411   2.868   3.718  0.00  0.00    -0.022 C 
ENDROOT
BRANCH   1   2
ATOM      2  C   UNL     1       6.130   1.595   4.084  0.00  0.00    -0.059 A 
ATOM      3  C   UNL     1       5.609   0.760   5.055  0.00  0.00    +0.004 A 
ATOM      4  C   UNL     1       6.269  -0.403   5.390  0.00  0.00    +0.023 A 
ATOM      5  C   UNL     1       7.464  -0.745   4.754  0.00  0.00    +0.033 A 
ATOM      6  C   UNL     1       7.978   0.092   3.779  0.00  0.00    -0.026 A 
ATOM      7  C   UNL     1       7.307   1.258   3.446  0.00  0.00    +0.007 A 
ATOM      8  C   UNL     1       9.258  -0.226   3.047  0.00  0.00    +0.038 C 
ATOM      9  C   UNL     1      10.027  -1.312   3.803  0.00  0.00    +0.024 C 
ATOM     10  C   UNL     1       9.040  -2.432   4.154  0.00  0.00    +0.105 C 
ATOM     11  N   UNL     1       8.091  -1.926   5.148  0.00  0.00    -0.333 N 
ATOM     12  C   UNL     1       7.103  -2.953   5.503  0.00  0.00    +0.129 C 
ENDBRANCH   1   2
BRANCH   1  18
ATOM     13  C   UNL     1       4.202   4.762   4.620  0.00  0.00    -0.078 C 
ATOM     14  C   UNL     1       3.541   5.315   5.884  0.00  0.00    -0.019 C 
ATOM     15  C   UNL     1       4.610   5.543   6.956  0.00  0.00    -0.004 C 
ATOM     16  C   UNL     1       5.336   4.223   7.230  0.00  0.00    -0.019 C 
ATOM     17  C   UNL     1       5.946   3.701   5.927  0.00  0.00    -0.078 C 
ATOM     18  N   UNL     1       4.862   3.479   4.946  0.00  0.00    +0.385 N 
ATOM     19  H   UNL     1       4.169   2.842   5.354  0.00  0.00    -0.081 HD
ENDBRANCH   1  18
BRANCH   1  20
ATOM     20  C   UNL     1       4.256   2.547   2.767  0.00  0.00    +0.095 C 
BRANCH  20  21
ATOM     21  N   UNL     1       4.790   1.989   1.522  0.00  0.00    -0.191 NA
ATOM     22  H   UNL     1       5.734   2.077   1.317  0.00  0.00    +0.148 HD
BRANCH  21  23
ATOM     23  S   UNL     1       3.782   1.210   0.465  0.00  0.00    +0.059 S 
ATOM     24  O   UNL     1       3.015   0.294   1.235  0.00  0.00    -0.153 OA
ATOM     25  O   UNL     1       4.585   0.796  -0.633  0.00  0.00    -0.153 OA
BRANCH  23  32
ATOM     26  C   UNL     1       4.597   3.610  -1.185  0.00  0.00    +0.046 C 
ATOM     27  C   UNL     1       3.122   3.475  -0.907  0.00  0.00    -0.024 A 
ATOM     28  C   UNL     1       2.237   4.418  -1.398  0.00  0.00    +0.007 A 
ATOM     29  C   UNL     1       0.885   4.297  -1.138  0.00  0.00    +0.033 A 
ATOM     30  C   UNL     1       0.416   3.229  -0.396  0.00  0.00    +0.128 A 
ATOM     31  C   UNL     1       1.301   2.287   0.094  0.00  0.00    +0.061 A 
ATOM     32  C   UNL     1       2.654   2.410  -0.161  0.00  0.00    +0.110 A 
BRANCH  30  33
ATOM     33  N   UNL     1      -1.033   3.096  -0.122  0.00  0.00    +0.056 N 
ATOM     34  O   UNL     1      -1.445   2.158   0.535  0.00  0.00    -0.126 OA
ATOM     35  O   UNL     1      -1.812   3.927  -0.554  0.00  0.00    -0.126 OA
ENDBRANCH  30  33
ENDBRANCH  23  32
ENDBRANCH  21  23
ENDBRANCH  20  21
ENDBRANCH   1  20
TORSDOF 7
