REMARK  Name = ZINC10786694
REMARK  4 active torsions:
REMARK  status: ('A' for Active; 'I' for Inactive)
REMARK    1  A    between atoms: C_10  and  C_11
REMARK    2  A    between atoms: C_17  and  C_19
REMARK    3  A    between atoms: N_25  and  S_26
REMARK    4  A    between atoms: S_26  and  C_29
REMARK                            x       y       z     vdW  Elec       q    Type
REMARK                         _______ _______ _______ _____ _____    ______ ____
ROOT
ATOM      1  C   UNL     1      -0.775   1.833  -0.582  0.00  0.00    +0.081 A 
ATOM      2  C   UNL     1       0.263   0.984  -0.305  0.00  0.00    +0.076 A 
ATOM      3  S   UNL     1       1.599   2.152  -0.093  0.00  0.00    -0.060 S 
ATOM      4  C   UNL     1       0.647   3.637  -0.385  0.00  0.00    +0.165 A 
ATOM      5  N   UNL     1      -0.555   3.139  -0.609  0.00  0.00    -0.225 NA
ATOM      6  N   UNL     1       1.062   4.963  -0.378  0.00  0.00    -0.263 N 
ATOM      7  C   UNL     1       2.351   5.264  -0.124  0.00  0.00    +0.238 C 
ATOM      8  O   UNL     1       3.148   4.378   0.099  0.00  0.00    -0.274 OA
ATOM      9  H   UNL     1       0.424   5.671  -0.557  0.00  0.00    +0.157 HD
ENDROOT
BRANCH   1  19
ATOM     10  C   UNL     1      -4.358   2.579  -4.151  0.00  0.00    +0.001 A 
ATOM     11  C   UNL     1      -3.085   3.097  -3.923  0.00  0.00    +0.001 A 
ATOM     12  C   UNL     1      -2.345   2.693  -2.853  0.00  0.00    +0.009 A 
ATOM     13  C   UNL     1      -2.872   1.745  -1.964  0.00  0.00    -0.009 A 
ATOM     14  C   UNL     1      -4.163   1.213  -2.197  0.00  0.00    -0.017 A 
ATOM     15  C   UNL     1      -4.898   1.654  -3.311  0.00  0.00    +0.008 A 
ATOM     16  C   UNL     1      -4.690   0.259  -1.309  0.00  0.00    +0.008 A 
ATOM     17  C   UNL     1      -3.958  -0.152  -0.236  0.00  0.00    +0.001 A 
ATOM     18  C   UNL     1      -2.687   0.356   0.004  0.00  0.00    +0.010 A 
ATOM     19  C   UNL     1      -2.130   1.297  -0.845  0.00  0.00    +0.009 A 
ENDBRANCH   1  19
BRANCH   7  20
ATOM     20  C   UNL     1       2.801   6.702  -0.117  0.00  0.00    +0.166 C 
ATOM     21  C   UNL     1       3.830   6.924  -1.230  0.00  0.00    +0.030 C 
ATOM     22  C   UNL     1       4.388   8.345  -1.128  0.00  0.00    +0.003 C 
ATOM     23  C   UNL     1       5.085   8.529   0.222  0.00  0.00    +0.017 C 
ATOM     24  C   UNL     1       4.067   8.326   1.349  0.00  0.00    +0.110 C 
ATOM     25  N   UNL     1       3.423   7.017   1.176  0.00  0.00    -0.164 NA
BRANCH  25  26
ATOM     26  S   UNL     1       3.400   5.918   2.414  0.00  0.00    +0.068 S 
ATOM     27  O   UNL     1       3.515   6.661   3.619  0.00  0.00    -0.152 OA
ATOM     28  O   UNL     1       2.309   5.043   2.159  0.00  0.00    -0.152 OA
BRANCH  26  29
ATOM     29  C   UNL     1       4.865   4.948   2.277  0.00  0.00    +0.144 A 
ATOM     30  C   UNL     1       6.085   5.166   2.824  0.00  0.00    +0.038 A 
ATOM     31  C   UNL     1       7.100   4.258   2.582  0.00  0.00    +0.030 A 
ATOM     32  C   UNL     1       6.846   3.182   1.796  0.00  0.00    +0.080 A 
ATOM     33  S   UNL     1       5.128   3.429   1.377  0.00  0.00    -0.057 S 
ATOM     34 CL   UNL     1       7.913   1.898   1.321  0.00  0.00    -0.076 Cl
ENDBRANCH  26  29
ENDBRANCH  25  26
ENDBRANCH   7  20
TORSDOF 4
