REMARK  Name = ZINC28290103
REMARK  9 active torsions:
REMARK  status: ('A' for Active; 'I' for Inactive)
REMARK    1  A    between atoms: C_1  and  C_2
REMARK    2  A    between atoms: C_2  and  C_3
REMARK    3  A    between atoms: C_2  and  C_4
REMARK    4  A    between atoms: C_2  and  C_5
REMARK    5  A    between atoms: C_8  and  C_11
REMARK    6  A    between atoms: C_11  and  C_13
REMARK    7  A    between atoms: C_11  and  N_29
REMARK    8  A    between atoms: C_13  and  N_14
REMARK    9  A    between atoms: C_15  and  C_17
REMARK                            x       y       z     vdW  Elec       q    Type
REMARK                         _______ _______ _______ _____ _____    ______ ____
ROOT
ATOM      1  C   UNL     1      -6.127  -1.667  -0.011  0.00  0.00    -0.020 C 
ENDROOT
BRANCH   1   5
ATOM      2  C   UNL     1      -9.870  -3.725  -0.067  0.00  0.00    -0.042 A 
ATOM      3  C   UNL     1      -9.381  -3.212   1.120  0.00  0.00    +0.004 A 
ATOM      4  C   UNL     1      -8.169  -2.546   1.138  0.00  0.00    +0.002 A 
ATOM      5  C   UNL     1      -7.447  -2.393  -0.031  0.00  0.00    -0.059 A 
ATOM      6  C   UNL     1      -7.939  -2.901  -1.219  0.00  0.00    +0.002 A 
ATOM      7  C   UNL     1      -9.148  -3.571  -1.236  0.00  0.00    +0.004 A 
BRANCH   2   9
ATOM      8  C   UNL     1     -12.297  -3.510   0.393  0.00  0.00    +0.015 C 
ATOM      9  C   UNL     1     -11.190  -4.451  -0.087  0.00  0.00    -0.013 C 
ATOM     10  C   UNL     1     -11.496  -4.914  -1.513  0.00  0.00    +0.015 C 
ATOM     11  C   UNL     1     -11.117  -5.667   0.839  0.00  0.00    +0.015 C 
ENDBRANCH   2   9
ENDBRANCH   1   5
BRANCH   1  12
ATOM     12  N   UNL     1      -6.015  -0.822  -1.208  0.00  0.00    +0.385 N 
ATOM     13  C   UNL     1      -7.110   0.181  -1.256  0.00  0.00    -0.078 C 
ATOM     14  C   UNL     1      -6.558   1.263  -2.218  0.00  0.00    -0.020 C 
ATOM     15  C   UNL     1      -5.055   1.312  -1.857  0.00  0.00    -0.020 C 
ATOM     16  C   UNL     1      -4.757  -0.044  -1.192  0.00  0.00    -0.078 C 
ATOM     17  H   UNL     1      -6.053  -1.510  -2.065  0.00  0.00    -0.081 HD
ENDBRANCH   1  12
BRANCH   1  18
ATOM     18  C   UNL     1      -4.985  -2.685   0.003  0.00  0.00    +0.094 C 
BRANCH  18  19
ATOM     19  N   UNL     1      -5.019  -3.440   1.258  0.00  0.00    -0.310 N 
ATOM     20  C   UNL     1      -4.169  -4.468   1.449  0.00  0.00    +0.279 C 
ATOM     21  O   UNL     1      -3.375  -4.769   0.580  0.00  0.00    -0.267 OA
ATOM     22  H   UNL     1      -5.738  -3.167   2.044  0.00  0.00    +0.149 HD
BRANCH  20  23
ATOM     23  C   UNL     1      -4.204  -5.232   2.719  0.00  0.00    +0.193 A 
ATOM     24  C   UNL     1      -3.338  -6.260   2.883  0.00  0.00    +0.103 A 
ATOM     25  C   UNL     1      -3.371  -7.019   4.142  0.00  0.00    +0.193 A 
ATOM     26  O   UNL     1      -2.616  -7.954   4.345  0.00  0.00    -0.287 OA
ATOM     27  C   UNL     1      -4.364  -6.595   5.149  0.00  0.00    +0.065 A 
ATOM     28  C   UNL     1      -4.477  -7.250   6.375  0.00  0.00    +0.030 A 
ATOM     29  C   UNL     1      -5.416  -6.823   7.289  0.00  0.00    +0.019 A 
ATOM     30  C   UNL     1      -6.245  -5.749   6.990  0.00  0.00    +0.019 A 
ATOM     31  C   UNL     1      -6.143  -5.095   5.782  0.00  0.00    +0.048 A 
ATOM     32  C   UNL     1      -5.201  -5.509   4.845  0.00  0.00    +0.140 A 
ATOM     33  O   UNL     1      -5.091  -4.878   3.659  0.00  0.00    -0.450 OA
ATOM     34 BR   UNL     1      -5.578  -7.704   8.954  0.00  0.00    -0.050 Br
ENDBRANCH  20  23
ENDBRANCH  18  19
ENDBRANCH   1  18
TORSDOF 6
