REMARK  Name = ZINC01282962
REMARK  12 active torsions:
REMARK  status: ('A' for Active; 'I' for Inactive)
REMARK    1  A    between atoms: C_1  and  C_2
REMARK    2  A    between atoms: C_2  and  O_3
REMARK    3  A    between atoms: O_3  and  C_4
REMARK    4  A    between atoms: C_4  and  C_6
REMARK    5  A    between atoms: C_7  and  C_34
REMARK    6  A    between atoms: C_11  and  S_25
REMARK    7  A    between atoms: C_14  and  C_16
REMARK    8  A    between atoms: C_19  and  O_24
REMARK    9  A    between atoms: C_20  and  O_22
REMARK   10  A    between atoms: O_22  and  C_23
REMARK   11  A    between atoms: S_25  and  C_26
REMARK   12  A    between atoms: C_26  and  C_27
REMARK                            x       y       z     vdW  Elec       q    Type
REMARK                         _______ _______ _______ _____ _____    ______ ____
ROOT
ATOM      1  C   UNL     1      -2.795  -2.429   0.223  0.00  0.00    +0.082 C 
ATOM      2  C   UNL     1      -2.920  -3.729  -0.087  0.00  0.00    +0.020 C 
ATOM      3  N   UNL     1      -4.143  -4.319  -0.286  0.00  0.00    -0.287 N 
ATOM      4  C   UNL     1      -5.268  -3.602   0.098  0.00  0.00    +0.219 A 
ATOM      5  N   UNL     1      -6.507  -3.991   0.229  0.00  0.00    -0.187 NA
ATOM      6  C   UNL     1      -7.261  -2.957   0.629  0.00  0.00    +0.211 A 
ATOM      7  N   UNL     1      -6.498  -1.893   0.753  0.00  0.00    -0.141 NA
ATOM      8  N   UNL     1      -5.204  -2.285   0.412  0.00  0.00    -0.220 N 
ATOM      9  C   UNL     1      -3.972  -1.504   0.373  0.00  0.00    +0.179 C 
ATOM     10  C   UNL     1      -1.675  -4.569  -0.222  0.00  0.00    +0.061 C 
ATOM     11  H   UNL     1      -4.218  -5.202  -0.679  0.00  0.00    +0.155 HD
ENDROOT
BRANCH   9  12
ATOM     12  C   UNL     1      -4.020  -0.556  -0.797  0.00  0.00    -0.015 A 
ATOM     13  C   UNL     1      -4.152  -1.052  -2.081  0.00  0.00    +0.010 A 
ATOM     14  C   UNL     1      -4.196  -0.187  -3.158  0.00  0.00    +0.049 A 
ATOM     15  C   UNL     1      -4.109   1.181  -2.953  0.00  0.00    +0.158 A 
ATOM     16  C   UNL     1      -3.976   1.680  -1.661  0.00  0.00    +0.162 A 
ATOM     17  C   UNL     1      -3.937   0.807  -0.585  0.00  0.00    +0.055 A 
BRANCH  16  18
ATOM     18  O   UNL     1      -3.889   3.021  -1.454  0.00  0.00    -0.491 OA
ATOM     19  C   UNL     1      -3.755   3.462  -0.101  0.00  0.00    +0.277 C 
ENDBRANCH  16  18
BRANCH  15  20
ATOM     20  O   UNL     1      -4.152   2.033  -4.011  0.00  0.00    -0.503 OA
ATOM     21  H   UNL     1      -5.043   2.325  -4.245  0.00  0.00    +0.292 HD
ENDBRANCH  15  20
ENDBRANCH   9  12
BRANCH   1  22
ATOM     22  C   UNL     1      -1.498  -1.906   0.422  0.00  0.00    +0.339 C 
ATOM     23  O   UNL     1      -1.065  -1.766   1.551  0.00  0.00    -0.245 OA
BRANCH  22  24
ATOM     24  O   UNL     1      -0.738  -1.562  -0.639  0.00  0.00    -0.462 OA
BRANCH  24  26
ATOM     25  C   UNL     1       1.269  -0.709  -1.680  0.00  0.00    +0.048 C 
ATOM     26  C   UNL     1       0.563  -1.040  -0.364  0.00  0.00    +0.229 C 
ENDBRANCH  24  26
ENDBRANCH  22  24
ENDBRANCH   1  22
BRANCH   6  27
ATOM     27  S   UNL     1      -8.995  -3.014   0.937  0.00  0.00    -0.080 S 
BRANCH  27  28
ATOM     28  C   UNL     1      -9.447  -4.736   0.589  0.00  0.00    +0.114 C 
BRANCH  28  29
ATOM     29  C   UNL     1     -10.924  -4.924   0.817  0.00  0.00    -0.019 A 
ATOM     30  C   UNL     1     -11.390  -5.291   2.065  0.00  0.00    +0.006 A 
ATOM     31  C   UNL     1     -12.746  -5.463   2.274  0.00  0.00    +0.000 A 
ATOM     32  C   UNL     1     -13.636  -5.269   1.234  0.00  0.00    +0.001 A 
ATOM     33  C   UNL     1     -13.171  -4.902  -0.014  0.00  0.00    +0.020 A 
ATOM     34  C   UNL     1     -11.815  -4.724  -0.223  0.00  0.00    +0.045 A 
ATOM     35 CL   UNL     1     -11.231  -4.256  -1.789  0.00  0.00    -0.083 Cl
ENDBRANCH  28  29
ENDBRANCH  27  28
ENDBRANCH   6  27
TORSDOF 9
