REMARK  Name = ZINC42159616
REMARK  8 active torsions:
REMARK  status: ('A' for Active; 'I' for Inactive)
REMARK    1  A    between atoms: C_1  and  C_2
REMARK    2  A    between atoms: N_4  and  C_5
REMARK    3  A    between atoms: C_14  and  C_17
REMARK    4  A    between atoms: N_19  and  C_20
REMARK    5  A    between atoms: C_20  and  C_21
REMARK    6  A    between atoms: C_21  and  C_22
REMARK    7  A    between atoms: C_21  and  C_23
REMARK    8  A    between atoms: C_21  and  N_24
REMARK                            x       y       z     vdW  Elec       q    Type
REMARK                         _______ _______ _______ _____ _____    ______ ____
ROOT
ATOM      1  C   UNL     1      -1.136  -2.159   0.001  0.00  0.00    +0.036 C 
ATOM      2  C   UNL     1      -0.396  -2.665   1.241  0.00  0.00    +0.029 C 
ATOM      3  C   UNL     1      -0.375  -4.195   1.232  0.00  0.00    -0.008 C 
ATOM      4  C   UNL     1       0.341  -4.689  -0.026  0.00  0.00    +0.007 C 
ATOM      5  C   UNL     1      -0.399  -4.182  -1.266  0.00  0.00    -0.008 C 
ATOM      6  C   UNL     1      -0.420  -2.652  -1.258  0.00  0.00    +0.029 C 
ATOM      7  C   UNL     1      -1.835  -4.711  -1.255  0.00  0.00    +0.020 C 
ATOM      8  C   UNL     1      -2.551  -4.218   0.004  0.00  0.00    +0.049 C 
ATOM      9  C   UNL     1      -1.811  -4.725   1.243  0.00  0.00    +0.020 C 
ATOM     10  C   UNL     1      -2.571  -2.688   0.012  0.00  0.00    +0.042 C 
ENDROOT
BRANCH   1  14
ATOM     11  C   UNL     1      -0.018   1.503   0.010  0.00  0.00    +0.109 C 
ATOM     12  C   UNL     1       0.002  -0.004   0.002  0.00  0.00    +0.210 C 
ATOM     13  O   UNL     1       1.060  -0.596  -0.011  0.00  0.00    -0.276 OA
ATOM     14  N   UNL     1      -1.156  -0.694   0.009  0.00  0.00    -0.310 N 
ATOM     15  H   UNL     1      -2.002  -0.220   0.020  0.00  0.00    +0.149 HD
ENDBRANCH   1  14
BRANCH   8  16
ATOM     16  C   UNL     1      -3.964  -4.740   0.015  0.00  0.00    +0.219 C 
ATOM     17  O   UNL     1      -4.897  -3.964   0.028  0.00  0.00    -0.275 OA
ATOM     18  N   UNL     1      -4.193  -6.068   0.009  0.00  0.00    -0.316 N 
ATOM     19  H   UNL     1      -3.447  -6.688  -0.001  0.00  0.00    +0.149 HD
BRANCH  18  20
ATOM     20  C   UNL     1      -5.567  -6.575   0.020  0.00  0.00    +0.092 C 
BRANCH  20  21
ATOM     21  C   UNL     1      -5.546  -8.105   0.011  0.00  0.00    -0.055 C 
ATOM     22  C   UNL     1      -6.982  -8.634   0.022  0.00  0.00    -0.008 C 
ATOM     23  C   UNL     1      -4.830  -8.598  -1.247  0.00  0.00    -0.008 C 
BRANCH  21  24
ATOM     24  N   UNL     1      -4.836  -8.591   1.202  0.00  0.00    +0.384 N 
ATOM     25  C   UNL     1      -5.519  -8.110   2.408  0.00  0.00    -0.078 C 
ATOM     26  C   UNL     1      -4.737  -8.546   3.650  0.00  0.00    -0.019 C 
ATOM     27  C   UNL     1      -4.655 -10.075   3.683  0.00  0.00    -0.004 C 
ATOM     28  C   UNL     1      -4.008 -10.570   2.387  0.00  0.00    -0.019 C 
ATOM     29  C   UNL     1      -4.817 -10.059   1.192  0.00  0.00    -0.078 C 
ATOM     30  H   UNL     1      -3.889  -8.244   1.192  0.00  0.00    -0.081 HD
ENDBRANCH  21  24
ENDBRANCH  20  21
ENDBRANCH  18  20
ENDBRANCH   8  16
TORSDOF 5
