REMARK  Name = ZINC06856699
REMARK  9 active torsions:
REMARK  status: ('A' for Active; 'I' for Inactive)
REMARK    1  A    between atoms: C_1  and  C_2
REMARK    2  A    between atoms: C_2  and  C_3
REMARK    3  A    between atoms: C_3  and  C_4
REMARK    4  A    between atoms: C_4  and  S_5
REMARK    5  A    between atoms: S_5  and  C_6
REMARK    6  A    between atoms: C_17  and  C_19
REMARK    7  A    between atoms: C_23  and  O_25
REMARK    8  A    between atoms: C_29  and  C_31
REMARK    9  A    between atoms: C_29  and  C_32
REMARK                            x       y       z     vdW  Elec       q    Type
REMARK                         _______ _______ _______ _____ _____    ______ ____
ROOT
ATOM      1  C   UNL     1       1.579  -4.396   2.548  0.00  0.00    +0.171 A 
ATOM      2  N   UNL     1       2.153  -5.171   3.510  0.00  0.00    -0.302 N 
ATOM      3  H   UNL     1       2.592  -4.755   4.269  0.00  0.00    +0.171 HD
ATOM      4  C   UNL     1       2.111  -6.516   3.411  0.00  0.00    +0.258 A 
ATOM      5  O   UNL     1       2.620  -7.219   4.270  0.00  0.00    -0.267 OA
ATOM      6  C   UNL     1       1.475  -7.090   2.304  0.00  0.00    +0.069 A 
ATOM      7  C   UNL     1       0.912  -6.258   1.352  0.00  0.00    +0.135 A 
ATOM      8  N   UNL     1       0.973  -4.931   1.508  0.00  0.00    -0.208 NA
ATOM      9  N   UNL     1       0.287  -6.806   0.249  0.00  0.00    -0.302 N 
ATOM     10  C   UNL     1       0.542  -8.097  -0.126  0.00  0.00    +0.017 C 
ATOM     11  C   UNL     1       1.072  -8.981   0.745  0.00  0.00    +0.024 C 
ATOM     12  C   UNL     1       1.403  -8.581   2.160  0.00  0.00    +0.092 C 
ATOM     13  C   UNL     1       1.328 -10.309   0.362  0.00  0.00    +0.162 C 
ATOM     14  O   UNL     1       1.825 -11.075   1.164  0.00  0.00    -0.292 OA
ATOM     15  C   UNL     1       0.999 -10.802  -1.021  0.00  0.00    +0.086 C 
ATOM     16  C   UNL     1      -0.172  -9.984  -1.576  0.00  0.00    -0.023 C 
ATOM     17  C   UNL     1       0.215  -8.503  -1.543  0.00  0.00    +0.058 C 
ATOM     18  C   UNL     1      -0.460 -10.409  -3.017  0.00  0.00    +0.011 C 
ATOM     19  C   UNL     1      -1.414 -10.211  -0.712  0.00  0.00    +0.011 C 
ATOM     20  H   UNL     1      -0.337  -6.270  -0.265  0.00  0.00    +0.153 HD
ENDROOT
BRANCH  12  21
ATOM     21  C   UNL     1       0.340  -9.116   3.085  0.00  0.00    -0.032 A 
ATOM     22  C   UNL     1      -0.971  -8.702   2.942  0.00  0.00    +0.005 A 
ATOM     23  C   UNL     1      -1.949  -9.191   3.789  0.00  0.00    +0.004 A 
ATOM     24  C   UNL     1      -1.617 -10.094   4.780  0.00  0.00    +0.045 A 
ATOM     25  C   UNL     1      -0.302 -10.510   4.926  0.00  0.00    +0.117 A 
ATOM     26  C   UNL     1       0.676 -10.023   4.071  0.00  0.00    +0.050 A 
BRANCH  25  27
ATOM     27  O   UNL     1       0.027 -11.398   5.900  0.00  0.00    -0.507 OA
ATOM     28  H   UNL     1      -0.028 -12.323   5.624  0.00  0.00    +0.292 HD
ENDBRANCH  25  27
ENDBRANCH  12  21
BRANCH   1  29
ATOM     29  S   UNL     1       1.640  -2.642   2.703  0.00  0.00    -0.088 S 
BRANCH  29  30
ATOM     30  C   UNL     1       0.763  -2.041   1.233  0.00  0.00    +0.077 C 
BRANCH  30  31
ATOM     31  C   UNL     1       0.742  -0.511   1.242  0.00  0.00    +0.011 C 
BRANCH  31  33
ATOM     32  C   UNL     1      -0.019   1.526   0.010  0.00  0.00    +0.004 C 
ATOM     33  C   UNL     1       0.002  -0.004   0.002  0.00  0.00    -0.003 C 
ENDBRANCH  31  33
ENDBRANCH  30  31
ENDBRANCH  29  30
ENDBRANCH   1  29
TORSDOF 6
