REMARK  Name = ZINC02785243
REMARK  10 active torsions:
REMARK  status: ('A' for Active; 'I' for Inactive)
REMARK    1  A    between atoms: C_1  and  C_2
REMARK    2  A    between atoms: C_2  and  O_3
REMARK    3  A    between atoms: O_3  and  C_4
REMARK    4  A    between atoms: C_4  and  C_6
REMARK    5  A    between atoms: C_10  and  N_11
REMARK    6  A    between atoms: C_12  and  C_14
REMARK    7  A    between atoms: C_14  and  S_15
REMARK    8  A    between atoms: S_15  and  C_16
REMARK    9  A    between atoms: C_21  and  N_29
REMARK   10  A    between atoms: N_22  and  C_23
REMARK                            x       y       z     vdW  Elec       q    Type
REMARK                         _______ _______ _______ _____ _____    ______ ____
ROOT
ATOM      1  C   UNL     1       5.441   1.302   3.479  0.00  0.00    +0.173 C 
ENDROOT
BRANCH   1   3
ATOM      2  N   UNL     1       6.246   0.562   5.698  0.00  0.00    -0.279 N 
ATOM      3  C   UNL     1       5.286   0.512   4.753  0.00  0.00    +0.228 C 
ATOM      4  O   UNL     1       4.297  -0.167   4.928  0.00  0.00    -0.275 OA
ATOM      5  H   UNL     1       7.037   1.105   5.558  0.00  0.00    +0.155 HD
BRANCH   2  10
ATOM      6  C   UNL     1       6.974  -0.247   7.944  0.00  0.00    +0.091 A 
ATOM      7  C   UNL     1       6.579  -1.090   9.072  0.00  0.00    -0.021 A 
ATOM      8  C   UNL     1       5.395  -1.713   8.933  0.00  0.00    -0.004 A 
ATOM      9  S   UNL     1       4.796  -1.196   7.343  0.00  0.00    -0.077 S 
ATOM     10  C   UNL     1       6.103  -0.165   6.870  0.00  0.00    +0.086 A 
ATOM     11  C   UNL     1       5.061  -2.562  10.130  0.00  0.00    +0.043 C 
ATOM     12  C   UNL     1       6.003  -2.054  11.243  0.00  0.00    +0.010 C 
ATOM     13  C   UNL     1       7.177  -1.481  10.425  0.00  0.00    +0.037 C 
BRANCH   6  14
ATOM     14  C   UNL     1       8.240   0.488   7.952  0.00  0.00    +0.342 C 
ATOM     15  O   UNL     1       8.287   1.615   8.407  0.00  0.00    -0.245 OA
BRANCH  14  16
ATOM     16  O   UNL     1       9.355  -0.085   7.454  0.00  0.00    -0.461 OA
BRANCH  16  18
ATOM     17  C   UNL     1      11.725  -0.107   6.891  0.00  0.00    +0.048 C 
ATOM     18  C   UNL     1      10.575   0.703   7.495  0.00  0.00    +0.229 C 
ENDBRANCH  16  18
ENDBRANCH  14  16
ENDBRANCH   6  14
ENDBRANCH   2  10
ENDBRANCH   1   3
BRANCH   1  19
ATOM     19  S   UNL     1       3.998   1.030   2.421  0.00  0.00    -0.078 S 
BRANCH  19  20
ATOM     20  C   UNL     1       4.434   2.041   1.045  0.00  0.00    +0.179 A 
ATOM     21  N   UNL     1       5.574   2.699   1.060  0.00  0.00    -0.185 NA
ATOM     22  C   UNL     1       5.934   3.482   0.031  0.00  0.00    +0.276 A 
ATOM     23  O   UNL     1       6.994   4.090   0.064  0.00  0.00    -0.266 OA
ATOM     24  C   UNL     1       5.085   3.601  -1.088  0.00  0.00    +0.114 A 
ATOM     25  C   UNL     1       3.907   2.912  -1.098  0.00  0.00    +0.108 A 
ATOM     26  N   UNL     1       3.585   2.124  -0.021  0.00  0.00    -0.277 N 
BRANCH  26  27
ATOM     27  C   UNL     1       2.381   1.409  -0.013  0.00  0.00    +0.050 A 
ATOM     28  C   UNL     1       1.169   2.087   0.002  0.00  0.00    +0.026 A 
ATOM     29  C   UNL     1      -0.017   1.379   0.010  0.00  0.00    +0.002 A 
ATOM     30  C   UNL     1       0.002  -0.004   0.002  0.00  0.00    +0.000 A 
ATOM     31  C   UNL     1       1.207  -0.682  -0.013  0.00  0.00    +0.002 A 
ATOM     32  C   UNL     1       2.396   0.021  -0.020  0.00  0.00    +0.026 A 
ENDBRANCH  26  27
BRANCH  25  33
ATOM     33  N   UNL     1       3.054   3.004  -2.174  0.00  0.00    -0.344 N 
ATOM     34  H   UNL     1       2.218   2.511  -2.175  0.00  0.00    +0.144 HD
ATOM     35  H   UNL     1       3.288   3.563  -2.932  0.00  0.00    +0.144 HD
ENDBRANCH  25  33
ENDBRANCH  19  20
ENDBRANCH   1  19
TORSDOF 9
