REMARK  Name = ZINC08443508
REMARK  5 active torsions:
REMARK  status: ('A' for Active; 'I' for Inactive)
REMARK    1  A    between atoms: C_10  and  N_14
REMARK    2  A    between atoms: C_15  and  C_17
REMARK    3  A    between atoms: C_17  and  S_18
REMARK    4  A    between atoms: S_18  and  C_19
REMARK    5  A    between atoms: C_25  and  C_27
REMARK                            x       y       z     vdW  Elec       q    Type
REMARK                         _______ _______ _______ _____ _____    ______ ____
ROOT
ATOM      1  C   UNL     1       5.365   6.386   0.202  0.00  0.00    +0.172 C 
ENDROOT
BRANCH   1   3
ATOM      2  N   UNL     1       3.542   4.726  -0.005  0.00  0.00    -0.285 N 
ATOM      3  C   UNL     1       4.865   4.969   0.085  0.00  0.00    +0.227 C 
ATOM      4  O   UNL     1       5.653   4.047   0.072  0.00  0.00    -0.275 OA
ATOM      5  H   UNL     1       2.916   5.465  -0.062  0.00  0.00    +0.155 HD
BRANCH   2  15
ATOM      6  C   UNL     1       1.054  -2.870  -0.204  0.00  0.00    +0.001 A 
ATOM      7  C   UNL     1       2.157  -3.311  -0.918  0.00  0.00    +0.004 A 
ATOM      8  C   UNL     1       3.150  -2.429  -1.291  0.00  0.00    +0.047 A 
ATOM      9  C   UNL     1       3.052  -1.085  -0.952  0.00  0.00    +0.136 A 
ATOM     10  C   UNL     1       1.935  -0.643  -0.230  0.00  0.00    +0.028 A 
ATOM     11  C   UNL     1       0.939  -1.540   0.141  0.00  0.00    +0.012 A 
ATOM     12  C   UNL     1       2.132   0.806  -0.036  0.00  0.00    +0.028 A 
ATOM     13  C   UNL     1       1.393   1.805   0.590  0.00  0.00    +0.014 A 
ATOM     14  C   UNL     1       1.862   3.101   0.599  0.00  0.00    +0.024 A 
ATOM     15  C   UNL     1       3.072   3.409  -0.018  0.00  0.00    +0.037 A 
ATOM     16  C   UNL     1       3.813   2.420  -0.643  0.00  0.00    +0.070 A 
ATOM     17  C   UNL     1       3.352   1.110  -0.659  0.00  0.00    +0.138 A 
ATOM     18  O   UNL     1       3.860  -0.027  -1.184  0.00  0.00    -0.455 OA
ENDBRANCH   2  15
ENDBRANCH   1   3
BRANCH   1  19
ATOM     19  S   UNL     1       7.176   6.381   0.305  0.00  0.00    -0.088 S 
BRANCH  19  20
ATOM     20  C   UNL     1       7.599   8.086   0.435  0.00  0.00    +0.160 A 
ATOM     21  N   UNL     1       6.821   9.158   0.458  0.00  0.00    -0.133 NA
ATOM     22  N   UNL     1       7.293  10.324   0.558  0.00  0.00    -0.125 NA
ATOM     23  C   UNL     1       8.594  10.548   0.645  0.00  0.00    +0.189 A 
ATOM     24  S   UNL     1       9.205   8.866   0.583  0.00  0.00    -0.024 S 
ATOM     25  N   UNL     1       9.289  11.748   0.760  0.00  0.00    -0.259 N 
ATOM     26  C   UNL     1       8.617  12.915   0.795  0.00  0.00    +0.251 C 
ATOM     27  O   UNL     1       7.403  12.920   0.726  0.00  0.00    -0.270 OA
ATOM     28  H   UNL     1      10.258  11.744   0.815  0.00  0.00    +0.157 HD
BRANCH  26  29
ATOM     29  C   UNL     1       9.355  14.190   0.916  0.00  0.00    +0.051 A 
ATOM     30  C   UNL     1      10.748  14.188   1.001  0.00  0.00    +0.014 A 
ATOM     31  C   UNL     1      11.431  15.381   1.111  0.00  0.00    +0.001 A 
ATOM     32  C   UNL     1      10.738  16.578   1.146  0.00  0.00    +0.001 A 
ATOM     33  C   UNL     1       9.358  16.588   1.067  0.00  0.00    +0.016 A 
ATOM     34  C   UNL     1       8.661  15.402   0.953  0.00  0.00    +0.030 A 
ATOM     35 BR   UNL     1       6.773  15.417   0.847  0.00  0.00    -0.050 Br
ENDBRANCH  26  29
ENDBRANCH  19  20
ENDBRANCH   1  19
TORSDOF 5
