REMARK  Name = ZINC47714103
REMARK  5 active torsions:
REMARK  status: ('A' for Active; 'I' for Inactive)
REMARK    1  A    between atoms: C_8  and  C_12
REMARK    2  A    between atoms: C_12  and  N_13
REMARK    3  A    between atoms: N_16  and  C_17
REMARK    4  A    between atoms: C_20  and  O_24
REMARK    5  A    between atoms: O_24  and  C_25
REMARK                            x       y       z     vdW  Elec       q    Type
REMARK                         _______ _______ _______ _____ _____    ______ ____
ROOT
ATOM      1  N   UNL     1       3.884  -4.761  -0.725  0.00  0.00    -0.299 N 
ATOM      2  C   UNL     1       4.180  -6.068  -0.584  0.00  0.00    +0.304 C 
ATOM      3  O   UNL     1       3.407  -6.807  -0.005  0.00  0.00    -0.253 OA
ATOM      4  N   UNL     1       5.332  -6.556  -1.085  0.00  0.00    -0.269 N 
ATOM      5  H   UNL     1       4.500  -4.171  -1.187  0.00  0.00    +0.150 HD
ATOM      6  H   UNL     1       5.917  -5.982  -1.604  0.00  0.00    +0.156 HD
ENDROOT
BRANCH   4   7
ATOM      7  C   UNL     1       5.686  -7.892  -0.855  0.00  0.00    +0.038 A 
ATOM      8  C   UNL     1       7.018  -8.236  -0.672  0.00  0.00    +0.027 A 
ATOM      9  C   UNL     1       7.367  -9.554  -0.445  0.00  0.00    +0.050 A 
ATOM     10  C   UNL     1       6.387 -10.533  -0.399  0.00  0.00    +0.162 A 
ATOM     11  C   UNL     1       5.053 -10.191  -0.582  0.00  0.00    +0.167 A 
ATOM     12  C   UNL     1       4.703  -8.871  -0.804  0.00  0.00    +0.065 A 
ATOM     13  F   UNL     1       4.098 -11.145  -0.538  0.00  0.00    -0.202 F 
BRANCH  10  14
ATOM     14  O   UNL     1       6.732 -11.830  -0.175  0.00  0.00    -0.431 OA
BRANCH  14  15
ATOM     15  C   UNL     1       8.121 -12.110   0.004  0.00  0.00    +0.541 C 
ATOM     16  F   UNL     1       8.826 -11.726  -1.143  0.00  0.00    -0.166 F 
ATOM     17  F   UNL     1       8.603 -11.398   1.107  0.00  0.00    -0.166 F 
ENDBRANCH  14  15
ENDBRANCH  10  14
ENDBRANCH   4   7
BRANCH   1  18
ATOM     18  C   UNL     1       2.631  -4.230  -0.181  0.00  0.00    +0.113 C 
BRANCH  18  26
ATOM     19  C   UNL     1      -0.030   1.372  -0.018  0.00  0.00    +0.000 A 
ATOM     20  C   UNL     1       1.157   2.082  -0.034  0.00  0.00    +0.004 A 
ATOM     21  C   UNL     1       2.361   1.409  -0.052  0.00  0.00    +0.046 A 
ATOM     22  C   UNL     1       2.387   0.018  -0.052  0.00  0.00    +0.124 A 
ATOM     23  C   UNL     1       1.198  -0.690  -0.032  0.00  0.00    -0.005 A 
ATOM     24  C   UNL     1      -0.008  -0.009  -0.017  0.00  0.00    +0.007 A 
ATOM     25  C   UNL     1       1.181  -2.197  -0.020  0.00  0.00    +0.047 C 
ATOM     26  C   UNL     1       2.542  -2.732  -0.475  0.00  0.00    +0.048 C 
ATOM     27  C   UNL     1       3.636  -1.986   0.299  0.00  0.00    +0.234 C 
ATOM     28  O   UNL     1       3.593  -0.608  -0.075  0.00  0.00    -0.491 OA
ENDBRANCH  18  26
ENDBRANCH   1  18
TORSDOF 5
