REMARK  Name = ZINC64450562
REMARK  5 active torsions:
REMARK  status: ('A' for Active; 'I' for Inactive)
REMARK    1  A    between atoms: C_3  and  N_23
REMARK    2  A    between atoms: C_6  and  C_7
REMARK    3  A    between atoms: C_10  and  C_13
REMARK    4  A    between atoms: N_23  and  S_24
REMARK    5  A    between atoms: S_24  and  C_27
REMARK                            x       y       z     vdW  Elec       q    Type
REMARK                         _______ _______ _______ _____ _____    ______ ____
ROOT
ATOM      1  C   UNL     1      -0.002   1.336  -0.111  0.00  0.00    +0.013 A 
ATOM      2  C   UNL     1       1.171   2.059  -0.095  0.00  0.00    +0.025 A 
ATOM      3  C   UNL     1       2.394   1.401  -0.037  0.00  0.00    +0.048 A 
ATOM      4  C   UNL     1       2.438   0.011   0.004  0.00  0.00    +0.025 A 
ATOM      5  C   UNL     1       1.269  -0.717  -0.012  0.00  0.00    +0.013 A 
ATOM      6  C   UNL     1       0.039  -0.059  -0.069  0.00  0.00    +0.018 A 
ENDROOT
BRANCH   6   7
ATOM      7  C   UNL     1      -1.218  -0.837  -0.086  0.00  0.00    +0.168 C 
ATOM      8  N   UNL     1      -2.400  -0.316  -0.144  0.00  0.00    -0.067 NA
ATOM      9  O   UNL     1      -3.397  -1.321  -0.144  0.00  0.00    -0.367 OA
ATOM     10  C   UNL     1      -2.708  -2.579  -0.079  0.00  0.00    +0.322 C 
ATOM     11  N   UNL     1      -1.282  -2.219  -0.048  0.00  0.00    -0.287 N 
ATOM     12  H   UNL     1      -0.532  -2.832  -0.007  0.00  0.00    +0.151 HD
BRANCH  10  13
ATOM     13  C   UNL     1      -3.103  -3.338   1.190  0.00  0.00    +0.217 C 
ATOM     14  C   UNL     1      -4.535  -3.799   1.114  0.00  0.00    -0.015 C 
ATOM     15  C   UNL     1      -4.471  -5.133   1.175  0.00  0.00    +0.065 C 
ATOM     16  C   UNL     1      -5.696  -6.020   1.131  0.00  0.00    +0.057 C 
ATOM     17  C   UNL     1      -6.928  -5.164   1.445  0.00  0.00    +0.006 C 
ATOM     18  C   UNL     1      -6.930  -3.917   0.557  0.00  0.00    +0.005 C 
ATOM     19  C   UNL     1      -5.790  -2.985   0.994  0.00  0.00    +0.035 C 
ATOM     20  N   UNL     1      -3.183  -5.530   1.277  0.00  0.00    -0.158 NA
ATOM     21  N   UNL     1      -2.356  -4.606   1.295  0.00  0.00    -0.174 NA
ENDBRANCH  10  13
ENDBRANCH   6   7
BRANCH   3  22
ATOM     22  N   UNL     1       3.579   2.135  -0.021  0.00  0.00    -0.216 N 
ATOM     23  H   UNL     1       3.705   2.866  -0.645  0.00  0.00    +0.174 HD
BRANCH  22  24
ATOM     24  S   UNL     1       4.772   1.758   1.065  0.00  0.00    +0.072 S 
ATOM     25  O   UNL     1       5.024   0.367   0.924  0.00  0.00    -0.150 OA
ATOM     26  O   UNL     1       5.789   2.737   0.906  0.00  0.00    -0.150 OA
BRANCH  24  27
ATOM     27  C   UNL     1       4.100   1.987   2.677  0.00  0.00    +0.109 A 
ATOM     28  C   UNL     1       4.104   3.242   3.256  0.00  0.00    +0.030 A 
ATOM     29  C   UNL     1       3.577   3.422   4.521  0.00  0.00    +0.022 A 
ATOM     30  C   UNL     1       3.045   2.346   5.208  0.00  0.00    +0.041 A 
ATOM     31  C   UNL     1       3.042   1.089   4.629  0.00  0.00    +0.022 A 
ATOM     32  C   UNL     1       3.564   0.912   3.361  0.00  0.00    +0.030 A 
ATOM     33 CL   UNL     1       2.384   2.571   6.797  0.00  0.00    -0.084 Cl
ENDBRANCH  24  27
ENDBRANCH  22  24
ENDBRANCH   3  22
TORSDOF 5
