REMARK  Name = ZINC42682006
REMARK  7 active torsions:
REMARK  status: ('A' for Active; 'I' for Inactive)
REMARK    1  A    between atoms: C_1  and  C_2
REMARK    2  A    between atoms: C_9  and  C_12
REMARK    3  A    between atoms: N_10  and  C_11
REMARK    4  A    between atoms: C_15  and  C_32
REMARK    5  A    between atoms: C_18  and  C_20
REMARK    6  A    between atoms: N_22  and  C_31
REMARK    7  A    between atoms: C_26  and  C_30
REMARK                            x       y       z     vdW  Elec       q    Type
REMARK                         _______ _______ _______ _____ _____    ______ ____
ROOT
ATOM      1  C   UNL     1       0.479  -6.068   1.649  0.00  0.00    +0.037 C 
ATOM      2  C   UNL     1       0.340  -6.503   2.955  0.00  0.00    -0.044 C 
ATOM      3  C   UNL     1      -0.012  -5.515   4.036  0.00  0.00    +0.043 C 
ATOM      4  C   UNL     1      -0.799  -6.229   5.139  0.00  0.00    +0.028 C 
ATOM      5  C   UNL     1       0.043  -7.387   5.681  0.00  0.00    +0.043 C 
ATOM      6  C   UNL     1       0.393  -8.320   4.550  0.00  0.00    -0.044 C 
ATOM      7  C   UNL     1       0.520  -7.845   3.254  0.00  0.00    +0.007 C 
ENDROOT
BRANCH   6   8
ATOM      8  C   UNL     1       0.585  -9.666   4.808  0.00  0.00    +0.034 C 
ATOM      9  C   UNL     1       0.604 -10.130   6.127  0.00  0.00    +0.073 C 
ATOM     10  N   UNL     1       0.632 -11.395   6.575  0.00  0.00    -0.297 N 
ATOM     11  C   UNL     1       0.647 -11.675   7.909  0.00  0.00    +0.048 A 
ATOM     12  C   UNL     1       0.676 -12.943   8.524  0.00  0.00    +0.025 A 
ATOM     13  C   UNL     1       0.687 -13.061   9.892  0.00  0.00    +0.005 A 
ATOM     14  C   UNL     1       0.671 -11.944  10.713  0.00  0.00    -0.049 A 
ATOM     15  C   UNL     1       0.643 -10.685  10.139  0.00  0.00    +0.020 A 
ATOM     16  C   UNL     1       0.631 -10.562   8.772  0.00  0.00    +0.035 A 
ATOM     17  S   UNL     1       0.604  -9.188   7.646  0.00  0.00    -0.072 S 
ATOM     18  C   UNL     1       0.682 -12.100  12.211  0.00  0.00    +0.044 C 
ATOM     19  C   UNL     1       0.646 -12.497   5.610  0.00  0.00    +0.136 C 
ENDBRANCH   6   8
BRANCH   1  28
ATOM     20  C   UNL     1       1.011   1.584   0.269  0.00  0.00    +0.044 C 
ATOM     21  C   UNL     1       0.897   0.082   0.215  0.00  0.00    -0.049 A 
ATOM     22  C   UNL     1       0.816  -0.571  -1.005  0.00  0.00    +0.005 A 
ATOM     23  C   UNL     1       0.713  -1.938  -1.079  0.00  0.00    +0.027 A 
ATOM     24  C   UNL     1       0.685  -2.724   0.091  0.00  0.00    +0.056 A 
ATOM     25  C   UNL     1       0.770  -2.029   1.313  0.00  0.00    +0.038 A 
ATOM     26  C   UNL     1       0.879  -0.662   1.382  0.00  0.00    +0.020 A 
ATOM     27  S   UNL     1       0.705  -3.334   2.517  0.00  0.00    -0.070 S 
ATOM     28  C   UNL     1       0.573  -4.701   1.373  0.00  0.00    +0.081 A 
ATOM     29  N   UNL     1       0.587  -4.081   0.183  0.00  0.00    -0.338 N 
ATOM     30  C   UNL     1       0.495  -4.878  -1.042  0.00  0.00    +0.150 C 
ENDBRANCH   1  28
BRANCH   4  31
ATOM     31  C   UNL     1      -1.101  -5.258   6.252  0.00  0.00    -0.044 A 
ATOM     32  C   UNL     1      -0.067  -4.635   6.925  0.00  0.00    +0.004 A 
ATOM     33  C   UNL     1      -0.344  -3.745   7.946  0.00  0.00    +0.000 A 
ATOM     34  C   UNL     1      -1.655  -3.478   8.293  0.00  0.00    +0.000 A 
ATOM     35  C   UNL     1      -2.689  -4.101   7.619  0.00  0.00    +0.000 A 
ATOM     36  C   UNL     1      -2.412  -4.987   6.596  0.00  0.00    +0.004 A 
ENDBRANCH   4  31
TORSDOF 3
