REMARK  Name = ZINC43285707
REMARK  9 active torsions:
REMARK  status: ('A' for Active; 'I' for Inactive)
REMARK    1  A    between atoms: C_1  and  C_2
REMARK    2  A    between atoms: C_2  and  N_3
REMARK    3  A    between atoms: N_3  and  C_4
REMARK    4  A    between atoms: N_3  and  C_9
REMARK    5  A    between atoms: C_4  and  C_5
REMARK    6  A    between atoms: N_7  and  C_8
REMARK    7  A    between atoms: C_9  and  C_11
REMARK    8  A    between atoms: C_9  and  C_13
REMARK    9  A    between atoms: C_11  and  N_12
REMARK                            x       y       z     vdW  Elec       q    Type
REMARK                         _______ _______ _______ _____ _____    ______ ____
ROOT
ATOM      1  C   UNL     1      -0.111   0.017  -2.865  0.00  0.00    +0.077 C 
ENDROOT
BRANCH   1   2
ATOM      2  C   UNL     1       1.137   0.245  -3.679  0.00  0.00    +0.006 A 
ATOM      3  C   UNL     1       1.315   1.036  -4.766  0.00  0.00    +0.028 A 
ATOM      4  C   UNL     1       2.563   1.090  -5.358  0.00  0.00    +0.025 A 
ATOM      5  C   UNL     1       3.572   0.350  -4.834  0.00  0.00    +0.060 A 
ATOM      6  S   UNL     1       2.766  -0.451  -3.458  0.00  0.00    -0.099 S 
ATOM      7 BR   UNL     1       2.859   2.179  -6.876  0.00  0.00    -0.050 Br
ENDBRANCH   1   2
BRANCH   1   8
ATOM      8  N   UNL     1       0.219   0.082  -1.435  0.00  0.00    -0.289 NA
BRANCH   8  10
ATOM      9  C   UNL     1      -1.250   1.959  -0.872  0.00  0.00    +0.020 C 
ATOM     10  C   UNL     1      -0.953   0.476  -0.642  0.00  0.00    +0.082 C 
ENDBRANCH   8  10
BRANCH   8  11
ATOM     11  C   UNL     1       0.768  -1.196  -0.964  0.00  0.00    +0.180 C 
BRANCH  11  12
ATOM     12  C   UNL     1       1.519  -0.975   0.324  0.00  0.00    +0.227 C 
ATOM     13  O   UNL     1       1.589   0.137   0.802  0.00  0.00    -0.274 OA
ATOM     14  N   UNL     1       2.112  -2.014   0.945  0.00  0.00    -0.317 N 
ATOM     15  C   UNL     1       2.842  -1.799   2.197  0.00  0.00    +0.128 C 
ATOM     16  H   UNL     1       2.056  -2.904   0.563  0.00  0.00    +0.148 HD
ENDBRANCH  11  12
ENDBRANCH   8  11
ENDBRANCH   1   8
BRANCH   1  17
ATOM     17  C   UNL     1      -0.690  -1.360  -3.194  0.00  0.00    -0.062 C 
BRANCH  17  18
ATOM     18  N   UNL     1      -1.851  -1.621  -2.333  0.00  0.00    +0.379 N 
ATOM     19  H   UNL     1      -1.539  -1.776  -1.385  0.00  0.00    -0.090 HD
ATOM     20  H   UNL     1      -2.473  -0.828  -2.357  0.00  0.00    -0.090 HD
ATOM     21  H   UNL     1      -2.338  -2.441  -2.664  0.00  0.00    -0.090 HD
ENDBRANCH  17  18
ENDBRANCH   1  17
TORSDOF 7
