REMARK  Name = ZINC32737667
REMARK  12 active torsions:
REMARK  status: ('A' for Active; 'I' for Inactive)
REMARK    1  A    between atoms: C_1  and  C_2
REMARK    2  A    between atoms: N_8  and  C_9
REMARK    3  A    between atoms: C_9  and  C_11
REMARK    4  A    between atoms: C_9  and  C_12
REMARK    5  A    between atoms: C_12  and  N_13
REMARK    6  A    between atoms: C_14  and  C_16
REMARK    7  A    between atoms: C_19  and  O_30
REMARK    8  A    between atoms: C_21  and  O_28
REMARK    9  A    between atoms: C_22  and  O_26
REMARK   10  A    between atoms: O_26  and  C_27
REMARK   11  A    between atoms: O_28  and  C_29
REMARK   12  A    between atoms: O_30  and  C_31
REMARK                            x       y       z     vdW  Elec       q    Type
REMARK                         _______ _______ _______ _____ _____    ______ ____
ROOT
ATOM      1  C   UNL     1      -1.900   3.488  -0.749  0.00  0.00    +0.103 A 
ATOM      2  C   UNL     1      -2.163   4.721  -1.258  0.00  0.00    +0.044 A 
ATOM      3  C   UNL     1      -3.014   4.557  -2.374  0.00  0.00    +0.046 A 
ATOM      4  C   UNL     1      -3.604   5.460  -3.277  0.00  0.00    +0.133 A 
ATOM      5  C   UNL     1      -4.408   4.987  -4.292  0.00  0.00    +0.095 A 
ATOM      6  C   UNL     1      -4.640   3.620  -4.427  0.00  0.00    +0.167 A 
ATOM      7  C   UNL     1      -4.066   2.717  -3.546  0.00  0.00    +0.186 A 
ATOM      8  C   UNL     1      -3.250   3.175  -2.514  0.00  0.00    +0.096 A 
ATOM      9  N   UNL     1      -2.554   2.536  -1.512  0.00  0.00    -0.348 N 
ATOM     10  H   UNL     1      -2.528   1.577  -1.364  0.00  0.00    +0.166 HD
ENDROOT
BRANCH   1  12
ATOM     11  N   UNL     1      -0.779   1.937   0.763  0.00  0.00    -0.312 N 
ATOM     12  C   UNL     1      -1.054   3.210   0.417  0.00  0.00    +0.260 C 
ATOM     13  O   UNL     1      -0.600   4.130   1.073  0.00  0.00    -0.269 OA
ATOM     14  H   UNL     1      -1.080   1.206   0.201  0.00  0.00    +0.149 HD
BRANCH  11  15
ATOM     15  C   UNL     1      -0.026   1.656   1.988  0.00  0.00    +0.089 C 
BRANCH  15  16
ATOM     16  C   UNL     1       0.045   0.144   2.208  0.00  0.00    -0.054 C 
ATOM     17  C   UNL     1       0.910  -0.153   3.434  0.00  0.00    -0.012 C 
BRANCH  16  24
ATOM     18  C   UNL     1      -0.820  -2.417   1.446  0.00  0.00    -0.013 C 
ATOM     19  C   UNL     1       0.617  -1.953   1.197  0.00  0.00    -0.071 C 
ATOM     20  C   UNL     1       1.157  -2.626  -0.067  0.00  0.00    -0.016 C 
ATOM     21  C   UNL     1       2.595  -2.159  -0.312  0.00  0.00    -0.003 C 
ATOM     22  C   UNL     1       2.615  -0.631  -0.415  0.00  0.00    -0.019 C 
ATOM     23  C   UNL     1       2.020  -0.032   0.862  0.00  0.00    -0.078 C 
ATOM     24  N   UNL     1       0.637  -0.495   1.025  0.00  0.00    +0.384 N 
ATOM     25  H   UNL     1       0.101  -0.247   0.207  0.00  0.00    -0.081 HD
ENDBRANCH  16  24
ENDBRANCH  15  16
ENDBRANCH  11  15
ENDBRANCH   1  12
BRANCH   7  26
ATOM     26  O   UNL     1      -4.301   1.384  -3.688  0.00  0.00    -0.490 OA
ATOM     27  C   UNL     1      -3.397   0.651  -4.517  0.00  0.00    +0.277 C 
ENDBRANCH   7  26
BRANCH   6  28
ATOM     28  O   UNL     1      -5.436   3.168  -5.432  0.00  0.00    -0.491 OA
ATOM     29  C   UNL     1      -5.998   4.149  -6.306  0.00  0.00    +0.277 C 
ENDBRANCH   6  28
BRANCH   4  30
ATOM     30  O   UNL     1      -3.381   6.795  -3.150  0.00  0.00    -0.494 OA
ATOM     31  C   UNL     1      -4.013   7.652  -4.103  0.00  0.00    +0.277 C 
ENDBRANCH   4  30
TORSDOF 7
