REMARK  Name = ZINC63426968
REMARK  10 active torsions:
REMARK  status: ('A' for Active; 'I' for Inactive)
REMARK    1  A    between atoms: C_1  and  C_2
REMARK    2  A    between atoms: C_6  and  C_33
REMARK    3  A    between atoms: C_7  and  N_8
REMARK    4  A    between atoms: C_9  and  C_11
REMARK    5  A    between atoms: C_11  and  S_12
REMARK    6  A    between atoms: S_12  and  C_13
REMARK    7  A    between atoms: C_17  and  C_23
REMARK    8  A    between atoms: N_19  and  C_20
REMARK    9  A    between atoms: C_20  and  C_21
REMARK   10  A    between atoms: C_23  and  C_24
REMARK                            x       y       z     vdW  Elec       q    Type
REMARK                         _______ _______ _______ _____ _____    ______ ____
ROOT
ATOM      1  C   UNL     1      -0.333   0.115   7.700  0.00  0.00    +0.200 C 
ATOM      2  N   UNL     1      -1.458   1.069   7.572  0.00  0.00    -0.229 NA
ATOM      3  N   UNL     1      -0.846   2.287   7.016  0.00  0.00    -0.237 NA
ATOM      4  C   UNL     1       0.472   2.342   7.702  0.00  0.00    +0.145 C 
ATOM      5  N   UNL     1       0.900   0.926   7.785  0.00  0.00    -0.257 NA
ATOM      6  H   UNL     1      -2.169   0.708   6.954  0.00  0.00    +0.143 HD
ATOM      7  H   UNL     1      -0.730   2.210   6.017  0.00  0.00    +0.142 HD
ENDROOT
BRANCH   1   8
ATOM      8  S   UNL     1      -0.266  -0.967   6.246  0.00  0.00    -0.116 S 
BRANCH   8   9
ATOM      9  C   UNL     1      -0.092   0.181   4.852  0.00  0.00    +0.168 C 
BRANCH   9  11
ATOM     10  N   UNL     1       0.107   0.050   2.390  0.00  0.00    -0.284 N 
ATOM     11  C   UNL     1      -0.024  -0.598   3.564  0.00  0.00    +0.227 C 
ATOM     12  O   UNL     1      -0.086  -1.810   3.585  0.00  0.00    -0.275 OA
ATOM     13  H   UNL     1       0.223   1.013   2.378  0.00  0.00    +0.155 HD
BRANCH  10  20
ATOM     14  C   UNL     1       2.558  -0.356   1.002  0.00  0.00    +0.045 C 
ATOM     15  C   UNL     1       1.248  -0.887   0.479  0.00  0.00    -0.029 A 
ATOM     16  C   UNL     1       1.214  -1.599  -0.704  0.00  0.00    +0.005 A 
ATOM     17  C   UNL     1       0.013  -2.087  -1.185  0.00  0.00    +0.001 A 
ATOM     18  C   UNL     1      -1.158  -1.863  -0.484  0.00  0.00    +0.005 A 
ATOM     19  C   UNL     1      -1.131  -1.152   0.700  0.00  0.00    -0.029 A 
ATOM     20  C   UNL     1       0.075  -0.666   1.188  0.00  0.00    +0.039 A 
ATOM     21  C   UNL     1      -2.407  -0.908   1.463  0.00  0.00    +0.045 C 
ENDBRANCH  10  20
ENDBRANCH   9  11
ENDBRANCH   8   9
ENDBRANCH   1   8
BRANCH   5  22
ATOM     22  C   UNL     1       1.616   0.664   9.041  0.00  0.00    +0.115 C 
BRANCH  22  23
ATOM     23  C   UNL     1       2.200  -0.725   9.006  0.00  0.00    -0.019 C 
ATOM     24  C   UNL     1       3.482  -0.901   9.212  0.00  0.00    +0.005 C 
ENDBRANCH  22  23
ENDBRANCH   5  22
BRANCH   4  25
ATOM     25  C   UNL     1       1.470   3.159   6.878  0.00  0.00    +0.069 C 
BRANCH  25  26
ATOM     26  C   UNL     1       1.028   4.599   6.837  0.00  0.00    -0.039 C 
ATOM     27  C   UNL     1       1.440   5.599   7.649  0.00  0.00    -0.001 A 
ATOM     28  C   UNL     1       2.386   5.643   8.771  0.00  0.00    +0.010 A 
ATOM     29  C   UNL     1       2.596   6.819   9.406  0.00  0.00    +0.001 A 
ATOM     30  C   UNL     1       1.935   7.993   9.021  0.00  0.00    +0.002 A 
ATOM     31  C   UNL     1       1.052   8.032   8.000  0.00  0.00    +0.026 A 
ATOM     32  C   UNL     1       0.755   6.853   7.262  0.00  0.00    +0.043 A 
ATOM     33  N   UNL     1      -0.049   6.636   6.249  0.00  0.00    -0.380 N 
ATOM     34  C   UNL     1       0.040   5.220   5.876  0.00  0.00    +0.144 C 
ATOM     35  H   UNL     1      -0.606   7.302   5.816  0.00  0.00    +0.160 HD
ENDBRANCH  25  26
ENDBRANCH   4  25
TORSDOF 8
