REMARK  Name = ZINC14546294
REMARK  7 active torsions:
REMARK  status: ('A' for Active; 'I' for Inactive)
REMARK    1  A    between atoms: C_1  and  C_2
REMARK    2  A    between atoms: C_2  and  C_4
REMARK    3  A    between atoms: C_4  and  O_5
REMARK    4  A    between atoms: O_5  and  C_6
REMARK    5  A    between atoms: C_13  and  C_22
REMARK    6  A    between atoms: C_27  and  O_28
REMARK    7  A    between atoms: O_28  and  C_29
REMARK                            x       y       z     vdW  Elec       q    Type
REMARK                         _______ _______ _______ _____ _____    ______ ____
ROOT
ATOM      1  C   UNL     1      -0.863   3.451   2.626  0.00  0.00    +0.142 A 
ATOM      2  C   UNL     1      -0.961   4.822   2.784  0.00  0.00    +0.047 A 
ATOM      3  C   UNL     1      -0.969   5.641   1.670  0.00  0.00    +0.004 A 
ATOM      4  C   UNL     1      -0.880   5.093   0.408  0.00  0.00    +0.006 A 
ATOM      5  C   UNL     1      -0.782   3.717   0.236  0.00  0.00    -0.016 A 
ATOM      6  C   UNL     1      -0.773   2.894   1.346  0.00  0.00    +0.074 A 
ATOM      7  N   UNL     1      -0.678   1.504   1.242  0.00  0.00    -0.334 N 
ATOM      8  C   UNL     1      -0.013   1.086   0.008  0.00  0.00    +0.109 C 
ATOM      9  C   UNL     1      -0.773   1.647  -1.196  0.00  0.00    +0.029 C 
ATOM     10  C   UNL     1      -0.689   3.188  -1.165  0.00  0.00    +0.049 C 
ATOM     11  C   UNL     1       0.665   3.495  -1.763  0.00  0.00    -0.023 C 
ATOM     12  C   UNL     1       1.089   2.485  -2.480  0.00  0.00    -0.030 C 
ATOM     13  C   UNL     1       0.071   1.361  -2.469  0.00  0.00    +0.033 C 
ATOM     14  H   UNL     1      -0.220   1.112   2.051  0.00  0.00    +0.147 HD
ENDROOT
BRANCH   8  15
ATOM     15  C   UNL     1       1.401   1.608  -0.003  0.00  0.00    +0.015 A 
ATOM     16  C   UNL     1       1.717   2.763   0.686  0.00  0.00    +0.009 A 
ATOM     17  C   UNL     1       3.014   3.242   0.678  0.00  0.00    +0.001 A 
ATOM     18  C   UNL     1       3.998   2.566  -0.021  0.00  0.00    +0.004 A 
ATOM     19  C   UNL     1       3.687   1.411  -0.711  0.00  0.00    +0.046 A 
ATOM     20  C   UNL     1       2.388   0.925  -0.699  0.00  0.00    +0.125 A 
BRANCH  20  21
ATOM     21  O   UNL     1       2.081  -0.214  -1.373  0.00  0.00    -0.495 OA
ATOM     22  C   UNL     1       3.147  -0.864  -2.068  0.00  0.00    +0.277 C 
ENDBRANCH  20  21
ENDBRANCH   8  15
BRANCH   1  23
ATOM     23  O   UNL     1      -0.854   2.642   3.719  0.00  0.00    -0.486 OA
BRANCH  23  24
ATOM     24  C   UNL     1      -0.949   3.276   4.996  0.00  0.00    +0.259 C 
BRANCH  24  26
ATOM     25  C   UNL     1      -1.010   2.640   7.527  0.00  0.00    +0.042 C 
ATOM     26  C   UNL     1      -0.923   2.229   6.080  0.00  0.00    -0.043 C 
ATOM     27  C   UNL     1      -0.825   0.962   5.763  0.00  0.00    +0.011 C 
ENDBRANCH  24  26
ENDBRANCH  23  24
ENDBRANCH   1  23
TORSDOF 5
