REMARK  Name = ZINC20236175
REMARK  13 active torsions:
REMARK  status: ('A' for Active; 'I' for Inactive)
REMARK    1  A    between atoms: C_1  and  C_2
REMARK    2  A    between atoms: C_9  and  C_10
REMARK    3  A    between atoms: C_12  and  O_32
REMARK    4  A    between atoms: C_13  and  O_17
REMARK    5  A    between atoms: O_17  and  C_18
REMARK    6  A    between atoms: C_18  and  C_19
REMARK    7  A    between atoms: C_19  and  O_20
REMARK    8  A    between atoms: O_20  and  C_21
REMARK    9  A    between atoms: C_24  and  C_29
REMARK   10  A    between atoms: C_26  and  O_27
REMARK   11  A    between atoms: O_27  and  C_28
REMARK   12  A    between atoms: C_29  and  C_30
REMARK   13  A    between atoms: O_32  and  C_33
REMARK                            x       y       z     vdW  Elec       q    Type
REMARK                         _______ _______ _______ _____ _____    ______ ____
ROOT
ATOM      1  C   UNL     1       0.532  -6.679   1.277  0.00  0.00    -0.019 A 
ATOM      2  C   UNL     1       1.134  -7.766   1.927  0.00  0.00    +0.057 A 
ATOM      3  C   UNL     1       0.354  -8.801   2.401  0.00  0.00    +0.164 A 
ATOM      4  C   UNL     1      -1.031  -8.765   2.233  0.00  0.00    +0.180 A 
ATOM      5  C   UNL     1      -1.630  -7.689   1.588  0.00  0.00    +0.087 A 
ATOM      6  C   UNL     1      -0.860  -6.648   1.117  0.00  0.00    +0.032 A 
ATOM      7 CL   UNL     1      -3.354  -7.654   1.383  0.00  0.00    -0.080 Cl
ENDROOT
BRANCH   1  16
ATOM      8  C   UNL     1      -0.282   0.182  -3.321  0.00  0.00    +0.089 C 
ATOM      9  C   UNL     1      -0.047  -1.179  -2.718  0.00  0.00    +0.134 C 
ATOM     10  C   UNL     1      -0.797  -2.278  -2.952  0.00  0.00    +0.091 C 
ATOM     11  C   UNL     1      -0.260  -3.345  -2.220  0.00  0.00    +0.168 C 
ATOM     12  N   UNL     1      -0.692  -4.601  -2.111  0.00  0.00    -0.156 NA
ATOM     13  C   UNL     1      -0.063  -5.454  -1.290  0.00  0.00    +0.273 C 
ATOM     14  O   UNL     1      -0.369  -6.636  -1.274  0.00  0.00    -0.268 OA
ATOM     15  C   UNL     1       1.011  -4.944  -0.401  0.00  0.00    +0.084 C 
ATOM     16  C   UNL     1       1.355  -5.578   0.771  0.00  0.00    +0.025 C 
ATOM     17  C   UNL     1       1.696  -3.697  -0.862  0.00  0.00    +0.176 C 
ATOM     18  N   UNL     1       2.947  -3.422  -0.603  0.00  0.00    -0.280 NA
ATOM     19  N   UNL     1       0.861  -2.863  -1.593  0.00  0.00    -0.142 N 
ATOM     20  O   UNL     1       0.945  -1.491  -1.867  0.00  0.00    -0.375 OA
ATOM     21  H   UNL     1       3.483  -4.043  -0.086  0.00  0.00    +0.188 HD
ENDBRANCH   1  16
BRANCH   3  22
ATOM     22  O   UNL     1       0.935  -9.856   3.032  0.00  0.00    -0.491 OA
ATOM     23  C   UNL     1       2.357  -9.827   3.169  0.00  0.00    +0.277 C 
ENDBRANCH   3  22
BRANCH   4  24
ATOM     24  O   UNL     1      -1.796  -9.785   2.700  0.00  0.00    -0.483 OA
BRANCH  24  25
ATOM     25  C   UNL     1      -2.281  -9.671   4.039  0.00  0.00    +0.270 C 
BRANCH  25  26
ATOM     26  C   UNL     1      -3.117 -10.905   4.386  0.00  0.00    +0.270 C 
BRANCH  26  27
ATOM     27  O   UNL     1      -2.279 -12.063   4.385  0.00  0.00    -0.485 OA
BRANCH  27  28
ATOM     28  C   UNL     1      -2.870 -13.253   4.676  0.00  0.00    +0.162 A 
ATOM     29  C   UNL     1      -4.227 -13.305   4.950  0.00  0.00    +0.050 A 
ATOM     30  C   UNL     1      -4.827 -14.515   5.246  0.00  0.00    +0.008 A 
ATOM     31  C   UNL     1      -4.075 -15.675   5.268  0.00  0.00    -0.040 A 
ATOM     32  C   UNL     1      -2.720 -15.630   4.995  0.00  0.00    +0.053 A 
ATOM     33  C   UNL     1      -2.115 -14.421   4.693  0.00  0.00    +0.162 A 
BRANCH  33  34
ATOM     34  O   UNL     1      -0.783 -14.376   4.418  0.00  0.00    -0.491 OA
ATOM     35  C   UNL     1      -0.071 -15.614   4.454  0.00  0.00    +0.277 C 
ENDBRANCH  33  34
BRANCH  31  36
ATOM     36  C   UNL     1      -4.733 -16.992   5.591  0.00  0.00    +0.061 C 
BRANCH  36  37
ATOM     37  C   UNL     1      -5.224 -17.633   4.319  0.00  0.00    -0.030 C 
ATOM     38  C   UNL     1      -4.847 -18.849   4.010  0.00  0.00    +0.004 C 
ENDBRANCH  36  37
ENDBRANCH  31  36
ENDBRANCH  27  28
ENDBRANCH  26  27
ENDBRANCH  25  26
ENDBRANCH  24  25
ENDBRANCH   4  24
TORSDOF 10
