REMARK  Name = ZINC62001473
REMARK  7 active torsions:
REMARK  status: ('A' for Active; 'I' for Inactive)
REMARK    1  A    between atoms: C_1  and  O_2
REMARK    2  A    between atoms: O_2  and  C_3
REMARK    3  A    between atoms: C_5  and  C_13
REMARK    4  A    between atoms: C_7  and  O_11
REMARK    5  A    between atoms: C_8  and  O_9
REMARK    6  A    between atoms: O_9  and  C_10
REMARK    7  A    between atoms: O_11  and  C_12
REMARK                            x       y       z     vdW  Elec       q    Type
REMARK                         _______ _______ _______ _____ _____    ______ ____
ROOT
ATOM      1  C   UNL     1      -4.871   0.264   0.038  0.00  0.00    -0.021 C 
ATOM      2  C   UNL     1      -5.467   0.322  -1.371  0.00  0.00    +0.064 C 
ATOM      3  C   UNL     1      -6.870  -0.296  -1.266  0.00  0.00    +0.000 C 
ATOM      4  C   UNL     1      -7.193  -0.153   0.245  0.00  0.00    -0.080 C 
ATOM      5  N   UNL     1      -5.881  -0.394   0.901  0.00  0.00    +0.385 N 
ATOM      6  C   UNL     1      -5.526   1.730  -1.890  0.00  0.00    -0.013 A 
ATOM      7  C   UNL     1      -6.140   2.880  -1.446  0.00  0.00    +0.006 A 
ATOM      8  C   UNL     1      -6.005   4.057  -2.159  0.00  0.00    +0.000 A 
ATOM      9  C   UNL     1      -5.252   4.077  -3.319  0.00  0.00    +0.002 A 
ATOM     10  C   UNL     1      -4.636   2.928  -3.769  0.00  0.00    +0.023 A 
ATOM     11  C   UNL     1      -4.767   1.738  -3.057  0.00  0.00    +0.038 A 
ATOM     12  N   UNL     1      -4.249   0.464  -3.304  0.00  0.00    -0.285 N 
ATOM     13  C   UNL     1      -4.615  -0.425  -2.361  0.00  0.00    +0.226 C 
ATOM     14  O   UNL     1      -4.315  -1.599  -2.318  0.00  0.00    -0.275 OA
ATOM     15  H   UNL     1      -5.697  -1.384   0.959  0.00  0.00    -0.085 HD
ATOM     16  H   UNL     1      -3.691   0.246  -4.067  0.00  0.00    +0.155 HD
ATOM     17  H   UNL     1      -5.871   0.018   1.823  0.00  0.00    -0.085 HD
ENDROOT
BRANCH   1  20
ATOM     18  C   UNL     1      -1.201  -0.638   0.010  0.00  0.00    +0.165 A 
ATOM     19  C   UNL     1      -2.375   0.101   0.019  0.00  0.00    +0.051 A 
ATOM     20  C   UNL     1      -3.598  -0.543   0.028  0.00  0.00    -0.053 A 
ATOM     21  C   UNL     1      -3.657  -1.924   0.027  0.00  0.00    +0.051 A 
ATOM     22  C   UNL     1      -2.488  -2.670   0.017  0.00  0.00    +0.165 A 
ATOM     23  C   UNL     1      -1.256  -2.027   0.003  0.00  0.00    +0.204 A 
BRANCH  18  25
ATOM     24  C   UNL     1      -0.017   1.425   0.010  0.00  0.00    +0.277 C 
ATOM     25  O   UNL     1       0.002  -0.004   0.002  0.00  0.00    -0.491 OA
ENDBRANCH  18  25
BRANCH  23  26
ATOM     26  O   UNL     1      -0.106  -2.755  -0.012  0.00  0.00    -0.488 OA
ATOM     27  C   UNL     1       0.454  -3.109   1.254  0.00  0.00    +0.277 C 
ENDBRANCH  23  26
BRANCH  22  28
ATOM     28  O   UNL     1      -2.547  -4.028   0.017  0.00  0.00    -0.491 OA
ATOM     29  C   UNL     1      -3.847  -4.621   0.026  0.00  0.00    +0.277 C 
ENDBRANCH  22  28
ENDBRANCH   1  20
TORSDOF 4
