REMARK  Name = ZINC63162922
REMARK  6 active torsions:
REMARK  status: ('A' for Active; 'I' for Inactive)
REMARK    1  A    between atoms: C_4  and  C_7
REMARK    2  A    between atoms: C_11  and  S_20
REMARK    3  A    between atoms: N_13  and  C_14
REMARK    4  A    between atoms: C_14  and  C_15
REMARK    5  A    between atoms: S_20  and  C_21
REMARK    6  A    between atoms: C_21  and  C_22
REMARK                            x       y       z     vdW  Elec       q    Type
REMARK                         _______ _______ _______ _____ _____    ______ ____
ROOT
ATOM      1  C   UNL     1       3.650  -0.739   0.025  0.00  0.00    +0.172 C 
ATOM      2  N   UNL     1       4.573   0.191  -0.666  0.00  0.00    -0.233 NA
ATOM      3  N   UNL     1       5.508  -0.688  -1.386  0.00  0.00    -0.229 NA
ATOM      4  C   UNL     1       4.636  -1.799  -1.849  0.00  0.00    +0.200 C 
ATOM      5  N   UNL     1       3.688  -2.009  -0.729  0.00  0.00    -0.250 NA
ATOM      6  H   UNL     1       5.062   0.774  -0.004  0.00  0.00    +0.143 HD
ATOM      7  H   UNL     1       6.231  -1.029  -0.771  0.00  0.00    +0.143 HD
ENDROOT
BRANCH   1  11
ATOM      8  C   UNL     1      -0.313   0.854   0.010  0.00  0.00    +0.000 A 
ATOM      9  C   UNL     1       0.774   1.706   0.060  0.00  0.00    +0.000 A 
ATOM     10  C   UNL     1       2.057   1.191   0.066  0.00  0.00    +0.006 A 
ATOM     11  C   UNL     1       2.252  -0.177   0.021  0.00  0.00    -0.015 A 
ATOM     12  C   UNL     1       1.165  -1.029  -0.029  0.00  0.00    +0.006 A 
ATOM     13  C   UNL     1      -0.118  -0.513  -0.036  0.00  0.00    +0.000 A 
ENDBRANCH   1  11
BRANCH   5  14
ATOM     14  C   UNL     1       4.124  -3.118   0.130  0.00  0.00    +0.163 C 
BRANCH  14  15
ATOM     15  C   UNL     1       3.099  -3.351   1.209  0.00  0.00    +0.119 A 
ATOM     16  C   UNL     1       2.094  -4.245   1.160  0.00  0.00    +0.046 A 
ATOM     17  C   UNL     1       1.382  -4.127   2.376  0.00  0.00    +0.041 A 
ATOM     18  C   UNL     1       1.993  -3.168   3.095  0.00  0.00    +0.195 A 
ATOM     19  O   UNL     1       3.036  -2.706   2.386  0.00  0.00    -0.467 OA
ENDBRANCH  14  15
ENDBRANCH   5  14
BRANCH   4  20
ATOM     20  S   UNL     1       5.617  -3.296  -2.143  0.00  0.00    -0.121 S 
BRANCH  20  21
ATOM     21  C   UNL     1       6.497  -2.947  -3.691  0.00  0.00    +0.118 C 
BRANCH  21  22
ATOM     22  C   UNL     1       7.466  -4.091  -3.995  0.00  0.00    +0.184 C 
ATOM     23  N   UNL     1       6.725  -5.346  -4.169  0.00  0.00    -0.363 N 
ATOM     24  C   UNL     1       7.143  -6.176  -3.257  0.00  0.00    +0.060 A 
ATOM     25  C   UNL     1       6.785  -7.563  -2.929  0.00  0.00    +0.027 A 
ATOM     26  C   UNL     1       7.401  -8.184  -1.903  0.00  0.00    +0.002 A 
ATOM     27  C   UNL     1       8.386  -7.557  -1.120  0.00  0.00    +0.002 A 
ATOM     28  C   UNL     1       8.788  -6.289  -1.335  0.00  0.00    +0.027 A 
ATOM     29  C   UNL     1       8.186  -5.513  -2.428  0.00  0.00    +0.060 A 
ATOM     30  N   UNL     1       8.373  -4.299  -2.859  0.00  0.00    -0.363 N 
ATOM     31  H   UNL     1       6.048  -5.525  -4.840  0.00  0.00    +0.162 HD
ATOM     32  H   UNL     1       8.997  -3.651  -2.497  0.00  0.00    +0.162 HD
ENDBRANCH  21  22
ENDBRANCH  20  21
ENDBRANCH   4  20
TORSDOF 6
