REMARK  Name = ZINC38917481
REMARK  11 active torsions:
REMARK  status: ('A' for Active; 'I' for Inactive)
REMARK    1  A    between atoms: C_1  and  C_2
REMARK    2  A    between atoms: C_5  and  N_9
REMARK    3  A    between atoms: C_6  and  C_8
REMARK    4  A    between atoms: N_9  and  C_10
REMARK    5  A    between atoms: C_10  and  C_11
REMARK    6  A    between atoms: C_17  and  C_23
REMARK    7  A    between atoms: C_24  and  C_26
REMARK    8  A    between atoms: C_29  and  C_32
REMARK    9  A    between atoms: C_32  and  C_33
REMARK   10  A    between atoms: C_32  and  C_34
REMARK   11  A    between atoms: C_32  and  C_35
REMARK                            x       y       z     vdW  Elec       q    Type
REMARK                         _______ _______ _______ _____ _____    ______ ____
ROOT
ATOM      1  N   UNL     1       0.098  -4.190  -0.266  0.00  0.00    -0.266 N 
ATOM      2  C   UNL     1      -1.079  -4.811  -0.052  0.00  0.00    +0.251 C 
ATOM      3  O   UNL     1      -1.142  -6.024  -0.091  0.00  0.00    -0.270 OA
ENDROOT
BRANCH   1   8
ATOM      4  C   UNL     1       0.334   1.477  -0.386  0.00  0.00    +0.044 C 
ATOM      5  C   UNL     1       0.271  -0.029  -0.354  0.00  0.00    -0.050 A 
ATOM      6  C   UNL     1       0.722  -0.715   0.759  0.00  0.00    +0.005 A 
ATOM      7  C   UNL     1       0.666  -2.094   0.792  0.00  0.00    +0.024 A 
ATOM      8  C   UNL     1       0.156  -2.793  -0.295  0.00  0.00    +0.040 A 
ATOM      9  C   UNL     1      -0.296  -2.101  -1.411  0.00  0.00    -0.029 A 
ATOM     10  C   UNL     1      -0.242  -0.721  -1.435  0.00  0.00    +0.008 A 
ATOM     11  C   UNL     1      -0.851  -2.855  -2.593  0.00  0.00    +0.045 C 
ENDBRANCH   1   8
BRANCH   2  12
ATOM     12  C   UNL     1      -2.294  -4.017   0.229  0.00  0.00    +0.037 A 
ATOM     13  C   UNL     1      -3.518  -4.386  -0.331  0.00  0.00    +0.013 A 
ATOM     14  C   UNL     1      -4.648  -3.641  -0.064  0.00  0.00    +0.005 A 
ATOM     15  C   UNL     1      -4.569  -2.529   0.756  0.00  0.00    -0.042 A 
ATOM     16  C   UNL     1      -3.359  -2.158   1.314  0.00  0.00    +0.005 A 
ATOM     17  C   UNL     1      -2.223  -2.897   1.060  0.00  0.00    +0.013 A 
BRANCH  15  18
ATOM     18  C   UNL     1      -5.808  -1.720   1.043  0.00  0.00    -0.013 C 
ATOM     19  C   UNL     1      -6.853  -2.608   1.720  0.00  0.00    +0.015 C 
ATOM     20  C   UNL     1      -5.452  -0.554   1.968  0.00  0.00    +0.015 C 
ATOM     21  C   UNL     1      -6.375  -1.174  -0.270  0.00  0.00    +0.015 C 
ENDBRANCH  15  18
ENDBRANCH   2  12
BRANCH   1  22
ATOM     22  C   UNL     1       1.316  -4.978  -0.467  0.00  0.00    +0.131 C 
BRANCH  22  23
ATOM     23  C   UNL     1       2.066  -5.105   0.861  0.00  0.00    +0.116 C 
ATOM     24  C   UNL     1       3.462  -5.615   0.559  0.00  0.00    -0.003 C 
ATOM     25  C   UNL     1       3.844  -6.779   1.157  0.00  0.00    -0.007 A 
ATOM     26  C   UNL     1       5.174  -7.343   0.921  0.00  0.00    +0.010 A 
ATOM     27  C   UNL     1       5.511  -8.505   1.537  0.00  0.00    +0.004 A 
ATOM     28  C   UNL     1       4.619  -9.164   2.383  0.00  0.00    -0.049 A 
ATOM     29  C   UNL     1       3.372  -8.694   2.643  0.00  0.00    +0.027 A 
ATOM     30  C   UNL     1       2.923  -7.496   2.056  0.00  0.00    +0.041 A 
ATOM     31  N   UNL     1       1.698  -7.043   2.318  0.00  0.00    -0.284 N 
ATOM     32  C   UNL     1       1.213  -5.929   1.799  0.00  0.00    +0.226 C 
ATOM     33  O   UNL     1       0.085  -5.567   2.075  0.00  0.00    -0.275 OA
ATOM     34  C   UNL     1       5.057 -10.450   3.035  0.00  0.00    +0.044 C 
ATOM     35  H   UNL     1       1.134  -7.557   2.918  0.00  0.00    +0.155 HD
ENDBRANCH  22  23
ENDBRANCH   1  22
TORSDOF 5
