REMARK  Name = ZINC05292473
REMARK  3 active torsions:
REMARK  status: ('A' for Active; 'I' for Inactive)
REMARK    1  A    between atoms: C_5  and  C_6
REMARK    2  A    between atoms: C_6  and  C_8
REMARK    3  A    between atoms: C_8  and  N_9
REMARK                            x       y       z     vdW  Elec       q    Type
REMARK                         _______ _______ _______ _____ _____    ______ ____
ROOT
ATOM      1  N   UNL     1       6.086   1.412  -0.049  0.00  0.00    -0.217 N 
ATOM      2  C   UNL     1       6.763   1.768   1.062  0.00  0.00    +0.247 C 
ATOM      3  O   UNL     1       6.436   1.577   2.214  0.00  0.00    -0.273 OA
ATOM      4  C   UNL     1       8.017   2.454   0.570  0.00  0.00    +0.113 C 
ATOM      5  C   UNL     1       9.255   1.693   1.031  0.00  0.00    +0.035 C 
ATOM      6  C   UNL     1      10.511   2.387   0.499  0.00  0.00    +0.003 C 
ATOM      7  C   UNL     1      10.555   3.827   1.015  0.00  0.00    +0.000 C 
ATOM      8  C   UNL     1       9.319   4.583   0.523  0.00  0.00    +0.003 C 
ATOM      9  C   UNL     1       8.057   3.898   1.056  0.00  0.00    +0.035 C 
ATOM     10  N   UNL     1       7.898   2.405  -0.893  0.00  0.00    -0.285 N 
ATOM     11  C   UNL     1       6.739   1.773  -1.160  0.00  0.00    +0.310 C 
ATOM     12  O   UNL     1       6.331   1.556  -2.285  0.00  0.00    -0.252 OA
ATOM     13  H   UNL     1       8.530   2.756  -1.539  0.00  0.00    +0.151 HD
ENDROOT
BRANCH   1  14
ATOM     14  C   UNL     1       4.799   0.713  -0.041  0.00  0.00    +0.198 C 
BRANCH  14  15
ATOM     15  C   UNL     1       3.679   1.722  -0.024  0.00  0.00    +0.187 C 
ATOM     16  O   UNL     1       3.932   2.910  -0.019  0.00  0.00    -0.290 OA
BRANCH  15  21
ATOM     17  C   UNL     1       1.169   2.043   0.002  0.00  0.00    +0.020 A 
ATOM     18  C   UNL     1      -0.016   1.358   0.009  0.00  0.00    +0.023 A 
ATOM     19  C   UNL     1       0.002  -0.004   0.002  0.00  0.00    +0.056 A 
ATOM     20  S   UNL     1       1.695  -0.378  -0.016  0.00  0.00    -0.078 S 
ATOM     21  C   UNL     1       2.337   1.286  -0.013  0.00  0.00    +0.057 A 
ATOM     22 BR   UNL     1      -1.464  -1.198   0.009  0.00  0.00    -0.043 Br
ENDBRANCH  15  21
ENDBRANCH  14  15
ENDBRANCH   1  14
TORSDOF 3
