REMARK  Name = ZINC19831785
REMARK  5 active torsions:
REMARK  status: ('A' for Active; 'I' for Inactive)
REMARK    1  A    between atoms: C_4  and  C_7
REMARK    2  A    between atoms: C_8  and  C_9
REMARK    3  A    between atoms: C_9  and  N_10
REMARK    4  A    between atoms: N_13  and  C_16
REMARK    5  A    between atoms: C_16  and  C_17
REMARK                            x       y       z     vdW  Elec       q    Type
REMARK                         _______ _______ _______ _____ _____    ______ ____
ROOT
ATOM      1  N   UNL     1       2.120   1.409   1.124  0.00  0.00    +0.384 N 
ATOM      2  C   UNL     1       1.508   1.773   2.410  0.00  0.00    -0.063 C 
ATOM      3  C   UNL     1       2.370   1.230   3.553  0.00  0.00    +0.066 C 
ATOM      4  N   UNL     1       3.727   1.782   3.444  0.00  0.00    -0.302 NA
ATOM      5  C   UNL     1       4.339   1.419   2.158  0.00  0.00    +0.066 C 
ATOM      6  C   UNL     1       3.478   1.961   1.015  0.00  0.00    -0.063 C 
ATOM      7  H   UNL     1       2.195   0.312   1.081  0.00  0.00    -0.081 HD
ENDROOT
BRANCH   1   8
ATOM      8  C   UNL     1       1.282   1.847  -0.000  0.00  0.00    -0.051 C 
BRANCH   8  10
ATOM      9  C   UNL     1      -1.169   1.723   0.017  0.00  0.00    +0.002 C 
ATOM     10  C   UNL     1      -0.013   1.076   0.008  0.00  0.00    -0.045 C 
BRANCH   9  14
ATOM     11  C   UNL     1      -4.819  -0.450   0.022  0.00  0.00    +0.000 A 
ATOM     12  C   UNL     1      -4.841   0.933   0.030  0.00  0.00    +0.001 A 
ATOM     13  C   UNL     1      -3.659   1.645   0.028  0.00  0.00    +0.008 A 
ATOM     14  C   UNL     1      -2.439   0.967   0.019  0.00  0.00    -0.025 A 
ATOM     15  C   UNL     1      -2.424  -0.429   0.005  0.00  0.00    +0.008 A 
ATOM     16  C   UNL     1      -3.613  -1.129   0.013  0.00  0.00    +0.001 A 
ENDBRANCH   9  14
ENDBRANCH   8  10
ENDBRANCH   1   8
BRANCH   4  17
ATOM     17  C   UNL     1       4.565   1.344   4.568  0.00  0.00    +0.121 C 
BRANCH  17  18
ATOM     18  C   UNL     1       3.803   1.510   5.857  0.00  0.00    -0.014 A 
ATOM     19  C   UNL     1       3.280   0.402   6.498  0.00  0.00    +0.006 A 
ATOM     20  C   UNL     1       2.580   0.552   7.681  0.00  0.00    +0.002 A 
ATOM     21  C   UNL     1       2.402   1.811   8.223  0.00  0.00    +0.021 A 
ATOM     22  C   UNL     1       2.924   2.921   7.584  0.00  0.00    +0.060 A 
ATOM     23  C   UNL     1       3.631   2.769   6.402  0.00  0.00    +0.064 A 
ATOM     24 CL   UNL     1       4.293   4.160   5.602  0.00  0.00    -0.082 Cl
ATOM     25 CL   UNL     1       2.700   4.501   8.265  0.00  0.00    -0.082 Cl
ENDBRANCH  17  18
ENDBRANCH   4  17
TORSDOF 5
