REMARK  Name = ZINC43165650
REMARK  8 active torsions:
REMARK  status: ('A' for Active; 'I' for Inactive)
REMARK    1  A    between atoms: C_1  and  C_2
REMARK    2  A    between atoms: C_6  and  O_9
REMARK    3  A    between atoms: C_7  and  C_8
REMARK    4  A    between atoms: O_9  and  C_10
REMARK    5  A    between atoms: C_10  and  C_12
REMARK    6  A    between atoms: C_10  and  C_13
REMARK    7  A    between atoms: N_15  and  N_16
REMARK    8  A    between atoms: N_19  and  C_20
REMARK                            x       y       z     vdW  Elec       q    Type
REMARK                         _______ _______ _______ _____ _____    ______ ____
ROOT
ATOM      1  N   UNL     1      -1.790  -6.526   4.670  0.00  0.00    -0.218 N 
ATOM      2  C   UNL     1      -2.007  -7.850   4.802  0.00  0.00    +0.316 C 
ATOM      3  O   UNL     1      -2.646  -8.269   5.747  0.00  0.00    -0.251 OA
ATOM      4  N   UNL     1      -1.516  -8.708   3.886  0.00  0.00    -0.291 N 
ATOM      5  H   UNL     1      -2.143  -5.908   5.328  0.00  0.00    +0.174 HD
ATOM      6  H   UNL     1      -1.005  -8.373   3.132  0.00  0.00    +0.151 HD
ENDROOT
BRANCH   4   7
ATOM      7  C   UNL     1      -1.752 -10.147   4.030  0.00  0.00    +0.111 C 
ATOM      8  C   UNL     1      -1.677 -10.815   2.655  0.00  0.00    +0.068 C 
ATOM      9  C   UNL     1      -1.631 -12.335   2.860  0.00  0.00    +0.231 C 
ATOM     10  O   UNL     1      -0.416 -12.660   3.537  0.00  0.00    -0.492 OA
ATOM     11  C   UNL     1      -0.102 -11.950   4.652  0.00  0.00    +0.125 A 
ATOM     12  C   UNL     1      -0.705 -10.739   4.939  0.00  0.00    +0.015 A 
ATOM     13  C   UNL     1      -0.348 -10.047   6.084  0.00  0.00    +0.009 A 
ATOM     14  C   UNL     1       0.605 -10.562   6.941  0.00  0.00    +0.001 A 
ATOM     15  C   UNL     1       1.208 -11.773   6.657  0.00  0.00    +0.004 A 
ATOM     16  C   UNL     1       0.856 -12.466   5.519  0.00  0.00    +0.046 A 
ENDBRANCH   4   7
BRANCH   1  19
ATOM     17  C   UNL     1      -0.835  -4.719   3.448  0.00  0.00    +0.270 C 
ATOM     18  O   UNL     1      -1.277  -3.947   4.272  0.00  0.00    -0.270 OA
ATOM     19  N   UNL     1      -1.053  -6.043   3.580  0.00  0.00    -0.230 N 
ATOM     20  H   UNL     1      -0.699  -6.660   2.922  0.00  0.00    +0.173 HD
BRANCH  17  21
ATOM     21  C   UNL     1      -0.043  -4.199   2.277  0.00  0.00    +0.257 C 
ATOM     22  C   UNL     1       1.363  -4.804   2.303  0.00  0.00    +0.062 C 
BRANCH  21  23
ATOM     23  O   UNL     1       0.050  -2.776   2.358  0.00  0.00    -0.480 OA
BRANCH  23  29
ATOM     24  C   UNL     1       0.424   1.474  -0.013  0.00  0.00    +0.044 C 
ATOM     25  C   UNL     1       0.438  -0.033  -0.000  0.00  0.00    -0.044 A 
ATOM     26  C   UNL     1       0.653  -0.732  -1.174  0.00  0.00    +0.004 A 
ATOM     27  C   UNL     1       0.667  -2.114  -1.165  0.00  0.00    +0.004 A 
ATOM     28  C   UNL     1       0.465  -2.801   0.016  0.00  0.00    +0.046 A 
ATOM     29  C   UNL     1       0.249  -2.102   1.195  0.00  0.00    +0.125 A 
ATOM     30  C   UNL     1       0.242  -0.715   1.185  0.00  0.00    -0.006 A 
ATOM     31  C   UNL     1       0.014   0.048   2.465  0.00  0.00    +0.048 C 
ENDBRANCH  23  29
ENDBRANCH  21  23
ENDBRANCH  17  21
ENDBRANCH   1  19
TORSDOF 5
