REMARK  Name = ZINC16525817
REMARK  4 active torsions:
REMARK  status: ('A' for Active; 'I' for Inactive)
REMARK    1  A    between atoms: C_9  and  O_26
REMARK    2  A    between atoms: C_10  and  C_11
REMARK    3  A    between atoms: N_12  and  N_13
REMARK    4  A    between atoms: C_14  and  C_16
REMARK                            x       y       z     vdW  Elec       q    Type
REMARK                         _______ _______ _______ _____ _____    ______ ____
ROOT
ATOM      1  C   UNL     1       4.954  -4.018   0.125  0.00  0.00    +0.142 C 
ATOM      2  N   UNL     1       4.931  -2.721   0.049  0.00  0.00    -0.187 NA
ENDROOT
BRANCH   1  12
ATOM      3  C   UNL     1       2.768  -7.496   3.243  0.00  0.00    +0.001 A 
ATOM      4  C   UNL     1       3.972  -6.796   3.267  0.00  0.00    +0.001 A 
ATOM      5  C   UNL     1       4.290  -5.915   2.276  0.00  0.00    +0.009 A 
ATOM      6  C   UNL     1       3.395  -5.710   1.219  0.00  0.00    -0.006 A 
ATOM      7  C   UNL     1       2.167  -6.417   1.194  0.00  0.00    -0.017 A 
ATOM      8  C   UNL     1       1.871  -7.313   2.235  0.00  0.00    +0.008 A 
ATOM      9  C   UNL     1       1.272  -6.214   0.129  0.00  0.00    +0.012 A 
ATOM     10  C   UNL     1       1.569  -5.345  -0.873  0.00  0.00    +0.046 A 
ATOM     11  C   UNL     1       2.762  -4.623  -0.890  0.00  0.00    +0.126 A 
ATOM     12  C   UNL     1       3.694  -4.776   0.136  0.00  0.00    +0.044 A 
BRANCH  11  13
ATOM     13  O   UNL     1       3.017  -3.767  -1.912  0.00  0.00    -0.506 OA
ATOM     14  H   UNL     1       3.411  -4.188  -2.689  0.00  0.00    +0.292 HD
ENDBRANCH  11  13
ENDBRANCH   1  12
BRANCH   2  15
ATOM     15  N   UNL     1       3.710  -2.037   0.109  0.00  0.00    -0.203 N 
ATOM     16  C   UNL     1       3.674  -0.703  -0.082  0.00  0.00    +0.263 C 
ATOM     17  O   UNL     1       4.686  -0.107  -0.397  0.00  0.00    -0.268 OA
ATOM     18  H   UNL     1       2.890  -2.523   0.289  0.00  0.00    +0.178 HD
BRANCH  16  19
ATOM     19  C   UNL     1       2.407   0.033   0.090  0.00  0.00    +0.042 A 
ATOM     20  C   UNL     1       1.221  -0.662   0.341  0.00  0.00    +0.017 A 
ATOM     21  C   UNL     1       0.040   0.028   0.501  0.00  0.00    +0.050 A 
ATOM     22  C   UNL     1       0.021   1.415   0.413  0.00  0.00    +0.162 A 
ATOM     23  C   UNL     1       1.200   2.114   0.166  0.00  0.00    +0.163 A 
ATOM     24  C   UNL     1       2.389   1.427   0.003  0.00  0.00    +0.062 A 
ATOM     25  O   UNL     1       1.200   3.473   0.085  0.00  0.00    -0.485 OA
ATOM     26  C   UNL     1      -0.068   4.106  -0.118  0.00  0.00    +0.270 C 
ATOM     27  C   UNL     1      -1.079   3.477   0.850  0.00  0.00    +0.270 C 
ATOM     28  O   UNL     1      -1.158   2.075   0.565  0.00  0.00    -0.485 OA
ENDBRANCH  16  19
ENDBRANCH   2  15
TORSDOF 4
