REMARK  Name = ZINC25361048
REMARK  7 active torsions:
REMARK  status: ('A' for Active; 'I' for Inactive)
REMARK    1  A    between atoms: C_4  and  S_24
REMARK    2  A    between atoms: C_5  and  N_7
REMARK    3  A    between atoms: C_8  and  C_10
REMARK    4  A    between atoms: C_10  and  N_11
REMARK    5  A    between atoms: C_15  and  C_17
REMARK    6  A    between atoms: S_24  and  C_25
REMARK    7  A    between atoms: C_25  and  C_26
REMARK                            x       y       z     vdW  Elec       q    Type
REMARK                         _______ _______ _______ _____ _____    ______ ____
ROOT
ATOM      1  N   UNL     1      -1.997   4.050   3.468  0.00  0.00    -0.286 N 
ATOM      2  C   UNL     1      -2.457   4.821   4.474  0.00  0.00    +0.201 C 
ATOM      3  O   UNL     1      -2.416   6.029   4.379  0.00  0.00    -0.278 OA
ATOM      4  H   UNL     1      -2.116   2.958   3.513  0.00  0.00    +0.155 HD
ENDROOT
BRANCH   1   9
ATOM      5  C   UNL     1      -0.136   6.460   1.402  0.00  0.00    +0.002 A 
ATOM      6  C   UNL     1      -0.122   5.811   0.181  0.00  0.00    +0.001 A 
ATOM      7  C   UNL     1      -0.723   4.574   0.045  0.00  0.00    +0.016 A 
ATOM      8  C   UNL     1      -1.353   3.985   1.133  0.00  0.00    +0.030 A 
ATOM      9  C   UNL     1      -1.368   4.641   2.364  0.00  0.00    +0.047 A 
ATOM     10  C   UNL     1      -0.757   5.879   2.492  0.00  0.00    +0.024 A 
BRANCH   8  11
ATOM     11  S   UNL     1      -2.127   2.412   0.960  0.00  0.00    -0.114 S 
BRANCH  11  12
ATOM     12  C   UNL     1      -1.851   1.975  -0.778  0.00  0.00    +0.169 C 
BRANCH  12  13
ATOM     13  C   UNL     1      -2.472   0.631  -1.064  0.00  0.00    +0.221 C 
ATOM     14  O   UNL     1      -3.044   0.028  -0.181  0.00  0.00    -0.275 OA
ATOM     15  N   UNL     1      -2.391   0.101  -2.300  0.00  0.00    -0.329 N 
ATOM     16  H   UNL     1      -2.844  -0.880  -2.508  0.00  0.00    +0.145 HD
ATOM     17  H   UNL     1      -1.872   0.648  -3.100  0.00  0.00    +0.145 HD
ENDBRANCH  12  13
ENDBRANCH  11  12
ENDBRANCH   8  11
ENDBRANCH   1   9
BRANCH   2  18
ATOM     18  C   UNL     1      -3.020   4.180   5.716  0.00  0.00    +0.020 C 
BRANCH  18  19
ATOM     19  N   UNL     1      -3.450   5.226   6.654  0.00  0.00    +0.390 N 
ATOM     20  C   UNL     1      -4.641   5.932   6.149  0.00  0.00    -0.077 C 
ATOM     21  C   UNL     1      -5.739   5.805   7.226  0.00  0.00    -0.020 C 
ATOM     22  C   UNL     1      -4.928   5.524   8.519  0.00  0.00    -0.013 C 
ATOM     23  C   UNL     1      -3.769   4.651   7.978  0.00  0.00    -0.037 C 
ATOM     24  H   UNL     1      -2.612   5.934   6.746  0.00  0.00    -0.080 HD
BRANCH  23  25
ATOM     25  C   UNL     1      -2.574   4.742   8.892  0.00  0.00    -0.061 A 
ATOM     26  C   UNL     1      -1.779   5.873   8.879  0.00  0.00    +0.005 A 
ATOM     27  C   UNL     1      -0.685   5.959   9.720  0.00  0.00    +0.038 A 
ATOM     28  C   UNL     1      -0.380   4.908  10.568  0.00  0.00    +0.123 A 
ATOM     29  C   UNL     1      -1.174   3.773  10.576  0.00  0.00    +0.038 A 
ATOM     30  C   UNL     1      -2.270   3.691   9.738  0.00  0.00    +0.005 A 
ATOM     31  F   UNL     1       0.691   4.989  11.387  0.00  0.00    -0.205 F 
ENDBRANCH  23  25
ENDBRANCH  18  19
ENDBRANCH   2  18
TORSDOF 7
