REMARK  Name = ZINC05517792
REMARK  6 active torsions:
REMARK  status: ('A' for Active; 'I' for Inactive)
REMARK    1  A    between atoms: C_2  and  C_3
REMARK    2  A    between atoms: C_3  and  C_5
REMARK    3  A    between atoms: C_3  and  N_20
REMARK    4  A    between atoms: C_5  and  C_7
REMARK    5  A    between atoms: C_5  and  N_13
REMARK    6  A    between atoms: N_13  and  C_14
REMARK                            x       y       z     vdW  Elec       q    Type
REMARK                         _______ _______ _______ _____ _____    ______ ____
ROOT
ATOM      1  C   UNL     1       2.330   5.353   0.009  0.00  0.00    +0.129 C 
ENDROOT
BRANCH   1   2
ATOM      2  C   UNL     1       2.186   5.861  -1.402  0.00  0.00    -0.025 A 
ATOM      3  C   UNL     1       2.874   5.246  -2.432  0.00  0.00    +0.005 A 
ATOM      4  C   UNL     1       2.738   5.709  -3.727  0.00  0.00    +0.000 A 
ATOM      5  C   UNL     1       1.921   6.793  -3.992  0.00  0.00    +0.000 A 
ATOM      6  C   UNL     1       1.237   7.410  -2.961  0.00  0.00    +0.000 A 
ATOM      7  C   UNL     1       1.370   6.944  -1.667  0.00  0.00    +0.005 A 
ENDBRANCH   1   2
BRANCH   1   8
ATOM      8  N   UNL     1       2.353   3.888   0.001  0.00  0.00    -0.335 N 
ATOM      9  H   UNL     1       3.201   3.416  -0.009  0.00  0.00    +0.147 HD
BRANCH   8  10
ATOM     10  C   UNL     1       1.155   3.171   0.008  0.00  0.00    +0.028 A 
ATOM     11  C   UNL     1       1.174   1.782   0.000  0.00  0.00    +0.023 A 
ATOM     12  C   UNL     1      -0.013   1.076   0.008  0.00  0.00    +0.002 A 
ATOM     13  C   UNL     1      -1.220   1.750   0.017  0.00  0.00    +0.000 A 
ATOM     14  C   UNL     1      -1.243   3.133   0.031  0.00  0.00    +0.002 A 
ATOM     15  C   UNL     1      -0.060   3.845   0.023  0.00  0.00    +0.023 A 
ENDBRANCH   8  10
ENDBRANCH   1   8
BRANCH   1  16
ATOM     16  C   UNL     1       3.635   5.880   0.610  0.00  0.00    +0.156 C 
BRANCH  16  17
ATOM     17  N   UNL     1       3.564   7.338   0.728  0.00  0.00    -0.235 N 
ATOM     18  C   UNL     1       3.665   8.075   1.884  0.00  0.00    +0.090 A 
ATOM     19  C   UNL     1       3.850   7.752   3.224  0.00  0.00    +0.029 A 
ATOM     20  C   UNL     1       3.909   8.745   4.160  0.00  0.00    +0.002 A 
ATOM     21  C   UNL     1       3.785  10.077   3.787  0.00  0.00    +0.002 A 
ATOM     22  C   UNL     1       3.602  10.421   2.480  0.00  0.00    +0.032 A 
ATOM     23  C   UNL     1       3.539   9.422   1.499  0.00  0.00    +0.113 A 
ATOM     24  N   UNL     1       3.371   9.451   0.162  0.00  0.00    -0.129 NA
ATOM     25  N   UNL     1       3.386   8.257  -0.317  0.00  0.00    -0.064 NA
ENDBRANCH  16  17
BRANCH  16  27
ATOM     26  C   UNL     1       5.760   4.757   0.177  0.00  0.00    +0.006 C 
ATOM     27  C   UNL     1       4.788   5.504  -0.285  0.00  0.00    -0.006 C 
ENDBRANCH  16  27
ENDBRANCH   1  16
TORSDOF 6
