REMARK  Name = ZINC08748301
REMARK  4 active torsions:
REMARK  status: ('A' for Active; 'I' for Inactive)
REMARK    1  A    between atoms: C_1  and  C_2
REMARK    2  A    between atoms: C_8  and  C_10
REMARK    3  A    between atoms: C_11  and  N_23
REMARK    4  A    between atoms: C_22  and  N_41
REMARK                            x       y       z     vdW  Elec       q    Type
REMARK                         _______ _______ _______ _____ _____    ______ ____
ROOT
ATOM      1  C   UNL     1      -2.405   0.899   0.018  0.00  0.00    +0.097 A 
ATOM      2  C   UNL     1      -3.691   1.391   0.033  0.00  0.00    +0.053 A 
ATOM      3  C   UNL     1      -4.793   0.441   0.027  0.00  0.00    +0.029 A 
ATOM      4  C   UNL     1      -6.185   0.697   0.035  0.00  0.00    +0.016 A 
ATOM      5  C   UNL     1      -7.070  -0.361   0.035  0.00  0.00    -0.042 A 
ATOM      6  C   UNL     1      -6.596  -1.662   0.023  0.00  0.00    +0.042 A 
ATOM      7  N   UNL     1      -5.293  -1.895   0.017  0.00  0.00    -0.244 NA
ATOM      8  C   UNL     1      -4.413  -0.920   0.018  0.00  0.00    +0.111 A 
ATOM      9  S   UNL     1      -2.638  -0.868   0.010  0.00  0.00    -0.062 S 
ATOM     10  C   UNL     1      -7.532  -2.844   0.016  0.00  0.00    +0.037 C 
ATOM     11  C   UNL     1      -8.932  -2.403   0.445  0.00  0.00    -0.073 C 
ATOM     12  C   UNL     1      -8.546  -0.056   0.055  0.00  0.00    -0.042 C 
ATOM     13  C   UNL     1     -10.762  -0.976  -0.253  0.00  0.00    -0.096 C 
ATOM     14  N   UNL     1      -9.311  -1.236  -0.380  0.00  0.00    +0.381 N 
ATOM     15  H   UNL     1      -9.092  -1.435  -1.363  0.00  0.00    -0.082 HD
ENDROOT
BRANCH   1  23
ATOM     16  C   UNL     1       4.860   1.507  -0.037  0.00  0.00    +0.066 C 
ATOM     17  C   UNL     1       3.451   2.040  -0.020  0.00  0.00    +0.047 A 
ATOM     18  C   UNL     1       3.215   3.375  -0.010  0.00  0.00    +0.071 A 
ATOM     19  S   UNL     1       1.428   3.395   0.007  0.00  0.00    -0.060 S 
ATOM     20  C   UNL     1       1.182   1.677  -0.000  0.00  0.00    +0.165 A 
ATOM     21  N   UNL     1       2.419   1.219  -0.009  0.00  0.00    -0.230 NA
ATOM     22  N   UNL     1      -0.011   0.966   0.007  0.00  0.00    -0.260 N 
ATOM     23  C   UNL     1      -1.187   1.624   0.017  0.00  0.00    +0.258 C 
ATOM     24  O   UNL     1      -1.204   2.841   0.023  0.00  0.00    -0.269 OA
ATOM     25  H   UNL     1       0.002  -0.004   0.002  0.00  0.00    +0.157 HD
ENDBRANCH   1  23
BRANCH   2  26
ATOM     26  N   UNL     1      -3.930   2.758   0.048  0.00  0.00    -0.356 N 
ATOM     27  H   UNL     1      -3.187   3.380   0.048  0.00  0.00    +0.142 HD
ATOM     28  H   UNL     1      -4.841   3.091   0.058  0.00  0.00    +0.142 HD
ENDBRANCH   2  26
TORSDOF 2
