REMARK  Name = ZINC13554264
REMARK  6 active torsions:
REMARK  status: ('A' for Active; 'I' for Inactive)
REMARK    1  A    between atoms: C_1  and  C_2
REMARK    2  A    between atoms: C_7  and  C_8
REMARK    3  A    between atoms: C_15  and  C_16
REMARK    4  A    between atoms: C_19  and  O_24
REMARK    5  A    between atoms: C_20  and  O_22
REMARK    6  A    between atoms: O_22  and  C_23
REMARK                            x       y       z     vdW  Elec       q    Type
REMARK                         _______ _______ _______ _____ _____    ______ ____
ROOT
ATOM      1  C   UNL     1       2.327  -2.840   0.684  0.00  0.00    +0.044 C 
ATOM      2  C   UNL     1       3.520  -2.089   1.218  0.00  0.00    -0.046 A 
ATOM      3  C   UNL     1       3.559  -0.717   1.059  0.00  0.00    +0.028 A 
ATOM      4  C   UNL     1       4.680  -0.029   1.562  0.00  0.00    +0.056 A 
ATOM      5  C   UNL     1       5.681  -0.792   2.201  0.00  0.00    +0.037 A 
ATOM      6  C   UNL     1       5.642  -2.156   2.356  0.00  0.00    +0.020 A 
ATOM      7  C   UNL     1       4.522  -2.804   1.843  0.00  0.00    -0.046 A 
ATOM      8  C   UNL     1       4.402  -4.301   1.971  0.00  0.00    +0.044 C 
ATOM      9  S   UNL     1       6.874   0.418   2.690  0.00  0.00    -0.054 S 
ATOM     10  C   UNL     1       6.019   1.853   2.087  0.00  0.00    +0.164 C 
ATOM     11  N   UNL     1       6.364   3.114   2.167  0.00  0.00    -0.154 NA
ATOM     12  C   UNL     1       5.531   4.061   1.691  0.00  0.00    +0.273 C 
ATOM     13  O   UNL     1       5.876   5.230   1.634  0.00  0.00    -0.268 OA
ATOM     14  C   UNL     1       4.182   3.639   1.238  0.00  0.00    +0.079 C 
ATOM     15  C   UNL     1       3.112   4.506   1.237  0.00  0.00    +0.024 C 
ATOM     16  C   UNL     1       4.048   2.224   0.791  0.00  0.00    +0.136 C 
ATOM     17  N   UNL     1       3.229   1.846  -0.152  0.00  0.00    -0.284 NA
ATOM     18  N   UNL     1       4.893   1.330   1.482  0.00  0.00    -0.233 N 
ATOM     19  H   UNL     1       3.174   0.786  -0.440  0.00  0.00    +0.188 HD
ENDROOT
BRANCH  15  20
ATOM     20  C   UNL     1       1.766   4.007   0.944  0.00  0.00    -0.021 A 
ATOM     21  C   UNL     1       1.393   2.716   1.343  0.00  0.00    +0.012 A 
ATOM     22  C   UNL     1       0.127   2.251   1.067  0.00  0.00    +0.050 A 
ATOM     23  C   UNL     1      -0.781   3.056   0.389  0.00  0.00    +0.158 A 
ATOM     24  C   UNL     1      -0.419   4.344  -0.006  0.00  0.00    +0.162 A 
ATOM     25  C   UNL     1       0.847   4.820   0.265  0.00  0.00    +0.057 A 
BRANCH  24  26
ATOM     26  O   UNL     1      -1.313   5.129  -0.664  0.00  0.00    -0.491 OA
ATOM     27  C   UNL     1      -0.874   6.435  -1.045  0.00  0.00    +0.277 C 
ENDBRANCH  24  26
BRANCH  23  28
ATOM     28  O   UNL     1      -2.026   2.589   0.116  0.00  0.00    -0.503 OA
ATOM     29  H   UNL     1      -2.746   3.224  -0.420  0.00  0.00    +0.292 HD
ENDBRANCH  23  28
ENDBRANCH  15  20
TORSDOF 3
