REMARK  Name = ZINC38980842
REMARK  8 active torsions:
REMARK  status: ('A' for Active; 'I' for Inactive)
REMARK    1  A    between atoms: C_1  and  O_2
REMARK    2  A    between atoms: O_2  and  C_3
REMARK    3  A    between atoms: C_3  and  C_4
REMARK    4  A    between atoms: C_4  and  C_5
REMARK    5  A    between atoms: C_5  and  N_6
REMARK    6  A    between atoms: N_6  and  C_7
REMARK    7  A    between atoms: N_10  and  S_11
REMARK    8  A    between atoms: S_11  and  C_14
REMARK                            x       y       z     vdW  Elec       q    Type
REMARK                         _______ _______ _______ _____ _____    ______ ____
ROOT
ATOM      1  C   UNL     1       1.995  -4.822   3.241  0.00  0.00    +0.219 C 
ATOM      2  C   UNL     1       1.077  -5.888   3.796  0.00  0.00    +0.188 C 
ATOM      3  N   UNL     1      -0.117  -5.581   4.210  0.00  0.00    -0.110 NA
ATOM      4  N   UNL     1       1.514  -7.156   3.856  0.00  0.00    -0.226 NA
ATOM      5  C   UNL     1       2.718  -7.492   3.444  0.00  0.00    +0.089 A 
ATOM      6  C   UNL     1       3.146  -8.841   3.522  0.00  0.00    +0.030 A 
ATOM      7  C   UNL     1       4.381  -9.192   3.101  0.00  0.00    +0.002 A 
ATOM      8  C   UNL     1       5.295  -8.265   2.573  0.00  0.00    +0.002 A 
ATOM      9  C   UNL     1       4.989  -6.954   2.455  0.00  0.00    +0.027 A 
ATOM     10  C   UNL     1       3.663  -6.491   2.890  0.00  0.00    +0.063 A 
ATOM     11  N   UNL     1       3.333  -5.235   2.790  0.00  0.00    -0.362 N 
ATOM     12  H   UNL     1       3.955  -4.586   2.426  0.00  0.00    +0.162 HD
ENDROOT
BRANCH   3  13
ATOM     13  S   UNL     1      -1.111  -6.758   4.816  0.00  0.00    +0.100 S 
ATOM     14  O   UNL     1      -1.411  -7.632   3.736  0.00  0.00    -0.146 OA
ATOM     15  O   UNL     1      -0.513  -7.214   6.021  0.00  0.00    -0.146 OA
BRANCH  13  16
ATOM     16  C   UNL     1      -2.626  -5.979   5.268  0.00  0.00    +0.114 A 
ATOM     17  C   UNL     1      -2.786  -5.467   6.542  0.00  0.00    +0.029 A 
ATOM     18  C   UNL     1      -3.973  -4.856   6.898  0.00  0.00    +0.003 A 
ATOM     19  C   UNL     1      -5.002  -4.755   5.980  0.00  0.00    +0.020 A 
ATOM     20  C   UNL     1      -4.842  -5.267   4.704  0.00  0.00    +0.043 A 
ATOM     21  C   UNL     1      -3.651  -5.874   4.347  0.00  0.00    +0.049 A 
ATOM     22 CL   UNL     1      -6.133  -5.142   3.551  0.00  0.00    -0.083 Cl
ENDBRANCH  13  16
ENDBRANCH   3  13
BRANCH   1  23
ATOM     23  N   UNL     1       1.312  -4.191   2.103  0.00  0.00    -0.291 NA
ATOM     24  H   UNL     1       0.363  -4.523   2.022  0.00  0.00    +0.124 HD
BRANCH  23  25
ATOM     25  C   UNL     1       1.351  -2.727   2.211  0.00  0.00    +0.085 C 
BRANCH  25  26
ATOM     26  C   UNL     1       0.633  -2.108   1.011  0.00  0.00    +0.043 C 
BRANCH  26  27
ATOM     27  C   UNL     1       0.673  -0.582   1.123  0.00  0.00    +0.160 C 
BRANCH  27  29
ATOM     28  C   UNL     1      -0.017   1.425   0.010  0.00  0.00    +0.193 C 
ATOM     29  O   UNL     1       0.002  -0.004   0.002  0.00  0.00    -0.383 OA
ENDBRANCH  27  29
ENDBRANCH  26  27
ENDBRANCH  25  26
ENDBRANCH  23  25
ENDBRANCH   1  23
TORSDOF 7
