REMARK  Name = ZINC12438753
REMARK  4 active torsions:
REMARK  status: ('A' for Active; 'I' for Inactive)
REMARK    1  A    between atoms: C_10  and  C_13
REMARK    2  A    between atoms: C_13  and  O_14
REMARK    3  A    between atoms: C_18  and  N_53
REMARK    4  A    between atoms: C_20  and  N_53
REMARK                            x       y       z     vdW  Elec       q    Type
REMARK                         _______ _______ _______ _____ _____    ______ ____
ROOT
ATOM      1  C   UNL     1       1.224   3.998   0.510  0.00  0.00    +0.118 A 
ATOM      2  C   UNL     1      -0.013   4.362   1.032  0.00  0.00    -0.022 A 
ATOM      3  C   UNL     1      -0.139   5.597   1.629  0.00  0.00    +0.048 A 
ATOM      4  N   UNL     1       0.920   6.398   1.680  0.00  0.00    -0.219 NA
ATOM      5  C   UNL     1       2.083   6.024   1.173  0.00  0.00    +0.218 A 
ATOM      6  N   UNL     1       2.237   4.841   0.596  0.00  0.00    -0.223 NA
ATOM      7  N   UNL     1       3.162   6.887   1.246  0.00  0.00    -0.300 N 
ATOM      8  C   UNL     1       2.841   8.184   0.637  0.00  0.00    +0.108 C 
ATOM      9  C   UNL     1       4.000   9.157   0.864  0.00  0.00    +0.025 C 
ATOM     10  C   UNL     1       5.274   8.580   0.240  0.00  0.00    +0.017 C 
ATOM     11  C   UNL     1       5.559   7.208   0.857  0.00  0.00    +0.025 C 
ATOM     12  C   UNL     1       4.355   6.292   0.630  0.00  0.00    +0.108 C 
ATOM     13  C   UNL     1      -1.432   6.079   2.229  0.00  0.00    +0.056 C 
ATOM     14  C   UNL     1      -2.604   5.248   1.708  0.00  0.00    +0.005 C 
ATOM     15  C   UNL     1      -2.270   3.764   1.897  0.00  0.00    -0.011 C 
ATOM     16  C   UNL     1      -1.155   3.391   0.920  0.00  0.00    -0.037 C 
ENDROOT
BRANCH  16  17
ATOM     17  N   UNL     1      -0.666   2.035   1.233  0.00  0.00    +0.386 N 
ATOM     18  H   UNL     1      -0.721   1.880   2.247  0.00  0.00    -0.085 HD
ATOM     19  H   UNL     1       0.310   1.948   0.926  0.00  0.00    -0.085 HD
BRANCH  17  20
ATOM     20  C   UNL     1      -1.486   1.022   0.541  0.00  0.00    -0.071 C 
ATOM     21  C   UNL     1      -0.899   0.713  -0.858  0.00  0.00    -0.016 C 
ATOM     22  C   UNL     1      -1.444  -0.707  -1.151  0.00  0.00    -0.002 C 
ATOM     23  C   UNL     1      -1.384  -1.424   0.213  0.00  0.00    -0.002 C 
ATOM     24  C   UNL     1      -1.411  -0.325   1.289  0.00  0.00    -0.016 C 
ENDBRANCH  17  20
ENDBRANCH  16  17
BRANCH  10  25
ATOM     25  C   UNL     1       6.450   9.520   0.517  0.00  0.00    +0.159 C 
BRANCH  25  26
ATOM     26  O   UNL     1       6.236  10.762  -0.157  0.00  0.00    -0.395 OA
ATOM     27  H   UNL     1       6.944  11.407  -0.026  0.00  0.00    +0.209 HD
ENDBRANCH  25  26
ENDBRANCH  10  25
TORSDOF 4
