REMARK  Name = ZINC59099050
REMARK  8 active torsions:
REMARK  status: ('A' for Active; 'I' for Inactive)
REMARK    1  A    between atoms: C_1  and  O_2
REMARK    2  A    between atoms: O_2  and  C_3
REMARK    3  A    between atoms: C_5  and  C_17
REMARK    4  A    between atoms: C_8  and  O_9
REMARK    5  A    between atoms: O_9  and  C_10
REMARK    6  A    between atoms: C_10  and  C_11
REMARK    7  A    between atoms: N_18  and  N_19
REMARK    8  A    between atoms: C_22  and  C_25
REMARK                            x       y       z     vdW  Elec       q    Type
REMARK                         _______ _______ _______ _____ _____    ______ ____
ROOT
ATOM      1  C   UNL     1       0.626  -0.619   1.042  0.00  0.00    +0.162 A 
ATOM      2  C   UNL     1       1.200   0.137   2.048  0.00  0.00    +0.059 A 
ATOM      3  C   UNL     1       1.841  -0.498   3.115  0.00  0.00    -0.002 A 
ATOM      4  C   UNL     1       1.898  -1.894   3.160  0.00  0.00    +0.013 A 
ATOM      5  C   UNL     1       1.323  -2.640   2.154  0.00  0.00    +0.050 A 
ATOM      6  C   UNL     1       0.682  -2.010   1.097  0.00  0.00    +0.162 A 
ENDROOT
BRANCH   1   8
ATOM      7  C   UNL     1      -0.017   1.425   0.010  0.00  0.00    +0.277 C 
ATOM      8  O   UNL     1       0.002  -0.004   0.002  0.00  0.00    -0.491 OA
ENDBRANCH   1   8
BRANCH   3   9
ATOM      9  C   UNL     1       2.455   0.302   4.190  0.00  0.00    +0.138 C 
ATOM     10  N   UNL     1       3.050  -0.290   5.181  0.00  0.00    -0.188 NA
BRANCH  10  11
ATOM     11  N   UNL     1       3.634   0.471   6.202  0.00  0.00    -0.215 N 
ATOM     12  C   UNL     1       4.268  -0.160   7.259  0.00  0.00    +0.178 A 
ATOM     13  N   UNL     1       4.868   0.369   8.310  0.00  0.00    -0.224 NA
ATOM     14  C   UNL     1       5.429  -0.393   9.237  0.00  0.00    +0.080 A 
ATOM     15  C   UNL     1       5.387  -1.753   9.103  0.00  0.00    +0.077 A 
ATOM     16  S   UNL     1       4.486  -1.908   7.567  0.00  0.00    -0.059 S 
ATOM     17  H   UNL     1       3.594   1.439   6.169  0.00  0.00    +0.176 HD
BRANCH  14  18
ATOM     18  C   UNL     1       6.098   0.223  10.409  0.00  0.00    +0.001 A 
ATOM     19  C   UNL     1       6.693  -0.583  11.379  0.00  0.00    +0.011 A 
ATOM     20  C   UNL     1       7.314  -0.004  12.467  0.00  0.00    +0.016 A 
ATOM     21  C   UNL     1       7.346   1.374  12.596  0.00  0.00    +0.018 A 
ATOM     22  C   UNL     1       6.757   2.178  11.637  0.00  0.00    +0.016 A 
ATOM     23  C   UNL     1       6.139   1.610  10.541  0.00  0.00    +0.011 A 
ATOM     24 BR   UNL     1       8.198   2.159  14.090  0.00  0.00    -0.050 Br
ENDBRANCH  14  18
ENDBRANCH  10  11
ENDBRANCH   3   9
BRANCH   6  25
ATOM     25  O   UNL     1       0.112  -2.751   0.110  0.00  0.00    -0.484 OA
BRANCH  25  26
ATOM     26  C   UNL     1       0.206  -4.172   0.229  0.00  0.00    +0.264 C 
BRANCH  26  27
ATOM     27  C   UNL     1      -0.477  -4.820  -0.947  0.00  0.00    -0.010 A 
ATOM     28  C   UNL     1      -1.823  -5.130  -0.880  0.00  0.00    +0.007 A 
ATOM     29  C   UNL     1      -2.449  -5.725  -1.959  0.00  0.00    +0.000 A 
ATOM     30  C   UNL     1      -1.731  -6.010  -3.105  0.00  0.00    +0.000 A 
ATOM     31  C   UNL     1      -0.385  -5.700  -3.172  0.00  0.00    +0.000 A 
ATOM     32  C   UNL     1       0.240  -5.101  -2.095  0.00  0.00    +0.007 A 
ENDBRANCH  26  27
ENDBRANCH  25  26
ENDBRANCH   6  25
TORSDOF 7
