REMARK  Name = ZINC41066292
REMARK  4 active torsions:
REMARK  status: ('A' for Active; 'I' for Inactive)
REMARK    1  A    between atoms: C_1  and  C_2
REMARK    2  A    between atoms: C_2  and  C_3
REMARK    3  A    between atoms: N_8  and  S_10
REMARK    4  A    between atoms: S_10  and  C_13
REMARK                            x       y       z     vdW  Elec       q    Type
REMARK                         _______ _______ _______ _____ _____    ______ ____
ROOT
ATOM      1  S   UNL     1       0.767  -3.475  -3.622  0.00  0.00    +0.064 S 
ATOM      2  O   UNL     1      -0.636  -3.252  -3.584  0.00  0.00    -0.153 OA
ATOM      3  O   UNL     1       1.535  -3.294  -4.803  0.00  0.00    -0.153 OA
ENDROOT
BRANCH   1   4
ATOM      4  C   UNL     1       1.027  -5.138  -3.102  0.00  0.00    +0.143 A 
ATOM      5  C   UNL     1      -0.050  -5.951  -2.784  0.00  0.00    +0.048 A 
ATOM      6  C   UNL     1       0.203  -7.254  -2.380  0.00  0.00    +0.038 A 
ATOM      7  C   UNL     1       1.511  -7.696  -2.307  0.00  0.00    +0.127 A 
ATOM      8  N   UNL     1       2.512  -6.894  -2.617  0.00  0.00    -0.240 NA
ATOM      9  C   UNL     1       2.309  -5.651  -3.011  0.00  0.00    +0.155 A 
ATOM     10 CL   UNL     1       3.666  -4.646  -3.413  0.00  0.00    -0.060 Cl
ATOM     11 BR   UNL     1      -1.225  -8.411  -1.932  0.00  0.00    -0.049 Br
ENDBRANCH   1   4
BRANCH   1  16
ATOM     12  C   UNL     1       0.718  -0.497  -1.257  0.00  0.00    +0.005 C 
ATOM     13  C   UNL     1       2.188  -0.075  -1.207  0.00  0.00    +0.006 C 
ATOM     14  C   UNL     1       2.898  -0.539  -2.481  0.00  0.00    +0.017 C 
ATOM     15  C   UNL     1       2.837  -2.068  -2.566  0.00  0.00    +0.109 C 
ATOM     16  N   UNL     1       1.433  -2.491  -2.468  0.00  0.00    -0.176 NA
ATOM     17  C   UNL     1       0.632  -2.025  -1.328  0.00  0.00    +0.113 C 
BRANCH  12  19
ATOM     18  C   UNL     1      -0.019   1.526   0.010  0.00  0.00    +0.004 C 
ATOM     19  C   UNL     1       0.002  -0.004   0.002  0.00  0.00    +0.001 C 
ENDBRANCH  12  19
ENDBRANCH   1  16
TORSDOF 3
