REMARK  Name = ZINC39911547
REMARK  15 active torsions:
REMARK  status: ('A' for Active; 'I' for Inactive)
REMARK    1  A    between atoms: C_1  and  C_2
REMARK    2  A    between atoms: C_2  and  C_3
REMARK    3  A    between atoms: C_3  and  C_4
REMARK    4  A    between atoms: C_4  and  C_5
REMARK    5  A    between atoms: C_5  and  O_6
REMARK    6  A    between atoms: O_6  and  C_7
REMARK    7  A    between atoms: C_10  and  C_13
REMARK    8  A    between atoms: C_16  and  C_28
REMARK    9  A    between atoms: N_23  and  C_24
REMARK   10  A    between atoms: C_24  and  C_25
REMARK   11  A    between atoms: C_25  and  C_26
REMARK   12  A    between atoms: C_26  and  O_27
REMARK   13  A    between atoms: C_30  and  C_36
REMARK   14  A    between atoms: C_32  and  C_35
REMARK   15  A    between atoms: C_33  and  O_34
REMARK                            x       y       z     vdW  Elec       q    Type
REMARK                         _______ _______ _______ _____ _____    ______ ____
ROOT
ATOM      1  C   UNL     1      -7.333  -6.703  -0.128  0.00  0.00    +0.141 C 
ATOM      2  C   UNL     1      -7.991  -7.071  -1.430  0.00  0.00    +0.035 A 
ATOM      3  C   UNL     1      -8.490  -6.636  -2.663  0.00  0.00    +0.102 A 
ATOM      4  N   UNL     1      -8.949  -7.697  -3.298  0.00  0.00    -0.173 NA
ATOM      5  N   UNL     1      -8.789  -8.757  -2.589  0.00  0.00    -0.272 N 
ATOM      6  H   UNL     1      -9.052  -9.652  -2.857  0.00  0.00    +0.189 HD
ATOM      7  C   UNL     1      -8.192  -8.437  -1.402  0.00  0.00    +0.126 A 
ATOM      8  C   UNL     1      -7.686  -8.957  -0.127  0.00  0.00    +0.265 C 
ATOM      9  O   UNL     1      -7.716 -10.127   0.206  0.00  0.00    -0.268 OA
ATOM     10  N   UNL     1      -7.185  -7.957   0.622  0.00  0.00    -0.285 N 
ENDROOT
BRANCH   3  11
ATOM     11  C   UNL     1      -8.502  -5.239  -3.163  0.00  0.00    +0.044 A 
ATOM     12  C   UNL     1      -8.095  -4.197  -2.335  0.00  0.00    +0.017 A 
ATOM     13  C   UNL     1      -8.108  -2.899  -2.805  0.00  0.00    -0.049 A 
ATOM     14  C   UNL     1      -8.524  -2.630  -4.097  0.00  0.00    +0.010 A 
ATOM     15  C   UNL     1      -8.931  -3.657  -4.926  0.00  0.00    -0.008 A 
ATOM     16  C   UNL     1      -8.917  -4.965  -4.469  0.00  0.00    +0.129 A 
ATOM     17  C   UNL     1      -9.384  -3.356  -6.332  0.00  0.00    +0.047 C 
ATOM     18  C   UNL     1      -7.667  -1.771  -1.908  0.00  0.00    +0.044 C 
BRANCH  16  19
ATOM     19  O   UNL     1      -9.310  -5.977  -5.286  0.00  0.00    -0.506 OA
ATOM     20  H   UNL     1     -10.256  -6.176  -5.239  0.00  0.00    +0.292 HD
ENDBRANCH  16  19
ENDBRANCH   3  11
BRANCH   1  24
ATOM     21  C   UNL     1      -3.499  -4.962  -0.856  0.00  0.00    +0.121 A 
ATOM     22  C   UNL     1      -3.712  -6.308  -1.117  0.00  0.00    +0.046 A 
ATOM     23  C   UNL     1      -4.952  -6.869  -0.881  0.00  0.00    +0.009 A 
ATOM     24  C   UNL     1      -5.981  -6.089  -0.385  0.00  0.00    -0.022 A 
ATOM     25  C   UNL     1      -5.771  -4.748  -0.124  0.00  0.00    +0.009 A 
ATOM     26  C   UNL     1      -4.531  -4.184  -0.353  0.00  0.00    +0.046 A 
BRANCH  21  27
ATOM     27  O   UNL     1      -2.280  -4.409  -1.087  0.00  0.00    -0.492 OA
BRANCH  27  28
ATOM     28  C   UNL     1      -1.264  -5.270  -1.606  0.00  0.00    +0.229 C 
BRANCH  28  29
ATOM     29  C   UNL     1       0.029  -4.475  -1.800  0.00  0.00    +0.041 C 
BRANCH  29  30
ATOM     30  C   UNL     1       1.116  -5.397  -2.355  0.00  0.00    +0.003 C 
BRANCH  30  32
ATOM     31  C   UNL     1       3.496  -5.524  -3.105  0.00  0.00    +0.004 C 
ATOM     32  C   UNL     1       2.409  -4.602  -2.549  0.00  0.00    -0.003 C 
ENDBRANCH  30  32
ENDBRANCH  29  30
ENDBRANCH  28  29
ENDBRANCH  27  28
ENDBRANCH  21  27
ENDBRANCH   1  24
BRANCH  10  33
ATOM     33  C   UNL     1      -6.593  -8.095   1.955  0.00  0.00    +0.111 C 
BRANCH  33  34
ATOM     34  C   UNL     1      -7.684  -7.939   3.016  0.00  0.00    +0.047 C 
BRANCH  34  35
ATOM     35  C   UNL     1      -7.066  -8.082   4.409  0.00  0.00    +0.157 C 
BRANCH  35  36
ATOM     36  O   UNL     1      -8.086  -7.937   5.399  0.00  0.00    -0.395 OA
ATOM     37  H   UNL     1      -7.765  -8.017   6.308  0.00  0.00    +0.209 HD
ENDBRANCH  35  36
ENDBRANCH  34  35
ENDBRANCH  33  34
ENDBRANCH  10  33
TORSDOF 12
