REMARK  Name = ZINC07986621
REMARK  8 active torsions:
REMARK  status: ('A' for Active; 'I' for Inactive)
REMARK    1  A    between atoms: C_1  and  C_2
REMARK    2  A    between atoms: C_7  and  C_8
REMARK    3  A    between atoms: C_7  and  N_56
REMARK    4  A    between atoms: C_11  and  C_21
REMARK    5  A    between atoms: C_14  and  C_16
REMARK    6  A    between atoms: C_25  and  O_28
REMARK    7  A    between atoms: C_26  and  O_27
REMARK    8  A    between atoms: O_28  and  C_29
REMARK                            x       y       z     vdW  Elec       q    Type
REMARK                         _______ _______ _______ _____ _____    ______ ____
ROOT
ATOM      1  C   UNL     1      -1.388  -0.527   0.259  0.00  0.00    +0.219 C 
ATOM      2  O   UNL     1      -2.305   0.248   0.432  0.00  0.00    -0.276 OA
ATOM      3  N   UNL     1      -1.612  -1.855   0.297  0.00  0.00    -0.187 N 
ATOM      4  C   UNL     1      -2.914  -2.497   0.537  0.00  0.00    +0.140 C 
ATOM      5  C   UNL     1      -2.594  -4.003   0.473  0.00  0.00    +0.087 C 
ATOM      6  C   UNL     1      -1.108  -4.049   0.197  0.00  0.00    +0.075 C 
ATOM      7  N   UNL     1      -0.649  -2.845   0.109  0.00  0.00    -0.180 NA
ENDROOT
BRANCH   4   8
ATOM      8  C   UNL     1      -3.447  -2.122   1.897  0.00  0.00    +0.020 A 
ATOM      9  C   UNL     1      -2.592  -1.617   2.859  0.00  0.00    +0.009 A 
ATOM     10  C   UNL     1      -3.077  -1.272   4.106  0.00  0.00    +0.004 A 
ATOM     11  C   UNL     1      -4.420  -1.431   4.397  0.00  0.00    +0.049 A 
ATOM     12  C   UNL     1      -5.281  -1.936   3.438  0.00  0.00    +0.162 A 
ATOM     13  C   UNL     1      -4.793  -2.279   2.180  0.00  0.00    +0.164 A 
BRANCH  13  14
ATOM     14  O   UNL     1      -5.636  -2.771   1.233  0.00  0.00    -0.503 OA
ATOM     15  H   UNL     1      -5.724  -3.734   1.247  0.00  0.00    +0.292 HD
ENDBRANCH  13  14
BRANCH  12  16
ATOM     16  O   UNL     1      -6.602  -2.092   3.723  0.00  0.00    -0.491 OA
ATOM     17  C   UNL     1      -7.032  -1.715   5.032  0.00  0.00    +0.277 C 
ENDBRANCH  12  16
ENDBRANCH   4   8
BRANCH   6  18
ATOM     18  C   UNL     1      -0.312  -5.271   0.045  0.00  0.00    +0.035 A 
ATOM     19  C   UNL     1       1.041  -5.405  -0.213  0.00  0.00    +0.017 A 
ATOM     20  C   UNL     1       1.566  -6.673  -0.308  0.00  0.00    +0.008 A 
ATOM     21  C   UNL     1       0.745  -7.745  -0.159  0.00  0.00    +0.046 A 
ATOM     22  S   UNL     1      -0.838  -6.975   0.137  0.00  0.00    -0.095 S 
ENDBRANCH   6  18
BRANCH   1  23
ATOM     23  C   UNL     1       0.002  -0.004   0.002  0.00  0.00    +0.021 C 
BRANCH  23  30
ATOM     24  C   UNL     1       0.362   5.642  -0.812  0.00  0.00    +0.007 C 
ATOM     25  C   UNL     1       0.473   4.127  -0.995  0.00  0.00    -0.018 C 
ATOM     26  C   UNL     1       1.290   3.531   0.155  0.00  0.00    -0.016 C 
ATOM     27  C   UNL     1       1.346   2.010   0.000  0.00  0.00    -0.078 C 
ATOM     28  C   UNL     1      -0.806   1.987  -1.113  0.00  0.00    -0.078 C 
ATOM     29  C   UNL     1      -0.927   3.507  -0.991  0.00  0.00    -0.016 C 
ATOM     30  N   UNL     1      -0.031   1.473   0.036  0.00  0.00    +0.385 N 
ATOM     31  H   UNL     1      -0.485   1.776   0.906  0.00  0.00    -0.081 HD
ENDBRANCH  23  30
ENDBRANCH   1  23
TORSDOF 6
