REMARK  Name = ZINC39920539
REMARK  6 active torsions:
REMARK  status: ('A' for Active; 'I' for Inactive)
REMARK    1  A    between atoms: C_1  and  C_2
REMARK    2  A    between atoms: C_7  and  O_8
REMARK    3  A    between atoms: O_8  and  C_9
REMARK    4  A    between atoms: C_9  and  C_10
REMARK    5  A    between atoms: N_12  and  N_13
REMARK    6  A    between atoms: C_14  and  C_26
REMARK                            x       y       z     vdW  Elec       q    Type
REMARK                         _______ _______ _______ _____ _____    ______ ____
ROOT
ATOM      1  N   UNL     1       0.083   0.562   7.317  0.00  0.00    -0.191 N 
ATOM      2  C   UNL     1       1.472   0.586   7.777  0.00  0.00    +0.212 C 
ATOM      3  N   UNL     1       1.521   0.713   9.239  0.00  0.00    -0.320 N 
ATOM      4  C   UNL     1       0.680   1.634   9.854  0.00  0.00    +0.041 A 
ATOM      5  C   UNL     1       1.023   2.262  11.039  0.00  0.00    +0.025 A 
ATOM      6  C   UNL     1       0.152   3.172  11.607  0.00  0.00    +0.017 A 
ATOM      7  C   UNL     1      -1.060   3.461  11.001  0.00  0.00    +0.019 A 
ATOM      8  C   UNL     1      -1.418   2.843   9.819  0.00  0.00    +0.030 A 
ATOM      9  C   UNL     1      -0.550   1.922   9.237  0.00  0.00    +0.060 A 
ATOM     10  C   UNL     1      -0.884   1.231   7.978  0.00  0.00    +0.267 C 
ATOM     11  O   UNL     1      -2.019   1.260   7.543  0.00  0.00    -0.268 OA
ATOM     12 BR   UNL     1      -2.234   4.711  11.797  0.00  0.00    -0.050 Br
ATOM     13  H   UNL     1       2.127   0.167   9.764  0.00  0.00    +0.148 HD
ENDROOT
BRANCH   2  14
ATOM     14  C   UNL     1       2.184   1.758   7.153  0.00  0.00    -0.008 A 
ATOM     15  C   UNL     1       3.353   1.558   6.443  0.00  0.00    +0.007 A 
ATOM     16  C   UNL     1       4.007   2.633   5.871  0.00  0.00    +0.000 A 
ATOM     17  C   UNL     1       3.491   3.908   6.008  0.00  0.00    +0.000 A 
ATOM     18  C   UNL     1       2.322   4.108   6.718  0.00  0.00    +0.000 A 
ATOM     19  C   UNL     1       1.666   3.032   7.286  0.00  0.00    +0.007 A 
ENDBRANCH   2  14
BRANCH   1  22
ATOM     20  C   UNL     1      -0.466   0.480   5.002  0.00  0.00    +0.267 C 
ATOM     21  O   UNL     1      -0.465   1.693   4.971  0.00  0.00    -0.271 OA
ATOM     22  N   UNL     1      -0.247  -0.164   6.165  0.00  0.00    -0.227 N 
ATOM     23  H   UNL     1      -0.318  -1.131   6.205  0.00  0.00    +0.173 HD
BRANCH  20  24
ATOM     24  C   UNL     1      -0.712  -0.306   3.740  0.00  0.00    +0.326 C 
BRANCH  24  25
ATOM     25  O   UNL     1      -0.915   0.595   2.650  0.00  0.00    -0.482 OA
BRANCH  25  32
ATOM     26  C   UNL     1      -1.320   2.359   0.481  0.00  0.00    +0.047 C 
ATOM     27  C   UNL     1      -1.358   0.861   0.327  0.00  0.00    -0.009 A 
ATOM     28  C   UNL     1      -1.592   0.298  -0.913  0.00  0.00    +0.007 A 
ATOM     29  C   UNL     1      -1.626  -1.077  -1.054  0.00  0.00    +0.000 A 
ATOM     30  C   UNL     1      -1.427  -1.892   0.045  0.00  0.00    +0.004 A 
ATOM     31  C   UNL     1      -1.192  -1.335   1.286  0.00  0.00    +0.046 A 
ATOM     32  C   UNL     1      -1.151   0.045   1.430  0.00  0.00    +0.124 A 
ENDBRANCH  25  32
ENDBRANCH  24  25
ENDBRANCH  20  24
ENDBRANCH   1  22
TORSDOF 5
