REMARK  Name = ZINC39444293
REMARK  6 active torsions:
REMARK  status: ('A' for Active; 'I' for Inactive)
REMARK    1  A    between atoms: C_1  and  C_2
REMARK    2  A    between atoms: C_4  and  C_26
REMARK    3  A    between atoms: C_8  and  C_12
REMARK    4  A    between atoms: C_12  and  S_13
REMARK    5  A    between atoms: S_13  and  C_14
REMARK    6  A    between atoms: N_18  and  C_19
REMARK                            x       y       z     vdW  Elec       q    Type
REMARK                         _______ _______ _______ _____ _____    ______ ____
ROOT
ATOM      1  C   UNL     1      -2.262  -3.654   4.678  0.00  0.00    +0.151 C 
ENDROOT
BRANCH   1   8
ATOM      2  C   UNL     1      -0.019   1.526   0.010  0.00  0.00    +0.024 C 
ATOM      3  C   UNL     1       0.002  -0.004   0.002  0.00  0.00    +0.076 C 
ATOM      4  C   UNL     1      -1.399  -0.565   0.089  0.00  0.00    -0.045 C 
ATOM      5  C   UNL     1      -1.704  -1.321   1.155  0.00  0.00    +0.071 C 
ATOM      6  C   UNL     1      -0.645  -1.546   2.162  0.00  0.00    +0.111 C 
ATOM      7  N   UNL     1      -0.881  -2.276   3.226  0.00  0.00    -0.227 NA
ATOM      8  C   UNL     1      -2.066  -2.829   3.432  0.00  0.00    +0.134 C 
ATOM      9  N   UNL     1      -3.079  -2.698   2.609  0.00  0.00    -0.160 NA
ATOM     10  C   UNL     1      -3.005  -1.988   1.478  0.00  0.00    +0.271 C 
ATOM     11  O   UNL     1      -3.966  -1.886   0.735  0.00  0.00    -0.268 OA
ATOM     12  S   UNL     1       0.764  -0.661   1.541  0.00  0.00    -0.098 S 
ATOM     13  C   UNL     1      -2.419  -0.284  -0.984  0.00  0.00    +0.041 C 
ENDBRANCH   1   8
BRANCH   1  14
ATOM     14  S   UNL     1      -3.959  -4.293   4.721  0.00  0.00    -0.077 S 
BRANCH  14  15
ATOM     15  C   UNL     1      -4.027  -5.223   6.216  0.00  0.00    +0.210 A 
ATOM     16  N   UNL     1      -3.049  -5.385   7.080  0.00  0.00    -0.101 NA
ATOM     17  N   UNL     1      -3.434  -6.120   8.061  0.00  0.00    -0.022 NA
ATOM     18  N   UNL     1      -4.662  -6.476   7.900  0.00  0.00    -0.043 NA
ATOM     19  N   UNL     1      -5.098  -5.899   6.694  0.00  0.00    -0.217 N 
BRANCH  19  20
ATOM     20  C   UNL     1      -6.426  -6.010   6.084  0.00  0.00    +0.112 C 
ATOM     21  C   UNL     1      -6.737  -7.481   5.803  0.00  0.00    +0.027 C 
ATOM     22  C   UNL     1      -8.124  -7.596   5.167  0.00  0.00    +0.002 C 
ATOM     23  C   UNL     1      -9.173  -7.026   6.123  0.00  0.00    +0.000 C 
ATOM     24  C   UNL     1      -8.861  -5.554   6.403  0.00  0.00    +0.002 C 
ATOM     25  C   UNL     1      -7.475  -5.439   7.040  0.00  0.00    +0.027 C 
ENDBRANCH  19  20
ENDBRANCH  14  15
ENDBRANCH   1  14
TORSDOF 4
