REMARK  Name = ZINC12657095
REMARK  9 active torsions:
REMARK  status: ('A' for Active; 'I' for Inactive)
REMARK    1  A    between atoms: C_1  and  O_2
REMARK    2  A    between atoms: O_2  and  C_3
REMARK    3  A    between atoms: C_6  and  C_9
REMARK    4  A    between atoms: C_10  and  C_11
REMARK    5  A    between atoms: N_13  and  C_14
REMARK    6  A    between atoms: C_14  and  C_22
REMARK    7  A    between atoms: C_15  and  C_16
REMARK    8  A    between atoms: N_24  and  C_25
REMARK    9  A    between atoms: C_30  and  O_31
REMARK                            x       y       z     vdW  Elec       q    Type
REMARK                         _______ _______ _______ _____ _____    ______ ____
ROOT
ATOM      1  C   UNL     1       0.962   1.896  -0.675  0.00  0.00    +0.097 C 
ATOM      2  C   UNL     1      -0.192   1.403  -0.170  0.00  0.00    +0.036 C 
ENDROOT
BRANCH   2   3
ATOM      3  C   UNL     1      -0.561  -0.000  -0.415  0.00  0.00    -0.023 A 
ATOM      4  C   UNL     1      -0.022  -0.689  -1.506  0.00  0.00    +0.008 A 
ATOM      5  C   UNL     1      -0.370  -2.005  -1.726  0.00  0.00    +0.001 A 
ATOM      6  C   UNL     1      -1.257  -2.642  -0.876  0.00  0.00    +0.000 A 
ATOM      7  C   UNL     1      -1.799  -1.966   0.203  0.00  0.00    +0.001 A 
ATOM      8  C   UNL     1      -1.458  -0.651   0.440  0.00  0.00    +0.008 A 
ENDBRANCH   2   3
BRANCH   1  11
ATOM      9  C   UNL     1       2.252   1.263  -2.569  0.00  0.00    +0.241 C 
ATOM     10  O   UNL     1       1.754   2.178  -3.199  0.00  0.00    -0.270 OA
ATOM     11  N   UNL     1       1.877   1.040  -1.294  0.00  0.00    -0.278 N 
ATOM     12  H   UNL     1       2.241   0.285  -0.806  0.00  0.00    +0.155 HD
BRANCH   9  14
ATOM     13  C   UNL     1       3.711   0.693  -4.435  0.00  0.00    +0.013 C 
ATOM     14  C   UNL     1       3.257   0.406  -3.196  0.00  0.00    +0.068 C 
BRANCH  13  18
ATOM     15  C   UNL     1       6.353  -1.982  -6.398  0.00  0.00    +0.120 A 
ATOM     16  C   UNL     1       5.956  -0.811  -7.032  0.00  0.00    +0.046 A 
ATOM     17  C   UNL     1       5.098   0.061  -6.399  0.00  0.00    +0.011 A 
ATOM     18  C   UNL     1       4.626  -0.234  -5.115  0.00  0.00    -0.025 A 
ATOM     19  C   UNL     1       5.034  -1.412  -4.478  0.00  0.00    +0.011 A 
ATOM     20  C   UNL     1       5.887  -2.280  -5.122  0.00  0.00    +0.046 A 
BRANCH  15  22
ATOM     21  C   UNL     1       7.566  -4.024  -6.317  0.00  0.00    +0.277 C 
ATOM     22  O   UNL     1       7.198  -2.839  -7.026  0.00  0.00    -0.495 OA
ENDBRANCH  15  22
ENDBRANCH  13  18
ENDBRANCH   9  14
ENDBRANCH   1  11
BRANCH   1  23
ATOM     23  C   UNL     1       1.254   3.333  -0.572  0.00  0.00    +0.263 C 
ATOM     24  O   UNL     1       2.292   3.778  -1.026  0.00  0.00    -0.268 OA
ATOM     25  N   UNL     1       0.372   4.159   0.025  0.00  0.00    -0.278 N 
ATOM     26  H   UNL     1      -0.408   3.795   0.472  0.00  0.00    +0.155 HD
BRANCH  25  27
ATOM     27  C   UNL     1       0.581   5.543   0.000  0.00  0.00    +0.076 A 
ATOM     28  C   UNL     1       1.425   6.103  -0.949  0.00  0.00    +0.027 A 
ATOM     29  C   UNL     1       1.626   7.469  -0.975  0.00  0.00    +0.002 A 
ATOM     30  C   UNL     1       0.996   8.282  -0.050  0.00  0.00    +0.004 A 
ATOM     31  C   UNL     1       0.158   7.732   0.902  0.00  0.00    +0.047 A 
ATOM     32  C   UNL     1      -0.053   6.363   0.932  0.00  0.00    +0.138 A 
BRANCH  32  33
ATOM     33  O   UNL     1      -0.877   5.820   1.868  0.00  0.00    -0.505 OA
ATOM     34  H   UNL     1      -0.429   5.569   2.688  0.00  0.00    +0.292 HD
ENDBRANCH  32  33
ENDBRANCH  25  27
ENDBRANCH   1  23
TORSDOF 8
