REMARK  Name = ZINC01339798
REMARK  5 active torsions:
REMARK  status: ('A' for Active; 'I' for Inactive)
REMARK    1  A    between atoms: C_3  and  C_7
REMARK    2  A    between atoms: N_9  and  C_10
REMARK    3  A    between atoms: N_9  and  C_16
REMARK    4  A    between atoms: C_10  and  C_11
REMARK    5  A    between atoms: C_16  and  C_17
REMARK                            x       y       z     vdW  Elec       q    Type
REMARK                         _______ _______ _______ _____ _____    ______ ____
ROOT
ATOM      1  C   UNL     1       3.586  -0.335  -1.699  0.00  0.00    +0.182 C 
ENDROOT
BRANCH   1   2
ATOM      2  C   UNL     1       2.317  -0.881  -2.299  0.00  0.00    +0.128 A 
ATOM      3  N   UNL     1       2.310  -2.138  -2.813  0.00  0.00    -0.309 N 
ATOM      4  H   UNL     1       3.147  -2.683  -2.786  0.00  0.00    +0.170 HD
ATOM      5  C   UNL     1       1.198  -2.665  -3.359  0.00  0.00    +0.260 A 
ATOM      6  O   UNL     1       1.208  -3.795  -3.816  0.00  0.00    -0.267 OA
ATOM      7  C   UNL     1       0.002  -1.876  -3.393  0.00  0.00    +0.075 A 
ATOM      8  C   UNL     1      -1.309  -2.237  -3.930  0.00  0.00    -0.023 A 
ATOM      9  C   UNL     1      -2.284  -1.307  -3.842  0.00  0.00    -0.004 A 
ATOM     10  S   UNL     1      -1.523   0.083  -3.048  0.00  0.00    -0.073 S 
ATOM     11  C   UNL     1       0.106  -0.591  -2.837  0.00  0.00    +0.116 A 
ATOM     12  N   UNL     1       1.241  -0.140  -2.311  0.00  0.00    -0.225 NA
ATOM     13  C   UNL     1      -3.701  -1.430  -4.314  0.00  0.00    +0.043 C 
ATOM     14  C   UNL     1      -3.795  -2.639  -5.255  0.00  0.00    +0.005 C 
ATOM     15  C   UNL     1      -3.095  -3.831  -4.594  0.00  0.00    +0.005 C 
ATOM     16  C   UNL     1      -1.585  -3.596  -4.566  0.00  0.00    +0.037 C 
ENDBRANCH   1   2
BRANCH   1  19
ATOM     17  C   UNL     1       3.649   2.083  -1.997  0.00  0.00    +0.249 C 
ATOM     18  O   UNL     1       3.492   3.213  -1.580  0.00  0.00    -0.270 OA
ATOM     19  N   UNL     1       3.350   1.028  -1.214  0.00  0.00    -0.285 N 
BRANCH  17  22
ATOM     20  C   UNL     1       5.709   2.358  -5.123  0.00  0.00    +0.020 A 
ATOM     21  C   UNL     1       5.258   2.604  -3.838  0.00  0.00    +0.016 A 
ATOM     22  C   UNL     1       4.168   1.865  -3.365  0.00  0.00    +0.055 A 
ATOM     23  C   UNL     1       3.575   0.924  -4.207  0.00  0.00    +0.123 A 
ATOM     24  N   UNL     1       4.037   0.730  -5.425  0.00  0.00    -0.263 NA
ATOM     25  C   UNL     1       5.066   1.408  -5.896  0.00  0.00    +0.111 A 
ENDBRANCH  17  22
BRANCH  19  26
ATOM     26  C   UNL     1       2.789   1.243   0.122  0.00  0.00    +0.150 C 
BRANCH  26  27
ATOM     27  C   UNL     1       1.297   1.429   0.016  0.00  0.00    +0.007 A 
ATOM     28  C   UNL     1       0.315   0.496   0.066  0.00  0.00    +0.013 A 
ATOM     29  C   UNL     1      -1.001   0.901  -0.060  0.00  0.00    +0.008 A 
ATOM     30  C   UNL     1      -1.271   2.220  -0.218  0.00  0.00    +0.045 A 
ATOM     31  S   UNL     1       0.365   2.935  -0.206  0.00  0.00    -0.100 S 
ENDBRANCH  26  27
ENDBRANCH  19  26
ENDBRANCH   1  19
TORSDOF 5
