REMARK  Name = ZINC63587465
REMARK  5 active torsions:
REMARK  status: ('A' for Active; 'I' for Inactive)
REMARK    1  A    between atoms: C_4  and  N_7
REMARK    2  A    between atoms: C_8  and  C_15
REMARK    3  A    between atoms: C_12  and  S_14
REMARK    4  A    between atoms: C_15  and  S_16
REMARK    5  A    between atoms: S_16  and  C_17
REMARK                            x       y       z     vdW  Elec       q    Type
REMARK                         _______ _______ _______ _____ _____    ______ ____
ROOT
ATOM      1  N   UNL     1       3.723  -0.654  -0.175  0.00  0.00    -0.287 N 
ATOM      2  C   UNL     1       3.818  -2.110   0.051  0.00  0.00    +0.167 C 
ATOM      3  N   UNL     1       5.165  -2.473  -0.463  0.00  0.00    -0.233 NA
ATOM      4  N   UNL     1       5.992  -1.322  -0.064  0.00  0.00    -0.226 NA
ATOM      5  C   UNL     1       5.105  -0.152  -0.256  0.00  0.00    +0.214 C 
ATOM      6  H   UNL     1       5.153  -2.579  -1.466  0.00  0.00    +0.143 HD
ATOM      7  H   UNL     1       6.814  -1.249  -0.645  0.00  0.00    +0.143 HD
ENDROOT
BRANCH   1  11
ATOM      8  C   UNL     1       0.232   1.587  -0.534  0.00  0.00    +0.000 A 
ATOM      9  C   UNL     1       1.106   1.496  -1.602  0.00  0.00    +0.002 A 
ATOM     10  C   UNL     1       2.264   0.753  -1.487  0.00  0.00    +0.023 A 
ATOM     11  C   UNL     1       2.552   0.098  -0.296  0.00  0.00    +0.033 A 
ATOM     12  C   UNL     1       1.672   0.193   0.775  0.00  0.00    +0.023 A 
ATOM     13  C   UNL     1       0.515   0.936   0.652  0.00  0.00    +0.002 A 
ENDBRANCH   1  11
BRANCH   5  14
ATOM     14  S   UNL     1       5.401   1.068   1.054  0.00  0.00    -0.139 S 
ATOM     15  H   UNL     1       6.680   1.440   0.869  0.00  0.00    +0.105 HD
ENDBRANCH   5  14
BRANCH   2  16
ATOM     16  C   UNL     1       2.728  -2.846  -0.730  0.00  0.00    +0.112 C 
BRANCH  16  17
ATOM     17  S   UNL     1       2.884  -2.460  -2.496  0.00  0.00    -0.112 S 
BRANCH  17  18
ATOM     18  C   UNL     1       1.538  -3.397  -3.270  0.00  0.00    +0.235 C 
ATOM     19  N   UNL     1       0.251  -3.016  -2.676  0.00  0.00    -0.355 N 
ATOM     20  C   UNL     1      -0.263  -4.084  -2.138  0.00  0.00    +0.061 A 
ATOM     21  C   UNL     1      -1.514  -4.332  -1.408  0.00  0.00    +0.027 A 
ATOM     22  C   UNL     1      -1.786  -5.573  -0.957  0.00  0.00    +0.002 A 
ATOM     23  C   UNL     1      -0.915  -6.659  -1.155  0.00  0.00    +0.002 A 
ATOM     24  C   UNL     1       0.256  -6.542  -1.812  0.00  0.00    +0.027 A 
ATOM     25  C   UNL     1       0.658  -5.234  -2.348  0.00  0.00    +0.061 A 
ATOM     26  N   UNL     1       1.706  -4.832  -3.007  0.00  0.00    -0.355 N 
ATOM     27  H   UNL     1      -0.144  -2.130  -2.683  0.00  0.00    +0.162 HD
ATOM     28  H   UNL     1       2.460  -5.380  -3.276  0.00  0.00    +0.162 HD
ENDBRANCH  17  18
ENDBRANCH  16  17
ENDBRANCH   2  16
TORSDOF 5
