REMARK  Name = ZINC33500579
REMARK  6 active torsions:
REMARK  status: ('A' for Active; 'I' for Inactive)
REMARK    1  A    between atoms: C_1  and  C_2
REMARK    2  A    between atoms: C_7  and  C_9
REMARK    3  A    between atoms: C_7  and  C_10
REMARK    4  A    between atoms: N_11  and  C_13
REMARK    5  A    between atoms: C_16  and  C_22
REMARK    6  A    between atoms: C_18  and  N_19
REMARK                            x       y       z     vdW  Elec       q    Type
REMARK                         _______ _______ _______ _____ _____    ______ ____
ROOT
ATOM      1  C   UNL     1      -0.177   1.268  -0.742  0.00  0.00    +0.013 C 
ATOM      2  C   UNL     1      -0.091  -0.239  -0.457  0.00  0.00    -0.014 C 
ATOM      3  C   UNL     1      -1.492  -0.889  -0.290  0.00  0.00    +0.030 C 
ATOM      4  C   UNL     1      -1.116  -2.375  -0.517  0.00  0.00    +0.075 C 
ATOM      5  C   UNL     1      -0.424  -2.866   0.752  0.00  0.00    +0.028 C 
ATOM      6  C   UNL     1       0.772  -2.029   1.165  0.00  0.00    -0.033 C 
ATOM      7  C   UNL     1       0.710  -0.556   0.804  0.00  0.00    +0.014 C 
ATOM      8  C   UNL     1       2.060  -2.653   0.607  0.00  0.00    +0.011 C 
ATOM      9  C   UNL     1       0.877  -2.117   2.708  0.00  0.00    +0.011 C 
ATOM     10  N   UNL     1      -0.140  -2.354  -1.625  0.00  0.00    -0.325 N 
ATOM     11  C   UNL     1       0.498  -1.029  -1.647  0.00  0.00    +0.112 C 
ENDROOT
BRANCH  10  12
ATOM     12  C   UNL     1       0.125  -3.399  -2.500  0.00  0.00    +0.061 A 
ATOM     13  C   UNL     1       1.084  -4.355  -2.171  0.00  0.00    +0.026 A 
ATOM     14  C   UNL     1       1.348  -5.384  -3.029  0.00  0.00    +0.013 A 
ATOM     15  C   UNL     1       0.652  -5.478  -4.242  0.00  0.00    +0.016 A 
ATOM     16  C   UNL     1      -0.312  -4.515  -4.569  0.00  0.00    +0.045 A 
ATOM     17  C   UNL     1      -0.573  -3.492  -3.702  0.00  0.00    +0.148 A 
BRANCH  17  18
ATOM     18  N   UNL     1      -1.595  -2.478  -4.043  0.00  0.00    +0.058 N 
ATOM     19  O   UNL     1      -2.229  -2.579  -5.068  0.00  0.00    -0.126 OA
ATOM     20  O   UNL     1      -1.797  -1.548  -3.297  0.00  0.00    -0.126 OA
ENDBRANCH  17  18
BRANCH  15  21
ATOM     21  C   UNL     1       0.932  -6.582  -5.168  0.00  0.00    +0.258 C 
ATOM     22  O   UNL     1       1.767  -7.414  -4.883  0.00  0.00    -0.296 OA
ENDBRANCH  15  21
ENDBRANCH  10  12
TORSDOF 3
