REMARK  Name = ZINC24831353
REMARK  7 active torsions:
REMARK  status: ('A' for Active; 'I' for Inactive)
REMARK    1  A    between atoms: C_1  and  C_2
REMARK    2  A    between atoms: C_2  and  C_28
REMARK    3  A    between atoms: N_5  and  C_9
REMARK    4  A    between atoms: C_9  and  C_10
REMARK    5  A    between atoms: C_15  and  C_18
REMARK    6  A    between atoms: C_31  and  O_34
REMARK    7  A    between atoms: O_34  and  C_35
REMARK                            x       y       z     vdW  Elec       q    Type
REMARK                         _______ _______ _______ _____ _____    ______ ____
ROOT
ATOM      1  C   UNL     1       4.020  -0.950  -1.644  0.00  0.00    +0.237 C 
ATOM      2  O   UNL     1       3.975   0.180  -1.206  0.00  0.00    -0.274 OA
ATOM      3  N   UNL     1       5.097  -1.360  -2.343  0.00  0.00    -0.263 N 
ATOM      4  C   UNL     1       6.156  -0.487  -2.562  0.00  0.00    +0.165 A 
ATOM      5  N   UNL     1       7.274  -0.707  -3.219  0.00  0.00    -0.229 NA
ATOM      6  C   UNL     1       8.192   0.234  -3.340  0.00  0.00    +0.057 A 
ATOM      7  C   UNL     1       7.928   1.430  -2.758  0.00  0.00    +0.072 A 
ATOM      8  S   UNL     1       6.316   1.111  -2.058  0.00  0.00    -0.060 S 
ATOM      9  H   UNL     1       5.133  -2.264  -2.693  0.00  0.00    +0.157 HD
ENDROOT
BRANCH   6  10
ATOM     10  C   UNL     1       9.476  -0.009  -4.090  0.00  0.00    +0.014 C 
ATOM     11  C   UNL     1      10.652   0.541  -3.281  0.00  0.00    +0.016 C 
ATOM     12  C   UNL     1      11.955   0.293  -4.043  0.00  0.00    -0.010 C 
ATOM     13  C   UNL     1      12.143  -1.210  -4.257  0.00  0.00    +0.007 C 
ATOM     14  C   UNL     1      10.967  -1.760  -5.066  0.00  0.00    -0.010 C 
ATOM     15  C   UNL     1       9.664  -1.513  -4.305  0.00  0.00    +0.016 C 
ATOM     16  C   UNL     1      10.907  -1.055  -6.423  0.00  0.00    +0.007 C 
ATOM     17  C   UNL     1      10.719   0.448  -6.208  0.00  0.00    -0.010 C 
ATOM     18  C   UNL     1      11.895   0.999  -5.399  0.00  0.00    +0.007 C 
ATOM     19  C   UNL     1       9.415   0.696  -5.447  0.00  0.00    +0.016 C 
ENDBRANCH   6  10
BRANCH   1  20
ATOM     20  C   UNL     1       2.871  -1.896  -1.406  0.00  0.00    +0.214 C 
BRANCH  20  25
ATOM     21  C   UNL     1      -0.019   1.526   0.010  0.00  0.00    +0.047 C 
ATOM     22  C   UNL     1       0.002  -0.004   0.002  0.00  0.00    +0.135 C 
ATOM     23  C   UNL     1       0.815  -0.520  -1.169  0.00  0.00    +0.251 C 
ATOM     24  O   UNL     1       0.595  -0.342  -2.348  0.00  0.00    -0.272 OA
ATOM     25  N   UNL     1       1.833  -1.217  -0.627  0.00  0.00    -0.215 N 
ATOM     26  C   UNL     1       1.777  -1.214   0.710  0.00  0.00    +0.310 C 
ATOM     27  O   UNL     1       2.586  -1.776   1.421  0.00  0.00    -0.252 OA
ATOM     28  N   UNL     1       0.724  -0.519   1.178  0.00  0.00    -0.281 N 
ATOM     29  H   UNL     1       0.487  -0.383   2.109  0.00  0.00    +0.152 HD
BRANCH  22  30
ATOM     30  C   UNL     1      -1.401  -0.551  -0.040  0.00  0.00    -0.015 A 
ATOM     31  C   UNL     1      -2.004  -0.814  -1.256  0.00  0.00    +0.010 A 
ATOM     32  C   UNL     1      -3.290  -1.316  -1.298  0.00  0.00    +0.046 A 
ATOM     33  C   UNL     1      -3.978  -1.556  -0.117  0.00  0.00    +0.120 A 
ATOM     34  C   UNL     1      -3.371  -1.292   1.102  0.00  0.00    +0.046 A 
ATOM     35  C   UNL     1      -2.082  -0.796   1.138  0.00  0.00    +0.010 A 
BRANCH  33  36
ATOM     36  O   UNL     1      -5.244  -2.049  -0.155  0.00  0.00    -0.495 OA
ATOM     37  C   UNL     1      -5.891  -2.272   1.099  0.00  0.00    +0.277 C 
ENDBRANCH  33  36
ENDBRANCH  22  30
ENDBRANCH  20  25
ENDBRANCH   1  20
TORSDOF 5
