REMARK  Name = ZINC01167023
REMARK  11 active torsions:
REMARK  status: ('A' for Active; 'I' for Inactive)
REMARK    1  A    between atoms: C_1  and  O_2
REMARK    2  A    between atoms: O_2  and  C_3
REMARK    3  A    between atoms: C_6  and  C_11
REMARK    4  A    between atoms: C_8  and  O_9
REMARK    5  A    between atoms: O_9  and  C_10
REMARK    6  A    between atoms: N_15  and  C_19
REMARK    7  A    between atoms: C_19  and  C_20
REMARK    8  A    between atoms: C_20  and  C_21
REMARK    9  A    between atoms: C_21  and  C_22
REMARK   10  A    between atoms: N_24  and  C_25
REMARK   11  A    between atoms: C_28  and  O_31
REMARK                            x       y       z     vdW  Elec       q    Type
REMARK                         _______ _______ _______ _____ _____    ______ ____
ROOT
ATOM      1  C   UNL     1       7.545  -0.093  -3.206  0.00  0.00    +0.028 C 
ATOM      2  C   UNL     1       6.912   0.344  -2.087  0.00  0.00    +0.077 C 
ATOM      3  C   UNL     1       5.915   1.423  -1.931  0.00  0.00    +0.258 C 
ATOM      4  O   UNL     1       5.533   2.083  -2.879  0.00  0.00    -0.269 OA
ATOM      5  N   UNL     1       5.459   1.635  -0.708  0.00  0.00    -0.255 N 
ATOM      6  C   UNL     1       5.889   0.904   0.341  0.00  0.00    +0.121 C 
ATOM      7  S   UNL     1       5.428   1.030   1.985  0.00  0.00    -0.027 S 
ATOM      8  S   UNL     1       7.053  -0.228  -0.400  0.00  0.00    -0.061 S 
ENDROOT
BRANCH   1  12
ATOM      9  C   UNL     1      10.654  -2.966  -2.904  0.00  0.00    +0.162 A 
ATOM     10  C   UNL     1      10.052  -2.721  -4.131  0.00  0.00    +0.050 A 
ATOM     11  C   UNL     1       9.042  -1.790  -4.234  0.00  0.00    +0.012 A 
ATOM     12  C   UNL     1       8.621  -1.086  -3.099  0.00  0.00    -0.020 A 
ATOM     13  C   UNL     1       9.232  -1.330  -1.863  0.00  0.00    +0.057 A 
ATOM     14  C   UNL     1      10.240  -2.269  -1.769  0.00  0.00    +0.162 A 
BRANCH   9  16
ATOM     15  C   UNL     1      12.024  -4.562  -4.011  0.00  0.00    +0.277 C 
ATOM     16  O   UNL     1      11.649  -3.885  -2.809  0.00  0.00    -0.491 OA
ENDBRANCH   9  16
BRANCH  14  17
ATOM     17  O   UNL     1      10.834  -2.511  -0.570  0.00  0.00    -0.491 OA
ATOM     18  C   UNL     1      10.360  -1.762   0.551  0.00  0.00    +0.277 C 
ENDBRANCH  14  17
ENDBRANCH   1  12
BRANCH   5  19
ATOM     19  C   UNL     1       4.468   2.691  -0.486  0.00  0.00    +0.115 C 
BRANCH  19  20
ATOM     20  C   UNL     1       3.061   2.111  -0.642  0.00  0.00    +0.029 C 
BRANCH  20  21
ATOM     21  C   UNL     1       2.026   3.214  -0.411  0.00  0.00    +0.097 C 
BRANCH  21  22
ATOM     22  C   UNL     1       0.640   2.643  -0.564  0.00  0.00    +0.217 C 
ATOM     23  O   UNL     1       0.494   1.469  -0.831  0.00  0.00    -0.275 OA
ATOM     24  N   UNL     1      -0.437   3.438  -0.408  0.00  0.00    -0.285 N 
ATOM     25  H   UNL     1      -0.323   4.360  -0.130  0.00  0.00    +0.155 HD
BRANCH  24  26
ATOM     26  C   UNL     1      -1.721   2.932  -0.649  0.00  0.00    +0.034 A 
ATOM     27  C   UNL     1      -2.692   3.745  -1.219  0.00  0.00    +0.027 A 
ATOM     28  C   UNL     1      -3.956   3.244  -1.461  0.00  0.00    +0.047 A 
ATOM     29  C   UNL     1      -4.259   1.933  -1.125  0.00  0.00    +0.117 A 
ATOM     30  C   UNL     1      -3.291   1.122  -0.551  0.00  0.00    +0.047 A 
ATOM     31  C   UNL     1      -2.025   1.620  -0.314  0.00  0.00    +0.027 A 
BRANCH  29  32
ATOM     32  O   UNL     1      -5.506   1.442  -1.358  0.00  0.00    -0.507 OA
ATOM     33  H   UNL     1      -6.121   1.565  -0.622  0.00  0.00    +0.292 HD
ENDBRANCH  29  32
ENDBRANCH  24  26
ENDBRANCH  21  22
ENDBRANCH  20  21
ENDBRANCH  19  20
ENDBRANCH   5  19
TORSDOF 9
