REMARK  Name = ZINC05589971
REMARK  5 active torsions:
REMARK  status: ('A' for Active; 'I' for Inactive)
REMARK    1  A    between atoms: C_4  and  C_7
REMARK    2  A    between atoms: N_9  and  C_19
REMARK    3  A    between atoms: N_12  and  C_13
REMARK    4  A    between atoms: C_19  and  N_51
REMARK    5  A    between atoms: C_23  and  C_26
REMARK                            x       y       z     vdW  Elec       q    Type
REMARK                         _______ _______ _______ _____ _____    ______ ____
ROOT
ATOM      1  C   UNL     1      -1.673   2.964  -0.941  0.00  0.00    +0.167 A 
ATOM      2  N   UNL     1      -2.842   3.418  -0.585  0.00  0.00    -0.152 NA
ATOM      3  N   UNL     1      -3.198   2.800   0.622  0.00  0.00    -0.257 N 
ATOM      4  C   UNL     1      -2.198   1.961   0.959  0.00  0.00    +0.181 A 
ATOM      5  S   UNL     1      -2.142   0.964   2.350  0.00  0.00    -0.011 S 
ATOM      6  N   UNL     1      -1.252   2.047   0.004  0.00  0.00    -0.271 N 
ENDROOT
BRANCH   1  10
ATOM      7  C   UNL     1       0.473   4.101  -4.427  0.00  0.00    +0.000 A 
ATOM      8  C   UNL     1       0.797   2.927  -3.771  0.00  0.00    +0.001 A 
ATOM      9  C   UNL     1       0.104   2.553  -2.638  0.00  0.00    +0.011 A 
ATOM     10  C   UNL     1      -0.926   3.360  -2.155  0.00  0.00    +0.020 A 
ATOM     11  C   UNL     1      -1.252   4.539  -2.825  0.00  0.00    +0.011 A 
ATOM     12  C   UNL     1      -0.548   4.906  -3.954  0.00  0.00    +0.001 A 
ENDBRANCH   1  10
BRANCH   6  13
ATOM     13  C   UNL     1      -0.046   1.335  -0.024  0.00  0.00    +0.050 A 
ATOM     14  C   UNL     1       1.160   2.002   0.147  0.00  0.00    +0.026 A 
ATOM     15  C   UNL     1       2.348   1.298   0.113  0.00  0.00    +0.002 A 
ATOM     16  C   UNL     1       2.337  -0.070  -0.091  0.00  0.00    +0.000 A 
ATOM     17  C   UNL     1       1.138  -0.737  -0.261  0.00  0.00    +0.002 A 
ATOM     18  C   UNL     1      -0.053  -0.038  -0.229  0.00  0.00    +0.026 A 
ENDBRANCH   6  13
BRANCH   3  19
ATOM     19  C   UNL     1      -4.433   3.025   1.378  0.00  0.00    +0.072 C 
BRANCH  19  25
ATOM     20  C   UNL     1      -3.246   3.744   3.362  0.00  0.00    -0.076 C 
ATOM     21  C   UNL     1      -2.949   4.953   4.253  0.00  0.00    -0.018 C 
ATOM     22  C   UNL     1      -4.248   5.426   4.911  0.00  0.00    +0.009 C 
ATOM     23  C   UNL     1      -5.269   5.765   3.822  0.00  0.00    +0.058 C 
ATOM     24  C   UNL     1      -5.498   4.533   2.944  0.00  0.00    -0.064 C 
ATOM     25  N   UNL     1      -4.216   4.143   2.320  0.00  0.00    +0.393 N 
ATOM     26  H   UNL     1      -3.839   4.946   1.804  0.00  0.00    -0.079 HD
BRANCH  23  27
ATOM     27  C   UNL     1      -6.570   6.176   4.462  0.00  0.00    +0.212 C 
ATOM     28  O   UNL     1      -7.582   5.546   4.238  0.00  0.00    -0.276 OA
ATOM     29  N   UNL     1      -6.609   7.244   5.284  0.00  0.00    -0.329 N 
ATOM     30  H   UNL     1      -5.800   7.748   5.463  0.00  0.00    +0.145 HD
ATOM     31  H   UNL     1      -7.447   7.508   5.696  0.00  0.00    +0.145 HD
ENDBRANCH  23  27
ENDBRANCH  19  25
ENDBRANCH   3  19
TORSDOF 5
