REMARK  Name = ZINC35926433
REMARK  10 active torsions:
REMARK  status: ('A' for Active; 'I' for Inactive)
REMARK    1  A    between atoms: C_1  and  C_2
REMARK    2  A    between atoms: C_2  and  C_3
REMARK    3  A    between atoms: C_3  and  C_4
REMARK    4  A    between atoms: C_4  and  C_5
REMARK    5  A    between atoms: C_5  and  C_6
REMARK    6  A    between atoms: C_6  and  C_7
REMARK    7  A    between atoms: C_21  and  C_23
REMARK    8  A    between atoms: C_23  and  N_24
REMARK    9  A    between atoms: N_27  and  C_30
REMARK   10  A    between atoms: C_35  and  C_36
REMARK                            x       y       z     vdW  Elec       q    Type
REMARK                         _______ _______ _______ _____ _____    ______ ____
ROOT
ATOM      1  C   UNL     1       4.320  -4.538   2.488  0.00  0.00    +0.216 C 
ATOM      2  O   UNL     1       3.740  -4.136   1.502  0.00  0.00    -0.276 OA
ATOM      3  N   UNL     1       4.463  -5.863   2.693  0.00  0.00    -0.298 N 
ATOM      4  C   UNL     1       5.158  -6.364   3.887  0.00  0.00    +0.126 C 
ATOM      5  C   UNL     1       4.224  -7.330   4.628  0.00  0.00    +0.127 C 
ATOM      6  N   UNL     1       3.688  -8.299   3.661  0.00  0.00    -0.298 N 
ATOM      7  C   UNL     1       2.993  -7.797   2.467  0.00  0.00    +0.127 C 
ATOM      8  C   UNL     1       3.922  -6.831   1.729  0.00  0.00    +0.126 C 
ATOM      9  C   UNL     1       3.833  -9.644   3.869  0.00  0.00    +0.198 A 
ATOM     10  N   UNL     1       4.571 -10.081   4.925  0.00  0.00    -0.295 N 
ATOM     11  H   UNL     1       4.990  -9.443   5.524  0.00  0.00    +0.172 HD
ATOM     12  C   UNL     1       4.719 -11.406   5.137  0.00  0.00    +0.253 A 
ATOM     13  O   UNL     1       5.377 -11.816   6.080  0.00  0.00    -0.268 OA
ATOM     14  C   UNL     1       4.099 -12.306   4.251  0.00  0.00    +0.091 A 
ATOM     15  C   UNL     1       3.372 -11.809   3.209  0.00  0.00    +0.034 A 
ATOM     16  N   UNL     1       3.252 -10.493   3.046  0.00  0.00    -0.223 NA
ENDROOT
BRANCH   1  17
ATOM     17  C   UNL     1       4.880  -3.557   3.485  0.00  0.00    +0.096 C 
BRANCH  17  18
ATOM     18  C   UNL     1       4.583  -2.130   3.019  0.00  0.00    +0.009 C 
BRANCH  18  19
ATOM     19  C   UNL     1       5.152  -1.134   4.031  0.00  0.00    +0.000 C 
BRANCH  19  20
ATOM     20  C   UNL     1       4.855   0.293   3.564  0.00  0.00    -0.000 C 
BRANCH  20  22
ATOM     21  C   UNL     1       5.127   2.716   4.110  0.00  0.00    +0.004 C 
ATOM     22  C   UNL     1       5.424   1.289   4.576  0.00  0.00    -0.003 C 
ENDBRANCH  20  22
ENDBRANCH  19  20
ENDBRANCH  18  19
ENDBRANCH  17  18
ENDBRANCH   1  17
BRANCH  15  23
ATOM     23  C   UNL     1       2.698 -12.751   2.246  0.00  0.00    -0.022 C 
BRANCH  23  24
ATOM     24  N   UNL     1       1.240 -12.600   2.351  0.00  0.00    +0.385 N 
ATOM     25  C   UNL     1       0.858 -11.249   1.921  0.00  0.00    -0.059 C 
ATOM     26  C   UNL     1      -0.646 -11.052   2.139  0.00  0.00    +0.086 C 
ATOM     27  N   UNL     1      -1.363 -12.135   1.449  0.00  0.00    -0.333 N 
ATOM     28  C   UNL     1      -0.934 -13.520   1.698  0.00  0.00    +0.086 C 
ATOM     29  C   UNL     1       0.583 -13.600   1.501  0.00  0.00    -0.059 C 
ATOM     30  H   UNL     1       0.958 -12.738   3.310  0.00  0.00    -0.081 HD
BRANCH  27  31
ATOM     31  C   UNL     1      -2.422 -11.856   0.582  0.00  0.00    +0.033 A 
ATOM     32  C   UNL     1      -2.179 -11.648  -0.770  0.00  0.00    +0.023 A 
ATOM     33  C   UNL     1      -3.228 -11.373  -1.625  0.00  0.00    +0.002 A 
ATOM     34  C   UNL     1      -4.521 -11.305  -1.136  0.00  0.00    +0.000 A 
ATOM     35  C   UNL     1      -4.766 -11.511   0.209  0.00  0.00    +0.005 A 
ATOM     36  C   UNL     1      -3.722 -11.792   1.068  0.00  0.00    -0.029 A 
ATOM     37  C   UNL     1      -3.991 -12.023   2.533  0.00  0.00    +0.045 C 
ENDBRANCH  27  31
ENDBRANCH  23  24
ENDBRANCH  15  23
TORSDOF 8
