REMARK  Name = ZINC20328999
REMARK  8 active torsions:
REMARK  status: ('A' for Active; 'I' for Inactive)
REMARK    1  A    between atoms: C_1  and  C_2
REMARK    2  A    between atoms: C_3  and  C_27
REMARK    3  A    between atoms: C_4  and  N_26
REMARK    4  A    between atoms: C_11  and  C_17
REMARK    5  A    between atoms: C_14  and  O_16
REMARK    6  A    between atoms: C_20  and  O_25
REMARK    7  A    between atoms: C_21  and  O_23
REMARK    8  A    between atoms: O_23  and  C_24
REMARK                            x       y       z     vdW  Elec       q    Type
REMARK                         _______ _______ _______ _____ _____    ______ ____
ROOT
ATOM      1  C   UNL     1      -0.018   1.503   0.010  0.00  0.00    +0.046 C 
ATOM      2  C   UNL     1       0.002  -0.004   0.002  0.00  0.00    -0.014 A 
ATOM      3  C   UNL     1       0.006  -0.720  -1.205  0.00  0.00    +0.095 A 
ATOM      4  C   UNL     1       0.026  -2.128  -1.142  0.00  0.00    +0.135 A 
ATOM      5  N   UNL     1       0.039  -2.769   0.003  0.00  0.00    -0.230 NA
ATOM      6  C   UNL     1       0.036  -2.132   1.199  0.00  0.00    +0.086 A 
ATOM      7  C   UNL     1       0.023  -0.716   1.174  0.00  0.00    +0.044 A 
ATOM      8  S   UNL     1       0.034  -0.268   2.893  0.00  0.00    -0.067 S 
ATOM      9  C   UNL     1       0.071  -1.900   3.573  0.00  0.00    +0.111 A 
ATOM     10  C   UNL     1       0.047  -2.729   2.475  0.00  0.00    +0.019 A 
ATOM     11  C   UNL     1       0.038  -4.238   2.707  0.00  0.00    +0.063 C 
ATOM     12  C   UNL     1       0.765  -4.519   4.023  0.00  0.00    +0.108 C 
ATOM     13  C   UNL     1       0.347  -3.566   5.106  0.00  0.00    +0.189 C 
ATOM     14  N   UNL     1       0.086  -2.317   4.855  0.00  0.00    -0.210 NA
ENDROOT
BRANCH  11  15
ATOM     15  C   UNL     1       0.749  -4.931   1.573  0.00  0.00    -0.036 A 
ATOM     16  C   UNL     1       2.078  -4.649   1.317  0.00  0.00    +0.008 A 
ATOM     17  C   UNL     1       2.735  -5.282   0.278  0.00  0.00    +0.049 A 
ATOM     18  C   UNL     1       2.061  -6.203  -0.508  0.00  0.00    +0.158 A 
ATOM     19  C   UNL     1       0.724  -6.488  -0.250  0.00  0.00    +0.162 A 
ATOM     20  C   UNL     1       0.073  -5.853   0.796  0.00  0.00    +0.053 A 
BRANCH  19  21
ATOM     21  O   UNL     1       0.058  -7.391  -1.019  0.00  0.00    -0.491 OA
ATOM     22  C   UNL     1      -1.312  -7.633  -0.696  0.00  0.00    +0.277 C 
ENDBRANCH  19  21
BRANCH  18  23
ATOM     23  O   UNL     1       2.705  -6.826  -1.531  0.00  0.00    -0.503 OA
ATOM     24  H   UNL     1       3.136  -7.654  -1.278  0.00  0.00    +0.292 HD
ENDBRANCH  18  23
ENDBRANCH  11  15
BRANCH   4  25
ATOM     25  N   UNL     1       0.030  -2.856  -2.321  0.00  0.00    -0.342 N 
ATOM     26  H   UNL     1       0.020  -2.396  -3.175  0.00  0.00    +0.144 HD
ATOM     27  H   UNL     1       0.043  -3.825  -2.293  0.00  0.00    +0.144 HD
ENDBRANCH   4  25
BRANCH  13  28
ATOM     28  O   UNL     1       0.264  -4.014   6.374  0.00  0.00    -0.495 OA
ATOM     29  H   UNL     1      -0.011  -3.341   7.011  0.00  0.00    +0.293 HD
ENDBRANCH  13  28
BRANCH   3  30
ATOM     30  C   UNL     1      -0.009  -0.039  -2.465  0.00  0.00    +0.103 C 
ATOM     31  N   UNL     1      -0.021   0.500  -3.465  0.00  0.00    -0.191 NA
ENDBRANCH   3  30
TORSDOF 6
