REMARK  Name = ZINC11539300
REMARK  13 active torsions:
REMARK  status: ('A' for Active; 'I' for Inactive)
REMARK    1  A    between atoms: C_1  and  C_2
REMARK    2  A    between atoms: C_2  and  O_3
REMARK    3  A    between atoms: O_3  and  C_4
REMARK    4  A    between atoms: C_4  and  C_6
REMARK    5  A    between atoms: C_7  and  C_21
REMARK    6  A    between atoms: C_12  and  C_14
REMARK    7  A    between atoms: C_21  and  O_22
REMARK    8  A    between atoms: O_22  and  C_23
REMARK    9  A    between atoms: C_23  and  C_25
REMARK   10  A    between atoms: C_26  and  C_33
REMARK   11  A    between atoms: C_29  and  C_30
REMARK   12  A    between atoms: C_30  and  C_31
REMARK   13  A    between atoms: C_30  and  C_32
REMARK                            x       y       z     vdW  Elec       q    Type
REMARK                         _______ _______ _______ _____ _____    ______ ____
ROOT
ATOM      1  C   UNL     1       4.335   2.151   1.077  0.00  0.00    +0.081 C 
ATOM      2  C   UNL     1       3.631   1.972  -0.061  0.00  0.00    +0.061 C 
ATOM      3  N   UNL     1       3.899   2.710  -1.179  0.00  0.00    -0.269 N 
ATOM      4  C   UNL     1       4.848   3.653  -1.236  0.00  0.00    +0.304 C 
ATOM      5  O   UNL     1       5.009   4.262  -2.276  0.00  0.00    -0.252 OA
ATOM      6  N   UNL     1       5.633   3.946  -0.180  0.00  0.00    -0.288 N 
ATOM      7  C   UNL     1       5.427   3.201   1.073  0.00  0.00    +0.144 C 
ATOM      8  H   UNL     1       3.370   2.543  -1.975  0.00  0.00    +0.156 HD
ATOM      9  H   UNL     1       6.316   4.631  -0.245  0.00  0.00    +0.151 HD
ENDROOT
BRANCH   7  10
ATOM     10  C   UNL     1       6.725   2.523   1.429  0.00  0.00    -0.022 A 
ATOM     11  C   UNL     1       7.419   1.812   0.468  0.00  0.00    +0.007 A 
ATOM     12  C   UNL     1       8.613   1.195   0.792  0.00  0.00    +0.020 A 
ATOM     13  C   UNL     1       9.107   1.279   2.081  0.00  0.00    +0.041 A 
ATOM     14  C   UNL     1       8.409   1.986   3.044  0.00  0.00    +0.020 A 
ATOM     15  C   UNL     1       7.219   2.608   2.717  0.00  0.00    +0.007 A 
ATOM     16 CL   UNL     1      10.603   0.498   2.490  0.00  0.00    -0.084 Cl
ENDBRANCH   7  10
BRANCH   1  17
ATOM     17  C   UNL     1       4.062   1.384   2.234  0.00  0.00    +0.339 C 
ATOM     18  O   UNL     1       3.410   1.864   3.142  0.00  0.00    -0.245 OA
BRANCH  17  19
ATOM     19  O   UNL     1       4.525   0.120   2.331  0.00  0.00    -0.462 OA
BRANCH  19  21
ATOM     20  C   UNL     1       4.816  -1.999   3.454  0.00  0.00    +0.048 C 
ATOM     21  C   UNL     1       4.211  -0.596   3.527  0.00  0.00    +0.229 C 
ENDBRANCH  19  21
ENDBRANCH  17  19
ENDBRANCH   1  17
BRANCH   2  22
ATOM     22  C   UNL     1       2.537   0.937  -0.101  0.00  0.00    +0.283 C 
BRANCH  22  23
ATOM     23  O   UNL     1       1.256   1.595  -0.290  0.00  0.00    -0.455 OA
BRANCH  23  24
ATOM     24  C   UNL     1       0.165   0.805  -0.348  0.00  0.00    +0.345 C 
ATOM     25  O   UNL     1       0.282  -0.400  -0.244  0.00  0.00    -0.245 OA
BRANCH  24  26
ATOM     26  C   UNL     1      -1.166   1.402  -0.545  0.00  0.00    +0.124 A 
ATOM     27  C   UNL     1      -1.864   1.693  -1.807  0.00  0.00    +0.095 A 
ATOM     28  N   UNL     1      -3.005   2.210  -1.458  0.00  0.00    -0.082 NA
ATOM     29  O   UNL     1      -3.123   2.293  -0.260  0.00  0.00    -0.358 OA
ATOM     30  C   UNL     1      -2.062   1.830   0.405  0.00  0.00    +0.154 A 
ATOM     31  C   UNL     1      -1.364   1.442  -3.207  0.00  0.00    +0.070 C 
BRANCH  30  32
ATOM     32  C   UNL     1      -1.883   1.787   1.901  0.00  0.00    +0.053 C 
ATOM     33  C   UNL     1      -1.960   3.207   2.465  0.00  0.00    +0.015 C 
ATOM     34  C   UNL     1      -2.988   0.930   2.522  0.00  0.00    +0.015 C 
ENDBRANCH  30  32
ENDBRANCH  24  26
ENDBRANCH  23  24
ENDBRANCH  22  23
ENDBRANCH   2  22
TORSDOF 9
