REMARK  Name = ZINC09517252
REMARK  12 active torsions:
REMARK  status: ('A' for Active; 'I' for Inactive)
REMARK    1  A    between atoms: C_1  and  C_2
REMARK    2  A    between atoms: C_2  and  O_3
REMARK    3  A    between atoms: O_3  and  C_4
REMARK    4  A    between atoms: C_7  and  C_10
REMARK    5  A    between atoms: C_10  and  C_12
REMARK    6  A    between atoms: C_10  and  N_22
REMARK    7  A    between atoms: C_13  and  O_21
REMARK    8  A    between atoms: C_18  and  C_20
REMARK    9  A    between atoms: C_26  and  C_29
REMARK   10  A    between atoms: C_29  and  O_31
REMARK   11  A    between atoms: O_31  and  C_32
REMARK   12  A    between atoms: C_32  and  C_33
REMARK                            x       y       z     vdW  Elec       q    Type
REMARK                         _______ _______ _______ _____ _____    ______ ____
ROOT
ATOM      1  C   UNL     1       1.109  -6.040  -1.847  0.00  0.00    +0.005 C 
ENDROOT
BRANCH   1   2
ATOM      2  C   UNL     1       2.484  -6.490  -1.426  0.00  0.00    +0.045 A 
ATOM      3  C   UNL     1       2.837  -7.292  -0.414  0.00  0.00    +0.225 A 
ATOM      4  N   UNL     1       4.159  -7.590  -0.186  0.00  0.00    -0.173 N 
ATOM      5  C   UNL     1       5.077  -7.039  -1.026  0.00  0.00    +0.199 A 
ATOM      6  S   UNL     1       4.070  -6.100  -2.150  0.00  0.00    -0.050 S 
ATOM      7  N   UNL     1       6.276  -7.418  -0.676  0.00  0.00    -0.205 NA
ATOM      8  C   UNL     1       6.191  -8.216   0.387  0.00  0.00    +0.150 A 
ATOM      9  N   UNL     1       4.937  -8.353   0.724  0.00  0.00    -0.147 NA
ATOM     10  C   UNL     1       7.359  -8.859   1.089  0.00  0.00    +0.090 C 
BRANCH   3  11
ATOM     11  O   UNL     1       1.879  -7.815   0.397  0.00  0.00    -0.492 OA
ATOM     12  H   UNL     1       2.225  -8.382   1.100  0.00  0.00    +0.294 HD
ENDBRANCH   3  11
ENDBRANCH   1   2
BRANCH   1  13
ATOM     13  N   UNL     1       0.894  -6.381  -3.260  0.00  0.00    +0.388 N 
ATOM     14  C   UNL     1      -0.442  -5.934  -3.671  0.00  0.00    -0.077 C 
ATOM     15  C   UNL     1      -0.641  -6.213  -5.163  0.00  0.00    -0.018 C 
ATOM     16  C   UNL     1      -0.503  -7.717  -5.417  0.00  0.00    +0.011 C 
ATOM     17  C   UNL     1       0.866  -8.187  -4.916  0.00  0.00    +0.081 C 
ATOM     18  C   UNL     1       1.008  -7.834  -3.434  0.00  0.00    -0.063 C 
ATOM     19  H   UNL     1       1.590  -5.919  -3.826  0.00  0.00    -0.080 HD
BRANCH  17  20
ATOM     20  C   UNL     1       0.982  -9.679  -5.092  0.00  0.00    +0.308 C 
ATOM     21  O   UNL     1       1.164 -10.388  -4.131  0.00  0.00    -0.251 OA
BRANCH  20  22
ATOM     22  O   UNL     1       0.882 -10.220  -6.317  0.00  0.00    -0.465 OA
BRANCH  22  23
ATOM     23  C   UNL     1       1.002 -11.641  -6.410  0.00  0.00    +0.229 C 
ATOM     24  C   UNL     1       0.863 -12.069  -7.872  0.00  0.00    +0.048 C 
ENDBRANCH  22  23
ENDBRANCH  20  22
ENDBRANCH  17  20
ENDBRANCH   1  13
BRANCH   1  28
ATOM     25  C   UNL     1       0.777  -1.810  -1.336  0.00  0.00    +0.121 A 
ATOM     26  C   UNL     1       0.243  -2.669  -0.386  0.00  0.00    +0.046 A 
ATOM     27  C   UNL     1       0.351  -4.036  -0.554  0.00  0.00    +0.006 A 
ATOM     28  C   UNL     1       0.992  -4.548  -1.667  0.00  0.00    -0.056 A 
ATOM     29  C   UNL     1       1.525  -3.694  -2.615  0.00  0.00    +0.006 A 
ATOM     30  C   UNL     1       1.414  -2.327  -2.455  0.00  0.00    +0.046 A 
BRANCH  25  31
ATOM     31  O   UNL     1       0.671  -0.465  -1.174  0.00  0.00    -0.492 OA
BRANCH  31  33
ATOM     32  C   UNL     1      -0.019   1.526   0.010  0.00  0.00    +0.048 C 
ATOM     33  C   UNL     1       0.002  -0.004   0.002  0.00  0.00    +0.225 C 
ENDBRANCH  31  33
ENDBRANCH  25  31
ENDBRANCH   1  28
TORSDOF 9
