REMARK  Name = ZINC39675329
REMARK  10 active torsions:
REMARK  status: ('A' for Active; 'I' for Inactive)
REMARK    1  A    between atoms: C_1  and  C_2
REMARK    2  A    between atoms: C_6  and  C_9
REMARK    3  A    between atoms: C_13  and  C_22
REMARK    4  A    between atoms: N_24  and  C_25
REMARK    5  A    between atoms: C_25  and  C_27
REMARK    6  A    between atoms: C_25  and  C_28
REMARK    7  A    between atoms: C_28  and  C_29
REMARK    8  A    between atoms: C_29  and  C_30
REMARK    9  A    between atoms: C_33  and  O_36
REMARK   10  A    between atoms: O_36  and  C_37
REMARK                            x       y       z     vdW  Elec       q    Type
REMARK                         _______ _______ _______ _____ _____    ______ ____
ROOT
ATOM      1  C   UNL     1      -0.111  -2.576   2.253  0.00  0.00    +0.252 C 
ATOM      2  O   UNL     1       1.000  -2.781   2.703  0.00  0.00    -0.270 OA
ATOM      3  N   UNL     1      -1.198  -3.030   2.909  0.00  0.00    -0.296 N 
ATOM      4  C   UNL     1      -2.620  -2.886   2.520  0.00  0.00    +0.121 C 
ATOM      5  C   UNL     1      -3.264  -4.243   2.884  0.00  0.00    +0.100 C 
ATOM      6  C   UNL     1      -2.354  -4.828   3.977  0.00  0.00    -0.004 C 
ATOM      7  C   UNL     1      -1.239  -3.792   4.180  0.00  0.00    +0.115 C 
ATOM      8  C   UNL     1      -1.757  -6.154   3.514  0.00  0.00    -0.010 C 
ATOM      9  C   UNL     1      -0.902  -6.744   4.639  0.00  0.00    -0.082 C 
ATOM     10  N   UNL     1      -1.734  -6.948   5.832  0.00  0.00    +0.379 N 
ATOM     11  C   UNL     1      -2.229  -5.657   6.325  0.00  0.00    -0.082 C 
ATOM     12  C   UNL     1      -3.139  -5.021   5.271  0.00  0.00    -0.010 C 
ATOM     13  H   UNL     1      -2.517  -7.540   5.597  0.00  0.00    -0.086 HD
ATOM     14  H   UNL     1      -1.184  -7.393   6.551  0.00  0.00    -0.086 HD
ENDROOT
BRANCH   1  20
ATOM     15  C   UNL     1      -0.702   1.754  -0.163  0.00  0.00    +0.047 C 
ATOM     16  C   UNL     1      -0.555   0.254  -0.179  0.00  0.00    -0.014 A 
ATOM     17  C   UNL     1      -0.571  -0.427  -1.383  0.00  0.00    +0.009 A 
ATOM     18  C   UNL     1      -0.437  -1.804  -1.410  0.00  0.00    +0.039 A 
ATOM     19  C   UNL     1      -0.287  -2.510  -0.231  0.00  0.00    +0.138 A 
ATOM     20  C   UNL     1      -0.271  -1.830   0.991  0.00  0.00    +0.107 A 
ATOM     21  C   UNL     1      -0.400  -0.437   1.008  0.00  0.00    +0.141 A 
ATOM     22  F   UNL     1      -0.380   0.231   2.182  0.00  0.00    -0.204 F 
ATOM     23  F   UNL     1      -0.158  -3.855  -0.260  0.00  0.00    -0.205 F 
ENDBRANCH   1  20
BRANCH   5  24
ATOM     24  C   UNL     1      -3.292  -5.150   1.681  0.00  0.00    +0.218 C 
ATOM     25  O   UNL     1      -2.423  -5.068   0.839  0.00  0.00    -0.275 OA
ATOM     26  N   UNL     1      -4.283  -6.052   1.540  0.00  0.00    -0.312 N 
ATOM     27  H   UNL     1      -4.979  -6.118   2.213  0.00  0.00    +0.149 HD
BRANCH  26  28
ATOM     28  C   UNL     1      -4.311  -6.934   0.370  0.00  0.00    +0.070 C 
ATOM     29  C   UNL     1      -4.998  -6.216  -0.793  0.00  0.00    +0.028 C 
BRANCH  28  30
ATOM     30  C   UNL     1      -5.084  -8.209   0.711  0.00  0.00    +0.026 C 
BRANCH  30  31
ATOM     31  C   UNL     1      -4.330  -8.990   1.789  0.00  0.00    +0.037 C 
BRANCH  31  32
ATOM     32  C   UNL     1      -5.093 -10.246   2.124  0.00  0.00    -0.047 A 
ATOM     33  C   UNL     1      -6.047 -10.228   3.124  0.00  0.00    +0.007 A 
ATOM     34  C   UNL     1      -6.747 -11.378   3.434  0.00  0.00    +0.046 A 
ATOM     35  C   UNL     1      -6.491 -12.552   2.741  0.00  0.00    +0.120 A 
ATOM     36  C   UNL     1      -5.533 -12.568   1.738  0.00  0.00    +0.046 A 
ATOM     37  C   UNL     1      -4.840 -11.414   1.428  0.00  0.00    +0.007 A 
BRANCH  35  38
ATOM     38  O   UNL     1      -7.178 -13.685   3.044  0.00  0.00    -0.495 OA
ATOM     39  C   UNL     1      -6.862 -14.857   2.289  0.00  0.00    +0.277 C 
ENDBRANCH  35  38
ENDBRANCH  31  32
ENDBRANCH  30  31
ENDBRANCH  28  30
ENDBRANCH  26  28
ENDBRANCH   5  24
TORSDOF 7
