REMARK  Name = ZINC13020850
REMARK  10 active torsions:
REMARK  status: ('A' for Active; 'I' for Inactive)
REMARK    1  A    between atoms: C_1  and  C_2
REMARK    2  A    between atoms: C_5  and  N_9
REMARK    3  A    between atoms: C_6  and  C_8
REMARK    4  A    between atoms: C_10  and  C_12
REMARK    5  A    between atoms: C_12  and  C_14
REMARK    6  A    between atoms: C_12  and  S_15
REMARK    7  A    between atoms: S_15  and  C_16
REMARK    8  A    between atoms: N_26  and  C_27
REMARK    9  A    between atoms: C_27  and  C_28
REMARK   10  A    between atoms: C_28  and  C_29
REMARK                            x       y       z     vdW  Elec       q    Type
REMARK                         _______ _______ _______ _____ _____    ______ ____
ROOT
ATOM      1  C   UNL     1      -1.194   3.410   0.061  0.00  0.00    +0.173 A 
ATOM      2  N   UNL     1      -1.174   2.100   0.064  0.00  0.00    -0.223 NA
ATOM      3  C   UNL     1      -0.009   1.410   0.054  0.00  0.00    +0.080 A 
ATOM      4  C   UNL     1       0.014   0.012   0.051  0.00  0.00    +0.048 A 
ATOM      5  C   UNL     1       1.224  -0.647   0.047  0.00  0.00    +0.043 A 
ATOM      6  C   UNL     1       2.420   0.062   0.044  0.00  0.00    +0.021 A 
ATOM      7  C   UNL     1       2.423   1.428   0.046  0.00  0.00    +0.017 A 
ATOM      8  C   UNL     1       1.213   2.121   0.051  0.00  0.00    +0.065 A 
ATOM      9  C   UNL     1       1.160   3.589   0.054  0.00  0.00    +0.262 A 
ATOM     10  O   UNL     1       2.178   4.256   0.052  0.00  0.00    -0.267 OA
ATOM     11  N   UNL     1      -0.061   4.172   0.058  0.00  0.00    -0.287 N 
ATOM     12 CL   UNL     1       1.254  -2.382   0.043  0.00  0.00    -0.083 Cl
ENDROOT
BRANCH   1  13
ATOM     13  S   UNL     1      -2.756   4.226   0.067  0.00  0.00    -0.075 S 
BRANCH  13  14
ATOM     14  C   UNL     1      -3.860   2.792   0.068  0.00  0.00    +0.137 C 
ATOM     15  C   UNL     1      -3.692   2.018  -1.241  0.00  0.00    +0.029 C 
BRANCH  14  17
ATOM     16  N   UNL     1      -6.220   2.434   0.714  0.00  0.00    -0.284 N 
ATOM     17  C   UNL     1      -5.287   3.257   0.197  0.00  0.00    +0.230 C 
ATOM     18  O   UNL     1      -5.597   4.373  -0.165  0.00  0.00    -0.274 OA
ATOM     19  H   UNL     1      -5.992   1.516   0.929  0.00  0.00    +0.155 HD
BRANCH  16  24
ATOM     20  C   UNL     1     -11.485   4.336   1.635  0.00  0.00    +0.044 C 
ATOM     21  C   UNL     1     -10.087   3.831   1.391  0.00  0.00    -0.050 A 
ATOM     22  C   UNL     1      -9.027   4.719   1.363  0.00  0.00    +0.005 A 
ATOM     23  C   UNL     1      -7.744   4.259   1.139  0.00  0.00    +0.024 A 
ATOM     24  C   UNL     1      -7.519   2.903   0.941  0.00  0.00    +0.036 A 
ATOM     25  C   UNL     1      -8.586   2.014   0.964  0.00  0.00    -0.029 A 
ATOM     26  C   UNL     1      -9.866   2.480   1.194  0.00  0.00    +0.008 A 
ATOM     27  C   UNL     1      -8.346   0.543   0.745  0.00  0.00    +0.045 C 
ENDBRANCH  16  24
ENDBRANCH  14  17
ENDBRANCH  13  14
ENDBRANCH   1  13
BRANCH  11  28
ATOM     28  C   UNL     1      -0.168   5.633   0.061  0.00  0.00    +0.138 C 
BRANCH  28  29
ATOM     29  C   UNL     1      -0.210   6.144  -1.380  0.00  0.00    +0.147 C 
BRANCH  29  30
ATOM     30  C   UNL     1      -0.320   7.647  -1.377  0.00  0.00    +0.358 C 
ATOM     31  O   UNL     1      -0.361   8.248  -0.329  0.00  0.00    -0.246 OA
ATOM     32  O   UNL     1      -0.372   8.319  -2.538  0.00  0.00    -0.246 OA
ENDBRANCH  29  30
ENDBRANCH  28  29
ENDBRANCH  11  28
TORSDOF 7
