REMARK  Name = ZINC36159319
REMARK  11 active torsions:
REMARK  status: ('A' for Active; 'I' for Inactive)
REMARK    1  A    between atoms: C_1  and  C_2
REMARK    2  A    between atoms: C_2  and  C_3
REMARK    3  A    between atoms: C_3  and  N_4
REMARK    4  A    between atoms: N_4  and  C_5
REMARK    5  A    between atoms: N_4  and  C_21
REMARK    6  A    between atoms: C_5  and  C_6
REMARK    7  A    between atoms: C_21  and  C_22
REMARK    8  A    between atoms: C_22  and  C_24
REMARK    9  A    between atoms: C_22  and  O_32
REMARK   10  A    between atoms: C_24  and  O_25
REMARK   11  A    between atoms: O_25  and  C_26
REMARK                            x       y       z     vdW  Elec       q    Type
REMARK                         _______ _______ _______ _____ _____    ______ ____
ROOT
ATOM      1  N   UNL     1       0.662  -1.977   1.299  0.00  0.00    +0.386 N 
ATOM      2  H   UNL     1      -0.308  -2.209   1.147  0.00  0.00    -0.081 HD
ENDROOT
BRANCH   1   3
ATOM      3  C   UNL     1       0.822  -0.517   1.305  0.00  0.00    -0.078 C 
BRANCH   3   5
ATOM      4  C   UNL     1       0.273   1.595   0.086  0.00  0.00    +0.002 C 
ATOM      5  C   UNL     1       0.228   0.067   0.021  0.00  0.00    -0.022 C 
ENDBRANCH   3   5
ENDBRANCH   1   3
BRANCH   1   6
ATOM      6  C   UNL     1       1.101  -2.523   2.590  0.00  0.00    -0.003 C 
BRANCH   6   7
ATOM      7  C   UNL     1       0.187  -2.026   3.681  0.00  0.00    +0.094 A 
ATOM      8  N   UNL     1       0.414  -2.406   4.965  0.00  0.00    -0.312 N 
ATOM      9  H   UNL     1       1.161  -2.992   5.162  0.00  0.00    +0.170 HD
ATOM     10  C   UNL     1      -0.378  -1.986   5.970  0.00  0.00    +0.260 A 
ATOM     11  O   UNL     1      -0.160  -2.335   7.117  0.00  0.00    -0.267 OA
ATOM     12  C   UNL     1      -1.480  -1.121   5.668  0.00  0.00    +0.075 A 
ATOM     13  C   UNL     1      -2.462  -0.546   6.587  0.00  0.00    -0.023 A 
ATOM     14  C   UNL     1      -3.413   0.247   6.049  0.00  0.00    -0.004 A 
ATOM     15  S   UNL     1      -3.059   0.274   4.312  0.00  0.00    -0.073 S 
ATOM     16  C   UNL     1      -1.634  -0.783   4.314  0.00  0.00    +0.116 A 
ATOM     17  N   UNL     1      -0.806  -1.234   3.376  0.00  0.00    -0.229 NA
ATOM     18  C   UNL     1      -4.524   0.948   6.769  0.00  0.00    +0.043 C 
ATOM     19  C   UNL     1      -4.653   0.337   8.172  0.00  0.00    +0.005 C 
ATOM     20  C   UNL     1      -3.259   0.253   8.800  0.00  0.00    +0.005 C 
ATOM     21  C   UNL     1      -2.432  -0.818   8.088  0.00  0.00    +0.037 C 
ENDBRANCH   6   7
ENDBRANCH   1   6
BRANCH   1  22
ATOM     22  C   UNL     1       1.478  -2.554   0.221  0.00  0.00    -0.043 C 
BRANCH  22  23
ATOM     23  C   UNL     1       1.198  -4.055   0.119  0.00  0.00    +0.135 C 
BRANCH  23  24
ATOM     24  O   UNL     1      -0.185  -4.263  -0.172  0.00  0.00    -0.390 OA
ATOM     25  H   UNL     1      -0.460  -3.928  -1.036  0.00  0.00    +0.210 HD
ENDBRANCH  23  24
BRANCH  23  26
ATOM     26  C   UNL     1       2.051  -4.657  -1.000  0.00  0.00    +0.258 C 
BRANCH  26  27
ATOM     27  O   UNL     1       1.879  -6.075  -1.020  0.00  0.00    -0.489 OA
BRANCH  27  28
ATOM     28  C   UNL     1       2.571  -6.768  -1.962  0.00  0.00    +0.121 A 
ATOM     29  C   UNL     1       3.405  -6.097  -2.845  0.00  0.00    +0.045 A 
ATOM     30  C   UNL     1       4.108  -6.803  -3.801  0.00  0.00    +0.004 A 
ATOM     31  C   UNL     1       3.982  -8.178  -3.879  0.00  0.00    +0.000 A 
ATOM     32  C   UNL     1       3.152  -8.849  -3.000  0.00  0.00    +0.004 A 
ATOM     33  C   UNL     1       2.451  -8.148  -2.038  0.00  0.00    +0.045 A 
ENDBRANCH  27  28
ENDBRANCH  26  27
ENDBRANCH  23  26
ENDBRANCH  22  23
ENDBRANCH   1  22
TORSDOF 10
