REMARK  Name = ZINC64050287
REMARK  9 active torsions:
REMARK  status: ('A' for Active; 'I' for Inactive)
REMARK    1  A    between atoms: C_1  and  O_2
REMARK    2  A    between atoms: O_2  and  C_3
REMARK    3  A    between atoms: C_5  and  C_12
REMARK    4  A    between atoms: C_8  and  O_9
REMARK    5  A    between atoms: O_9  and  C_10
REMARK    6  A    between atoms: C_12  and  N_13
REMARK    7  A    between atoms: N_13  and  C_14
REMARK    8  A    between atoms: C_14  and  C_15
REMARK    9  A    between atoms: C_15  and  C_16
REMARK                            x       y       z     vdW  Elec       q    Type
REMARK                         _______ _______ _______ _____ _____    ______ ____
ROOT
ATOM      1  N   UNL     1       3.865   0.360  -4.098  0.00  0.00    +0.382 N 
ATOM      2  H   UNL     1       4.126   0.737  -3.199  0.00  0.00    -0.085 HD
ATOM      3  H   UNL     1       4.196  -0.590  -4.173  0.00  0.00    -0.085 HD
ENDROOT
BRANCH   1   4
ATOM      4  C   UNL     1       2.402   0.380  -4.231  0.00  0.00    -0.046 C 
BRANCH   4   7
ATOM      5  C   UNL     1       0.606  -0.608  -1.057  0.00  0.00    +0.162 A 
ATOM      6  C   UNL     1       1.173   0.159  -2.062  0.00  0.00    +0.052 A 
ATOM      7  C   UNL     1       1.787  -0.456  -3.138  0.00  0.00    -0.047 A 
ATOM      8  C   UNL     1       1.837  -1.836  -3.213  0.00  0.00    +0.023 A 
ATOM      9  C   UNL     1       1.273  -2.607  -2.212  0.00  0.00    +0.065 A 
ATOM     10  C   UNL     1       0.662  -1.996  -1.129  0.00  0.00    +0.163 A 
ATOM     11 BR   UNL     1       2.678  -2.671  -4.686  0.00  0.00    -0.050 Br
BRANCH   5  13
ATOM     12  C   UNL     1      -0.017   1.425   0.010  0.00  0.00    +0.277 C 
ATOM     13  O   UNL     1       0.002  -0.004   0.002  0.00  0.00    -0.491 OA
ENDBRANCH   5  13
BRANCH  10  14
ATOM     14  O   UNL     1       0.112  -2.752  -0.141  0.00  0.00    -0.491 OA
ATOM     15  C   UNL     1       0.207  -4.171  -0.282  0.00  0.00    +0.277 C 
ENDBRANCH  10  14
ENDBRANCH   4   7
ENDBRANCH   1   4
BRANCH   1  16
ATOM     16  C   UNL     1       4.464   1.175  -5.163  0.00  0.00    -0.078 C 
BRANCH  16  17
ATOM     17  C   UNL     1       5.988   1.154  -5.025  0.00  0.00    +0.014 C 
BRANCH  17  18
ATOM     18  C   UNL     1       6.603   1.989  -6.117  0.00  0.00    -0.043 C 
ATOM     19  C   UNL     1       6.980   3.286  -6.036  0.00  0.00    -0.001 A 
ATOM     20  C   UNL     1       6.931   4.269  -4.947  0.00  0.00    +0.010 A 
ATOM     21  C   UNL     1       7.392   5.520  -5.171  0.00  0.00    +0.001 A 
ATOM     22  C   UNL     1       7.915   5.901  -6.415  0.00  0.00    +0.002 A 
ATOM     23  C   UNL     1       7.993   5.054  -7.463  0.00  0.00    +0.026 A 
ATOM     24  C   UNL     1       7.537   3.713  -7.339  0.00  0.00    +0.043 A 
ATOM     25  N   UNL     1       7.505   2.719  -8.194  0.00  0.00    -0.380 N 
ATOM     26  C   UNL     1       6.930   1.546  -7.526  0.00  0.00    +0.144 C 
ATOM     27  H   UNL     1       7.815   2.752  -9.112  0.00  0.00    +0.160 HD
ENDBRANCH  17  18
ENDBRANCH  16  17
ENDBRANCH   1  16
TORSDOF 7
