REMARK  Name = ZINC00830544
REMARK  2 active torsions:
REMARK  status: ('A' for Active; 'I' for Inactive)
REMARK    1  A    between atoms: C_1  and  N_35
REMARK    2  A    between atoms: C_12  and  C_15
REMARK                            x       y       z     vdW  Elec       q    Type
REMARK                         _______ _______ _______ _____ _____    ______ ____
ROOT
ATOM      1  C   UNL     1      -6.666   0.186   0.549  0.00  0.00    -0.096 C 
ATOM      2  C   UNL     1      -4.325  -0.167   1.060  0.00  0.00    -0.074 C 
ATOM      3  C   UNL     1      -2.917  -0.054   0.469  0.00  0.00    +0.018 C 
ATOM      4  C   UNL     1      -2.620   1.422   0.226  0.00  0.00    -0.027 A 
ATOM      5  C   UNL     1      -3.633   2.318   0.187  0.00  0.00    -0.021 A 
ATOM      6  S   UNL     1      -2.851   3.880  -0.109  0.00  0.00    -0.080 S 
ATOM      7  C   UNL     1      -1.222   3.355  -0.174  0.00  0.00    +0.080 A 
ATOM      8  C   UNL     1      -1.289   1.967   0.019  0.00  0.00    +0.068 A 
ATOM      9  C   UNL     1      -0.014   1.213   0.009  0.00  0.00    +0.248 C 
ATOM     10  O   UNL     1       0.002  -0.004   0.002  0.00  0.00    -0.270 OA
ATOM     11  N   UNL     1       1.128   1.931   0.002  0.00  0.00    -0.287 N 
ATOM     12  C   UNL     1       1.174   3.380   0.170  0.00  0.00    +0.227 C 
ATOM     13  N   UNL     1      -0.040   4.021  -0.368  0.00  0.00    -0.314 N 
ATOM     14  C   UNL     1      -5.090   2.022   0.357  0.00  0.00    -0.036 C 
ATOM     15  H   UNL     1       1.966   1.458  -0.123  0.00  0.00    +0.151 HD
ATOM     16  H   UNL     1      -0.004   4.871  -0.834  0.00  0.00    +0.149 HD
ATOM     17  N   UNL     1      -5.279   0.559   0.197  0.00  0.00    +0.381 N 
ATOM     18  H   UNL     1      -5.103   0.305  -0.782  0.00  0.00    -0.082 HD
ENDROOT
BRANCH  12  19
ATOM     19  C   UNL     1       1.294   3.702   1.637  0.00  0.00    +0.145 A 
ATOM     20  C   UNL     1       1.895   2.935   2.565  0.00  0.00    +0.049 A 
ATOM     21  C   UNL     1       1.774   3.615   3.799  0.00  0.00    +0.056 A 
ATOM     22  C   UNL     1       1.107   4.757   3.552  0.00  0.00    +0.165 A 
ATOM     23  O   UNL     1       0.823   4.807   2.240  0.00  0.00    -0.451 OA
ATOM     24  I   UNL     1       0.603   6.214   4.971  0.00  0.00    -0.001 I 
ENDBRANCH  12  19
TORSDOF 1
