REMARK  Name = ZINC39711489
REMARK  11 active torsions:
REMARK  status: ('A' for Active; 'I' for Inactive)
REMARK    1  A    between atoms: C_1  and  C_2
REMARK    2  A    between atoms: C_2  and  O_3
REMARK    3  A    between atoms: O_3  and  C_4
REMARK    4  A    between atoms: C_11  and  C_16
REMARK    5  A    between atoms: C_16  and  C_18
REMARK    6  A    between atoms: C_16  and  N_27
REMARK    7  A    between atoms: N_22  and  C_23
REMARK    8  A    between atoms: C_23  and  C_24
REMARK    9  A    between atoms: C_24  and  O_25
REMARK   10  A    between atoms: O_25  and  C_26
REMARK   11  A    between atoms: N_30  and  C_33
REMARK                            x       y       z     vdW  Elec       q    Type
REMARK                         _______ _______ _______ _____ _____    ______ ____
ROOT
ATOM      1  C   UNL     1      -5.010  -6.348   1.236  0.00  0.00    +0.142 C 
ENDROOT
BRANCH   1   9
ATOM      2  C   UNL     1      -1.498  -1.849   0.006  0.00  0.00    +0.121 A 
ATOM      3  C   UNL     1      -0.367  -2.674  -0.003  0.00  0.00    +0.047 A 
ATOM      4  C   UNL     1      -0.451  -4.029  -0.009  0.00  0.00    +0.027 A 
ATOM      5  C   UNL     1      -1.704  -4.669  -0.006  0.00  0.00    +0.041 A 
ATOM      6  N   UNL     1      -1.771  -6.000  -0.013  0.00  0.00    -0.284 N 
ATOM      7  C   UNL     1      -2.914  -6.666  -0.011  0.00  0.00    +0.226 C 
ATOM      8  O   UNL     1      -2.912  -7.883  -0.016  0.00  0.00    -0.275 OA
ATOM      9  C   UNL     1      -4.223  -5.910  -0.001  0.00  0.00    +0.123 C 
ATOM     10  C   UNL     1      -4.153  -4.395   0.006  0.00  0.00    -0.003 C 
ATOM     11  C   UNL     1      -2.913  -3.827   0.003  0.00  0.00    -0.003 A 
ATOM     12  C   UNL     1      -2.756  -2.372   0.016  0.00  0.00    +0.055 A 
ATOM     13  H   UNL     1      -0.943  -6.505  -0.019  0.00  0.00    +0.155 HD
BRANCH   2  14
ATOM     14  O   UNL     1      -1.339  -0.499   0.012  0.00  0.00    -0.492 OA
BRANCH  14  16
ATOM     15  C   UNL     1      -0.019   1.526   0.010  0.00  0.00    +0.048 C 
ATOM     16  C   UNL     1       0.002  -0.004   0.002  0.00  0.00    +0.225 C 
ENDBRANCH  14  16
ENDBRANCH   2  14
ENDBRANCH   1   9
BRANCH   1  17
ATOM     17  N   UNL     1      -5.258  -7.794   1.171  0.00  0.00    -0.289 NA
ATOM     18  C   UNL     1      -6.047  -8.140  -0.019  0.00  0.00    +0.104 C 
ATOM     19  C   UNL     1      -6.130  -9.665  -0.148  0.00  0.00    +0.120 C 
ATOM     20  N   UNL     1      -6.641 -10.213   1.118  0.00  0.00    -0.325 N 
ATOM     21  C   UNL     1      -5.985  -9.802   2.369  0.00  0.00    +0.120 C 
ATOM     22  C   UNL     1      -5.908  -8.272   2.398  0.00  0.00    +0.104 C 
BRANCH  20  23
ATOM     23  C   UNL     1      -7.720 -11.102   1.132  0.00  0.00    +0.065 A 
ATOM     24  C   UNL     1      -7.497 -12.470   1.050  0.00  0.00    +0.026 A 
ATOM     25  C   UNL     1      -8.565 -13.345   1.064  0.00  0.00    +0.002 A 
ATOM     26  C   UNL     1      -9.857 -12.861   1.159  0.00  0.00    +0.003 A 
ATOM     27  C   UNL     1     -10.085 -11.500   1.240  0.00  0.00    +0.040 A 
ATOM     28  C   UNL     1      -9.020 -10.618   1.233  0.00  0.00    +0.144 A 
ATOM     29  F   UNL     1      -9.243  -9.288   1.318  0.00  0.00    -0.204 F 
ENDBRANCH  20  23
ENDBRANCH   1  17
BRANCH   1  30
ATOM     30  C   UNL     1      -6.325  -5.614   1.281  0.00  0.00    +0.170 A 
ATOM     31  N   UNL     1      -7.379  -5.850   0.539  0.00  0.00    -0.112 NA
ATOM     32  N   UNL     1      -8.299  -5.013   0.876  0.00  0.00    -0.023 NA
ATOM     33  N   UNL     1      -7.859  -4.249   1.814  0.00  0.00    -0.044 NA
ATOM     34  N   UNL     1      -6.647  -4.591   2.095  0.00  0.00    -0.225 N 
BRANCH  34  35
ATOM     35  C   UNL     1      -5.783  -3.980   3.108  0.00  0.00    +0.175 C 
BRANCH  35  36
ATOM     36  C   UNL     1      -4.994  -2.831   2.479  0.00  0.00    +0.183 C 
BRANCH  36  37
ATOM     37  O   UNL     1      -4.151  -2.235   3.467  0.00  0.00    -0.381 OA
ATOM     38  C   UNL     1      -3.366  -1.144   2.980  0.00  0.00    +0.194 C 
ENDBRANCH  36  37
ENDBRANCH  35  36
ENDBRANCH  34  35
ENDBRANCH   1  30
TORSDOF 9
