REMARK  Name = ZINC04028538
REMARK  10 active torsions:
REMARK  status: ('A' for Active; 'I' for Inactive)
REMARK    1  A    between atoms: C_1  and  C_2
REMARK    2  A    between atoms: C_8  and  C_33
REMARK    3  A    between atoms: C_9  and  O_32
REMARK    4  A    between atoms: C_19  and  C_21
REMARK    5  A    between atoms: C_21  and  N_61
REMARK    6  A    between atoms: C_22  and  C_23
REMARK    7  A    between atoms: C_22  and  N_61
REMARK    8  A    between atoms: C_23  and  C_24
REMARK    9  A    between atoms: C_29  and  O_30
REMARK   10  A    between atoms: O_30  and  C_31
REMARK                            x       y       z     vdW  Elec       q    Type
REMARK                         _______ _______ _______ _____ _____    ______ ____
ROOT
ATOM      1  C   UNL     1      -2.448   1.114   1.708  0.00  0.00    +0.008 C 
ATOM      2  C   UNL     1      -1.917  -0.314   1.556  0.00  0.00    -0.001 C 
ATOM      3  C   UNL     1      -3.039  -1.287   1.911  0.00  0.00    +0.008 C 
ATOM      4  C   UNL     1      -2.498  -2.717   1.820  0.00  0.00    +0.027 C 
ATOM      5  C   UNL     1      -1.953  -2.928   0.436  0.00  0.00    -0.027 C 
ATOM      6  C   UNL     1      -1.471  -1.962  -0.285  0.00  0.00    -0.061 C 
ATOM      7  C   UNL     1      -1.430  -0.518   0.124  0.00  0.00    +0.018 C 
ATOM      8  C   UNL     1       0.002  -0.004   0.002  0.00  0.00    +0.132 C 
ATOM      9  C   UNL     1       0.796  -0.470  -1.176  0.00  0.00    +0.071 C 
ATOM     10  C   UNL     1       0.616  -1.937  -1.598  0.00  0.00    +0.187 C 
ATOM     11  C   UNL     1      -0.874  -2.305  -1.638  0.00  0.00    +0.076 C 
ATOM     12  O   UNL     1       1.074  -1.954  -2.994  0.00  0.00    -0.460 OA
ATOM     13  C   UNL     1       0.996  -0.734  -3.543  0.00  0.00    +0.309 C 
ATOM     14  O   UNL     1       1.232  -0.467  -4.702  0.00  0.00    -0.251 OA
ATOM     15  C   UNL     1       0.565   0.281  -2.493  0.00  0.00    +0.090 C 
ATOM     16  C   UNL     1      -2.347   0.294  -0.794  0.00  0.00    +0.018 C 
ENDROOT
BRANCH   8  17
ATOM     17  O   UNL     1      -0.017   1.430   0.010  0.00  0.00    -0.391 OA
ATOM     18  H   UNL     1       0.861   1.835   0.004  0.00  0.00    +0.210 HD
ENDBRANCH   8  17
BRANCH  15  19
ATOM     19  C   UNL     1       1.462   1.522  -2.581  0.00  0.00    -0.067 C 
BRANCH  19  20
ATOM     20  N   UNL     1       1.123   2.278  -3.801  0.00  0.00    +0.380 N 
ATOM     21  H   UNL     1       0.138   2.563  -3.760  0.00  0.00    -0.086 HD
ATOM     22  H   UNL     1       1.273   1.680  -4.622  0.00  0.00    -0.086 HD
BRANCH  20  23
ATOM     23  C   UNL     1       1.972   3.479  -3.912  0.00  0.00    -0.078 C 
BRANCH  23  24
ATOM     24  C   UNL     1       1.599   4.242  -5.185  0.00  0.00    +0.020 C 
BRANCH  24  25
ATOM     25  C   UNL     1       2.462   5.471  -5.306  0.00  0.00    -0.007 A 
ATOM     26  C   UNL     1       2.001   6.688  -4.842  0.00  0.00    +0.007 A 
ATOM     27  C   UNL     1       2.795   7.815  -4.949  0.00  0.00    +0.000 A 
ATOM     28  C   UNL     1       4.048   7.729  -5.528  0.00  0.00    +0.004 A 
ATOM     29  C   UNL     1       4.511   6.515  -5.998  0.00  0.00    +0.046 A 
ATOM     30  C   UNL     1       3.719   5.382  -5.887  0.00  0.00    +0.123 A 
BRANCH  30  31
ATOM     31  O   UNL     1       4.172   4.186  -6.348  0.00  0.00    -0.495 OA
ATOM     32  C   UNL     1       5.475   4.170  -6.935  0.00  0.00    +0.277 C 
ENDBRANCH  30  31
ENDBRANCH  24  25
ENDBRANCH  23  24
ENDBRANCH  20  23
ENDBRANCH  19  20
ENDBRANCH  15  19
TORSDOF 7
