REMARK  Name = ZINC44326334
REMARK  11 active torsions:
REMARK  status: ('A' for Active; 'I' for Inactive)
REMARK    1  A    between atoms: C_4  and  O_31
REMARK    2  A    between atoms: C_5  and  C_7
REMARK    3  A    between atoms: C_7  and  CA_8
REMARK    4  A    between atoms: CA_8  and  C_10
REMARK    5  A    between atoms: CA_8  and  N_13
REMARK    6  A    between atoms: C_14  and  O_16
REMARK    7  A    between atoms: O_16  and  C_17
REMARK    8  A    between atoms: C_17  and  C_18
REMARK    9  A    between atoms: O_31  and  C_32
REMARK   10  A    between atoms: C_32  and  C_33
REMARK   11  A    between atoms: C_33  and  N_34
REMARK                            x       y       z     vdW  Elec       q    Type
REMARK                         _______ _______ _______ _____ _____    ______ ____
ROOT
ATOM      1  CA  UNL     1       1.374  -2.703   1.411  0.00  0.00    +0.193 C 
ENDROOT
BRANCH   1   2
ATOM      2  N   UNL     1       0.187  -2.335   2.187  0.00  0.00    -0.267 N 
ATOM      3  C   UNL     1       0.268  -2.215   3.527  0.00  0.00    +0.401 C 
ATOM      4  O   UNL     1       1.326  -2.412   4.091  0.00  0.00    -0.226 OA
ATOM      5  H   UNL     1      -0.658  -2.179   1.736  0.00  0.00    +0.153 HD
BRANCH   3   6
ATOM      6  O   UNL     1      -0.823  -1.877   4.239  0.00  0.00    -0.449 OA
BRANCH   6   7
ATOM      7  C   UNL     1      -0.665  -1.768   5.655  0.00  0.00    +0.246 C 
BRANCH   7   8
ATOM      8  C   UNL     1      -2.002  -1.379   6.290  0.00  0.00    +0.088 C 
ATOM      9  C   UNL     1      -2.986  -2.516   6.166  0.00  0.00    -0.029 A 
ATOM     10  C   UNL     1      -3.523  -3.161   5.072  0.00  0.00    +0.005 A 
ATOM     11  C   UNL     1      -4.424  -4.196   5.251  0.00  0.00    +0.000 A 
ATOM     12  C   UNL     1      -4.788  -4.585   6.527  0.00  0.00    +0.001 A 
ATOM     13  C   UNL     1      -4.256  -3.946   7.628  0.00  0.00    +0.009 A 
ATOM     14  C   UNL     1      -3.346  -2.901   7.455  0.00  0.00    -0.014 A 
ATOM     15  C   UNL     1      -2.632  -2.054   8.441  0.00  0.00    -0.014 A 
ATOM     16  C   UNL     1      -1.825  -1.140   7.769  0.00  0.00    -0.029 A 
ATOM     17  C   UNL     1      -1.058  -0.238   8.476  0.00  0.00    +0.005 A 
ATOM     18  C   UNL     1      -1.086  -0.239   9.859  0.00  0.00    +0.000 A 
ATOM     19  C   UNL     1      -1.885  -1.143  10.536  0.00  0.00    +0.001 A 
ATOM     20  C   UNL     1      -2.656  -2.048   9.837  0.00  0.00    +0.009 A 
ENDBRANCH   7   8
ENDBRANCH   6   7
ENDBRANCH   3   6
ENDBRANCH   1   2
BRANCH   1  21
ATOM     21  C   UNL     1       1.517  -4.203   1.392  0.00  0.00    +0.376 C 
ATOM     22  O   UNL     1       2.623  -4.709   1.313  0.00  0.00    -0.244 OA
ATOM     23  OXT UNL     1       0.526  -4.911   1.456  0.00  0.00    -0.244 OA
ENDBRANCH   1  21
BRANCH   1  24
ATOM     24  C   UNL     1       1.227  -2.187  -0.022  0.00  0.00    +0.072 C 
BRANCH  24  29
ATOM     25  C   UNL     1      -0.017   1.378   0.010  0.00  0.00    +0.000 A 
ATOM     26  C   UNL     1       1.170   2.088   0.002  0.00  0.00    +0.004 A 
ATOM     27  C   UNL     1       2.377   1.417  -0.013  0.00  0.00    +0.046 A 
ATOM     28  C   UNL     1       2.399   0.030  -0.021  0.00  0.00    +0.124 A 
ATOM     29  C   UNL     1       1.207  -0.680  -0.013  0.00  0.00    -0.003 A 
ATOM     30  C   UNL     1       0.002  -0.004   0.002  0.00  0.00    +0.007 A 
BRANCH  28  31
ATOM     31  O   UNL     1       3.586  -0.632  -0.037  0.00  0.00    -0.490 OA
BRANCH  31  32
ATOM     32  C   UNL     1       4.772   0.164  -0.045  0.00  0.00    +0.248 C 
BRANCH  32  33
ATOM     33  C   UNL     1       5.999  -0.751  -0.062  0.00  0.00    +0.148 C 
BRANCH  33  34
ATOM     34  N   UNL     1       6.029  -1.504  -1.319  0.00  0.00    -0.298 N 
ATOM     35  C   UNL     1       5.390  -2.810  -1.516  0.00  0.00    +0.108 C 
ATOM     36  C   UNL     1       5.303  -2.999  -3.047  0.00  0.00    +0.028 C 
ATOM     37  C   UNL     1       6.465  -2.107  -3.541  0.00  0.00    +0.097 C 
ATOM     38  C   UNL     1       6.640  -1.085  -2.440  0.00  0.00    +0.216 C 
ATOM     39  O   UNL     1       7.246  -0.040  -2.552  0.00  0.00    -0.276 OA
ENDBRANCH  33  34
ENDBRANCH  32  33
ENDBRANCH  31  32
ENDBRANCH  28  31
ENDBRANCH  24  29
ENDBRANCH   1  24
TORSDOF 11
