REMARK  Name = ZINC40045339
REMARK  6 active torsions:
REMARK  status: ('A' for Active; 'I' for Inactive)
REMARK    1  A    between atoms: C_1  and  C_2
REMARK    2  A    between atoms: C_2  and  C_3
REMARK    3  A    between atoms: C_17  and  C_19
REMARK    4  A    between atoms: C_22  and  S_25
REMARK    5  A    between atoms: S_25  and  C_26
REMARK    6  A    between atoms: C_29  and  C_33
REMARK                            x       y       z     vdW  Elec       q    Type
REMARK                         _______ _______ _______ _____ _____    ______ ____
ROOT
ATOM      1  C   UNL     1      -1.412  -0.526   0.013  0.00  0.00    -0.047 A 
ATOM      2  C   UNL     1      -2.051  -0.766   1.221  0.00  0.00    +0.007 A 
ATOM      3  C   UNL     1      -3.341  -1.246   1.253  0.00  0.00    +0.047 A 
ATOM      4  C   UNL     1      -4.024  -1.495   0.062  0.00  0.00    +0.139 A 
ATOM      5  C   UNL     1      -3.369  -1.242  -1.154  0.00  0.00    +0.065 A 
ATOM      6  C   UNL     1      -2.062  -0.755  -1.168  0.00  0.00    +0.019 A 
ATOM      7  C   UNL     1      -4.093  -1.490  -2.426  0.00  0.00    +0.199 A 
ATOM      8  O   UNL     1      -3.553  -1.459  -3.518  0.00  0.00    -0.287 OA
ATOM      9  C   UNL     1      -5.520  -1.775  -2.244  0.00  0.00    +0.072 A 
ATOM     10  C   UNL     1      -6.041  -1.995  -1.000  0.00  0.00    +0.199 A 
ATOM     11  O   UNL     1      -5.288  -1.973   0.117  0.00  0.00    -0.450 OA
ATOM     12  C   UNL     1      -7.486  -2.242  -1.141  0.00  0.00    +0.288 C 
ATOM     13  O   UNL     1      -8.246  -2.469  -0.221  0.00  0.00    -0.266 OA
ATOM     14  N   UNL     1      -7.842  -2.180  -2.441  0.00  0.00    -0.238 N 
ATOM     15  C   UNL     1      -6.636  -1.884  -3.231  0.00  0.00    +0.151 C 
ATOM     16  C   UNL     1      -9.127  -2.364  -2.946  0.00  0.00    +0.129 A 
ATOM     17  C   UNL     1     -10.194  -2.530  -2.071  0.00  0.00    +0.047 A 
ATOM     18  C   UNL     1     -11.465  -2.712  -2.587  0.00  0.00    -0.046 A 
ATOM     19  C   UNL     1     -11.625  -2.721  -3.966  0.00  0.00    +0.023 A 
ATOM     20  C   UNL     1     -10.520  -2.551  -4.776  0.00  0.00    +0.113 A 
ATOM     21  N   UNL     1      -9.321  -2.374  -4.256  0.00  0.00    -0.240 NA
ATOM     22  C   UNL     1     -12.649  -2.896  -1.673  0.00  0.00    +0.044 C 
ENDROOT
BRANCH  15  23
ATOM     23  C   UNL     1      -6.363  -3.003  -4.202  0.00  0.00    -0.022 A 
ATOM     24  C   UNL     1      -6.622  -4.312  -3.837  0.00  0.00    +0.007 A 
ATOM     25  C   UNL     1      -6.373  -5.340  -4.725  0.00  0.00    +0.015 A 
ATOM     26  C   UNL     1      -5.862  -5.058  -5.986  0.00  0.00    +0.008 A 
ATOM     27  C   UNL     1      -5.603  -3.742  -6.350  0.00  0.00    +0.015 A 
ATOM     28  C   UNL     1      -5.860  -2.719  -5.459  0.00  0.00    +0.007 A 
BRANCH  26  29
ATOM     29  S   UNL     1      -5.542  -6.367  -7.122  0.00  0.00    -0.129 S 
ATOM     30  C   UNL     1      -4.900  -5.524  -8.594  0.00  0.00    +0.090 C 
ENDBRANCH  26  29
ENDBRANCH  15  23
BRANCH   1  32
ATOM     31  C   UNL     1      -0.019   1.526   0.010  0.00  0.00    +0.009 C 
ATOM     32  C   UNL     1       0.002  -0.004   0.002  0.00  0.00    +0.032 C 
ENDBRANCH   1  32
TORSDOF 3
