REMARK  Name = ZINC45313095
REMARK  9 active torsions:
REMARK  status: ('A' for Active; 'I' for Inactive)
REMARK    1  A    between atoms: C_1  and  C_2
REMARK    2  A    between atoms: C_2  and  O_3
REMARK    3  A    between atoms: O_3  and  C_4
REMARK    4  A    between atoms: C_4  and  C_6
REMARK    5  A    between atoms: C_7  and  C_31
REMARK    6  A    between atoms: C_13  and  C_17
REMARK    7  A    between atoms: C_17  and  C_19
REMARK    8  A    between atoms: C_17  and  N_20
REMARK    9  A    between atoms: C_24  and  C_27
REMARK                            x       y       z     vdW  Elec       q    Type
REMARK                         _______ _______ _______ _____ _____    ______ ____
ROOT
ATOM      1  C   UNL     1       2.518  -2.191  -2.095  0.00  0.00    +0.102 A 
ATOM      2  C   UNL     1       2.611  -3.507  -2.445  0.00  0.00    -0.015 A 
ATOM      3  C   UNL     1       3.045  -3.857  -3.724  0.00  0.00    +0.076 A 
ATOM      4  C   UNL     1       3.222  -5.202  -4.318  0.00  0.00    +0.260 A 
ATOM      5  O   UNL     1       2.978  -6.206  -3.673  0.00  0.00    -0.267 OA
ATOM      6  N   UNL     1       3.660  -5.286  -5.589  0.00  0.00    -0.312 N 
ATOM      7  H   UNL     1       3.781  -6.160  -5.993  0.00  0.00    +0.170 HD
ATOM      8  C   UNL     1       3.933  -4.175  -6.316  0.00  0.00    +0.097 A 
ATOM      9  N   UNL     1       3.788  -2.975  -5.824  0.00  0.00    -0.228 NA
ATOM     10  C   UNL     1       3.364  -2.779  -4.583  0.00  0.00    +0.116 A 
ATOM     11  S   UNL     1       3.040  -1.350  -3.580  0.00  0.00    -0.062 S 
ATOM     12  C   UNL     1       2.246  -4.580  -1.451  0.00  0.00    +0.046 C 
ENDROOT
BRANCH   1  13
ATOM     13  C   UNL     1       2.090  -1.612  -0.820  0.00  0.00    +0.346 C 
ATOM     14  O   UNL     1       1.763  -2.339   0.099  0.00  0.00    -0.244 OA
BRANCH  13  15
ATOM     15  O   UNL     1       2.058  -0.272  -0.664  0.00  0.00    -0.461 OA
BRANCH  15  17
ATOM     16  C   UNL     1       1.659   1.753   0.593  0.00  0.00    +0.048 C 
ATOM     17  C   UNL     1       1.630   0.224   0.606  0.00  0.00    +0.229 C 
ENDBRANCH  15  17
ENDBRANCH  13  15
ENDBRANCH   1  13
BRANCH   8  18
ATOM     18  C   UNL     1       4.420  -4.331  -7.734  0.00  0.00    -0.004 C 
ATOM     19  C   UNL     1       3.446  -5.217  -8.513  0.00  0.00    -0.005 C 
BRANCH  18  20
ATOM     20  N   UNL     1       4.499  -3.010  -8.372  0.00  0.00    +0.386 N 
ATOM     21  C   UNL     1       3.148  -2.452  -8.506  0.00  0.00    -0.078 C 
ATOM     22  C   UNL     1       3.230  -1.042  -9.096  0.00  0.00    -0.018 C 
ATOM     23  C   UNL     1       3.895  -1.110 -10.474  0.00  0.00    +0.008 C 
ATOM     24  C   UNL     1       5.274  -1.762 -10.334  0.00  0.00    +0.077 C 
ATOM     25  C   UNL     1       5.115  -3.145  -9.698  0.00  0.00    -0.066 C 
ATOM     26  H   UNL     1       5.060  -2.395  -7.803  0.00  0.00    -0.081 HD
BRANCH  24  27
ATOM     27  C   UNL     1       5.914  -1.904 -11.716  0.00  0.00    +0.391 C 
ATOM     28  F   UNL     1       6.054  -0.640 -12.297  0.00  0.00    -0.171 F 
ATOM     29  F   UNL     1       7.174  -2.500 -11.586  0.00  0.00    -0.171 F 
ATOM     30  F   UNL     1       5.101  -2.704 -12.527  0.00  0.00    -0.171 F 
ENDBRANCH  24  27
ENDBRANCH  18  20
ENDBRANCH   8  18
TORSDOF 6
