REMARK  Name = ZINC13499505
REMARK  17 active torsions:
REMARK  status: ('A' for Active; 'I' for Inactive)
REMARK    1  A    between atoms: C_1  and  C_2
REMARK    2  A    between atoms: C_2  and  C_3
REMARK    3  A    between atoms: C_3  and  C_4
REMARK    4  A    between atoms: C_4  and  C_6
REMARK    5  A    between atoms: C_4  and  N_68
REMARK    6  A    between atoms: N_10  and  C_11
REMARK    7  A    between atoms: C_11  and  C_12
REMARK    8  A    between atoms: C_11  and  C_13
REMARK    9  A    between atoms: C_11  and  C_14
REMARK   10  A    between atoms: C_15  and  C_16
REMARK   11  A    between atoms: C_15  and  N_68
REMARK   12  A    between atoms: C_16  and  C_17
REMARK   13  A    between atoms: C_17  and  O_18
REMARK   14  A    between atoms: C_19  and  C_20
REMARK   15  A    between atoms: C_19  and  N_68
REMARK   16  A    between atoms: C_24  and  C_33
REMARK   17  A    between atoms: C_25  and  C_32
REMARK                            x       y       z     vdW  Elec       q    Type
REMARK                         _______ _______ _______ _____ _____    ______ ____
ROOT
ATOM      1  N   UNL     1      -5.665   4.603  -1.796  0.00  0.00    +0.389 N 
ATOM      2  H   UNL     1      -5.584   3.627  -2.105  0.00  0.00    -0.080 HD
ENDROOT
BRANCH   1   3
ATOM      3  C   UNL     1      -7.096   4.949  -1.669  0.00  0.00    +0.003 C 
BRANCH   3   4
ATOM      4  C   UNL     1      -7.597   5.505  -2.977  0.00  0.00    +0.139 A 
ATOM      5  N   UNL     1      -7.430   4.979  -4.166  0.00  0.00    -0.115 NA
ATOM      6  N   UNL     1      -8.004   5.749  -5.025  0.00  0.00    -0.023 NA
ATOM      7  N   UNL     1      -8.531   6.753  -4.415  0.00  0.00    -0.043 NA
ATOM      8  N   UNL     1      -8.306   6.636  -3.150  0.00  0.00    -0.226 N 
BRANCH   8   9
ATOM      9  C   UNL     1      -8.739   7.561  -2.100  0.00  0.00    +0.059 C 
ATOM     10  C   UNL     1      -7.514   8.218  -1.462  0.00  0.00    +0.036 C 
ATOM     11  C   UNL     1      -9.637   8.640  -2.710  0.00  0.00    +0.036 C 
ATOM     12  C   UNL     1      -9.520   6.792  -1.033  0.00  0.00    +0.036 C 
ENDBRANCH   8   9
ENDBRANCH   3   4
BRANCH   3  13
ATOM     13  C   UNL     1      -7.875   3.679  -1.323  0.00  0.00    -0.008 C 
BRANCH  13  15
ATOM     14  C   UNL     1      -8.320   1.992   0.466  0.00  0.00    +0.004 C 
ATOM     15  C   UNL     1      -7.430   3.165   0.048  0.00  0.00    -0.005 C 
ENDBRANCH  13  15
ENDBRANCH   3  13
ENDBRANCH   1   3
BRANCH   1  16
ATOM     16  C   UNL     1      -5.020   5.478  -2.798  0.00  0.00    -0.075 C 
BRANCH  16  17
ATOM     17  C   UNL     1      -3.595   4.980  -3.045  0.00  0.00    +0.009 C 
BRANCH  17  18
ATOM     18  C   UNL     1      -2.888   5.922  -4.021  0.00  0.00    +0.154 C 
BRANCH  18  19
ATOM     19  O   UNL     1      -1.556   5.457  -4.252  0.00  0.00    -0.395 OA
ATOM     20  H   UNL     1      -1.048   6.008  -4.863  0.00  0.00    +0.209 HD
ENDBRANCH  18  19
ENDBRANCH  17  18
ENDBRANCH  16  17
ENDBRANCH   1  16
BRANCH   1  21
ATOM     21  C   UNL     1      -4.991   4.750  -0.489  0.00  0.00    -0.037 C 
BRANCH  21  22
ATOM     22  C   UNL     1      -5.224   6.129   0.073  0.00  0.00    +0.001 A 
ATOM     23  C   UNL     1      -6.224   6.335   0.966  0.00  0.00    +0.017 A 
ATOM     24  C   UNL     1      -6.427   7.687   1.489  0.00  0.00    -0.001 A 
ATOM     25  C   UNL     1      -7.453   7.964   2.400  0.00  0.00    +0.013 A 
ATOM     26  C   UNL     1      -7.617   9.236   2.869  0.00  0.00    -0.047 A 
ATOM     27  C   UNL     1      -6.774  10.257   2.451  0.00  0.00    -0.046 A 
ATOM     28  C   UNL     1      -5.757  10.007   1.555  0.00  0.00    +0.030 A 
ATOM     29  C   UNL     1      -5.574   8.720   1.059  0.00  0.00    +0.049 A 
ATOM     30  N   UNL     1      -4.569   8.443   0.157  0.00  0.00    -0.322 N 
ATOM     31  H   UNL     1      -3.980   9.156  -0.136  0.00  0.00    +0.169 HD
ATOM     32  C   UNL     1      -4.393   7.199  -0.322  0.00  0.00    +0.251 A 
ATOM     33  O   UNL     1      -3.494   6.991  -1.118  0.00  0.00    -0.268 OA
ATOM     34  C   UNL     1      -6.973  11.653   2.982  0.00  0.00    +0.044 C 
ATOM     35  C   UNL     1      -8.721   9.534   3.849  0.00  0.00    +0.044 C 
ENDBRANCH  21  22
ENDBRANCH   1  21
TORSDOF 11
