REMARK  Name = ZINC06301732
REMARK  10 active torsions:
REMARK  status: ('A' for Active; 'I' for Inactive)
REMARK    1  A    between atoms: C_1  and  C_2
REMARK    2  A    between atoms: C_4  and  C_36
REMARK    3  A    between atoms: C_7  and  C_14
REMARK    4  A    between atoms: C_14  and  C_16
REMARK    5  A    between atoms: C_14  and  N_65
REMARK    6  A    between atoms: N_20  and  C_21
REMARK    7  A    between atoms: C_21  and  C_22
REMARK    8  A    between atoms: C_25  and  O_28
REMARK    9  A    between atoms: O_28  and  C_29
REMARK   10  A    between atoms: C_32  and  O_35
REMARK                            x       y       z     vdW  Elec       q    Type
REMARK                         _______ _______ _______ _____ _____    ______ ____
ROOT
ATOM      1  C   UNL     1       1.715   2.133   2.522  0.00  0.00    +0.039 C 
ENDROOT
BRANCH   1   8
ATOM      2  C   UNL     1      -0.683   9.022   5.748  0.00  0.00    +0.044 C 
ATOM      3  C   UNL     1      -0.452   7.653   5.163  0.00  0.00    -0.048 A 
ATOM      4  C   UNL     1      -1.512   6.762   5.061  0.00  0.00    +0.007 A 
ATOM      5  C   UNL     1      -1.324   5.516   4.534  0.00  0.00    -0.041 A 
ATOM      6  C   UNL     1      -0.053   5.134   4.093  0.00  0.00    +0.002 A 
ATOM      7  C   UNL     1       0.184   3.806   3.523  0.00  0.00    +0.018 A 
ATOM      8  C   UNL     1       1.437   3.491   3.113  0.00  0.00    +0.011 A 
ATOM      9  C   UNL     1       2.484   4.429   3.243  0.00  0.00    +0.251 A 
ATOM     10  O   UNL     1       3.604   4.123   2.873  0.00  0.00    -0.268 OA
ATOM     11  N   UNL     1       2.275   5.652   3.760  0.00  0.00    -0.322 N 
ATOM     12  H   UNL     1       3.016   6.274   3.831  0.00  0.00    +0.169 HD
ATOM     13  C   UNL     1       1.024   6.034   4.195  0.00  0.00    +0.050 A 
ATOM     14  C   UNL     1       0.809   7.298   4.735  0.00  0.00    +0.029 A 
ATOM     15  C   UNL     1      -2.482   4.557   4.427  0.00  0.00    +0.044 C 
ENDBRANCH   1   8
BRANCH   1  21
ATOM     16  C   UNL     1       2.546   1.519   4.711  0.00  0.00    -0.075 C 
ATOM     17  C   UNL     1       3.764   0.973   5.461  0.00  0.00    +0.013 C 
ATOM     18  C   UNL     1       4.038  -0.462   5.003  0.00  0.00    +0.111 C 
ATOM     19  C   UNL     1       4.257  -0.472   3.487  0.00  0.00    +0.013 C 
ATOM     20  C   UNL     1       3.025   0.116   2.795  0.00  0.00    -0.075 C 
ATOM     21  N   UNL     1       2.830   1.505   3.260  0.00  0.00    +0.389 N 
ATOM     22  H   UNL     1       3.689   2.039   3.084  0.00  0.00    -0.080 HD
BRANCH  18  23
ATOM     23  O   UNL     1       5.208  -0.957   5.657  0.00  0.00    -0.392 OA
ATOM     24  H   UNL     1       5.139  -0.978   6.622  0.00  0.00    +0.210 HD
ENDBRANCH  18  23
ENDBRANCH   1  21
BRANCH   1  25
ATOM     25  C   UNL     1       2.115   2.286   1.077  0.00  0.00    +0.143 A 
ATOM     26  N   UNL     1       3.269   2.711   0.625  0.00  0.00    -0.115 NA
ATOM     27  N   UNL     1       3.220   2.704  -0.662  0.00  0.00    -0.023 NA
ATOM     28  N   UNL     1       2.065   2.281  -1.043  0.00  0.00    -0.044 NA
ATOM     29  N   UNL     1       1.356   2.010  -0.000  0.00  0.00    -0.226 N 
BRANCH  29  30
ATOM     30  C   UNL     1      -0.018   1.503   0.010  0.00  0.00    +0.182 C 
BRANCH  30  31
ATOM     31  C   UNL     1       0.002  -0.004   0.002  0.00  0.00    -0.026 A 
ATOM     32  C   UNL     1      -0.006  -0.688  -1.200  0.00  0.00    +0.009 A 
ATOM     33  C   UNL     1       0.019  -2.069  -1.210  0.00  0.00    +0.046 A 
ATOM     34  C   UNL     1       0.040  -2.770  -0.013  0.00  0.00    +0.120 A 
ATOM     35  C   UNL     1       0.042  -2.082   1.191  0.00  0.00    +0.046 A 
ATOM     36  C   UNL     1       0.023  -0.701   1.196  0.00  0.00    +0.009 A 
BRANCH  34  37
ATOM     37  O   UNL     1       0.059  -4.129  -0.021  0.00  0.00    -0.495 OA
ATOM     38  C   UNL     1       0.055  -4.771  -1.297  0.00  0.00    +0.277 C 
ENDBRANCH  34  37
ENDBRANCH  30  31
ENDBRANCH  29  30
ENDBRANCH   1  25
TORSDOF 7
