REMARK  Name = ZINC28619844
REMARK  5 active torsions:
REMARK  status: ('A' for Active; 'I' for Inactive)
REMARK    1  A    between atoms: C_7  and  N_28
REMARK    2  A    between atoms: C_9  and  C_11
REMARK    3  A    between atoms: C_11  and  S_12
REMARK    4  A    between atoms: S_12  and  C_13
REMARK    5  A    between atoms: C_21  and  C_23
REMARK                            x       y       z     vdW  Elec       q    Type
REMARK                         _______ _______ _______ _____ _____    ______ ____
ROOT
ATOM      1  S   UNL     1       5.471  -2.886  -1.773  0.00  0.00    -0.097 S 
ENDROOT
BRANCH   1   2
ATOM      2  C   UNL     1       7.025  -3.704  -1.623  0.00  0.00    +0.109 A 
ATOM      3  C   UNL     1       7.789  -4.099  -2.806  0.00  0.00    +0.032 A 
ATOM      4  C   UNL     1       7.334  -3.852  -4.103  0.00  0.00    +0.012 A 
ATOM      5  C   UNL     1       8.094  -4.244  -5.167  0.00  0.00    +0.001 A 
ATOM      6  C   UNL     1       9.313  -4.887  -4.976  0.00  0.00    +0.002 A 
ATOM      7  C   UNL     1       9.785  -5.143  -3.723  0.00  0.00    +0.028 A 
ATOM      8  C   UNL     1       9.030  -4.753  -2.607  0.00  0.00    +0.076 A 
ATOM      9  N   UNL     1       9.446  -4.977  -1.354  0.00  0.00    -0.225 NA
ATOM     10  C   UNL     1       8.717  -4.600  -0.318  0.00  0.00    +0.197 A 
ATOM     11  N   UNL     1       7.544  -3.977  -0.434  0.00  0.00    -0.218 NA
BRANCH  10  12
ATOM     12  C   UNL     1       9.231  -4.877   1.036  0.00  0.00    +0.172 A 
ATOM     13  C   UNL     1       8.610  -4.563   2.207  0.00  0.00    +0.053 A 
ATOM     14  C   UNL     1       9.450  -5.008   3.244  0.00  0.00    +0.042 A 
ATOM     15  C   UNL     1      10.533  -5.566   2.663  0.00  0.00    +0.196 A 
ATOM     16  O   UNL     1      10.394  -5.491   1.331  0.00  0.00    -0.460 OA
ENDBRANCH  10  12
ENDBRANCH   1   2
BRANCH   1  17
ATOM     17  C   UNL     1       4.952  -2.612  -0.057  0.00  0.00    +0.152 C 
BRANCH  17  26
ATOM     18  C   UNL     1      -0.016   1.360   0.009  0.00  0.00    +0.001 A 
ATOM     19  C   UNL     1       1.168   2.091   0.002  0.00  0.00    +0.002 A 
ATOM     20  C   UNL     1       2.380   1.466  -0.013  0.00  0.00    +0.028 A 
ATOM     21  C   UNL     1       2.436   0.065  -0.021  0.00  0.00    +0.076 A 
ATOM     22  C   UNL     1       1.229  -0.676  -0.013  0.00  0.00    +0.040 A 
ATOM     23  C   UNL     1       0.002  -0.004   0.002  0.00  0.00    +0.013 A 
ATOM     24  C   UNL     1       1.313  -2.090  -0.021  0.00  0.00    +0.127 A 
ATOM     25  N   UNL     1       2.518  -2.646  -0.035  0.00  0.00    -0.216 NA
ATOM     26  C   UNL     1       3.618  -1.911  -0.042  0.00  0.00    +0.142 A 
ATOM     27  N   UNL     1       3.600  -0.599  -0.035  0.00  0.00    -0.231 NA
BRANCH  24  28
ATOM     28  N   UNL     1       0.175  -2.867  -0.014  0.00  0.00    -0.343 N 
ATOM     29  H   UNL     1      -0.699  -2.447  -0.003  0.00  0.00    +0.144 HD
ATOM     30  H   UNL     1       0.248  -3.834  -0.019  0.00  0.00    +0.144 HD
ENDBRANCH  24  28
ENDBRANCH  17  26
ENDBRANCH   1  17
TORSDOF 5
