REMARK  Name = ZINC45871171
REMARK  11 active torsions:
REMARK  status: ('A' for Active; 'I' for Inactive)
REMARK    1  A    between atoms: C_1  and  C_2
REMARK    2  A    between atoms: C_2  and  C_3
REMARK    3  A    between atoms: C_6  and  C_9
REMARK    4  A    between atoms: C_9  and  C_11
REMARK    5  A    between atoms: C_9  and  N_34
REMARK    6  A    between atoms: C_11  and  N_12
REMARK    7  A    between atoms: C_13  and  C_15
REMARK    8  A    between atoms: N_20  and  S_21
REMARK    9  A    between atoms: S_21  and  C_24
REMARK   10  A    between atoms: N_34  and  C_35
REMARK   11  A    between atoms: N_34  and  C_36
REMARK                            x       y       z     vdW  Elec       q    Type
REMARK                         _______ _______ _______ _____ _____    ______ ____
ROOT
ATOM      1  N   UNL     1      -6.300  -3.690  -1.151  0.00  0.00    -0.315 N 
ATOM      2  C   UNL     1      -6.967  -4.861  -1.165  0.00  0.00    +0.232 C 
ATOM      3  O   UNL     1      -6.372  -5.900  -0.974  0.00  0.00    -0.274 OA
ATOM      4  H   UNL     1      -6.775  -2.858  -1.304  0.00  0.00    +0.149 HD
ENDROOT
BRANCH   2   5
ATOM      5  C   UNL     1      -8.453  -4.878  -1.417  0.00  0.00    +0.165 C 
ATOM      6  C   UNL     1      -9.213  -4.708  -0.085  0.00  0.00    +0.031 C 
ATOM      7  C   UNL     1     -10.424  -5.663  -0.252  0.00  0.00    +0.019 C 
ATOM      8  C   UNL     1      -9.794  -6.827  -1.058  0.00  0.00    +0.110 C 
ATOM      9  N   UNL     1      -8.848  -6.175  -1.987  0.00  0.00    -0.165 NA
BRANCH   9  10
ATOM     10  S   UNL     1      -8.320  -6.797  -3.427  0.00  0.00    +0.062 S 
ATOM     11  O   UNL     1      -7.138  -6.085  -3.769  0.00  0.00    -0.153 OA
ATOM     12  O   UNL     1      -8.345  -8.212  -3.292  0.00  0.00    -0.153 OA
BRANCH  10  13
ATOM     13  C   UNL     1      -9.525  -6.387  -4.645  0.00  0.00    +0.109 A 
ATOM     14  C   UNL     1     -10.632  -7.196  -4.822  0.00  0.00    +0.032 A 
ATOM     15  C   UNL     1     -11.578  -6.878  -5.777  0.00  0.00    +0.051 A 
ATOM     16  C   UNL     1     -11.421  -5.744  -6.560  0.00  0.00    +0.162 A 
ATOM     17  C   UNL     1     -10.310  -4.929  -6.381  0.00  0.00    +0.164 A 
ATOM     18  C   UNL     1      -9.365  -5.252  -5.419  0.00  0.00    +0.078 A 
ATOM     19  O   UNL     1     -10.140  -3.808  -7.134  0.00  0.00    -0.485 OA
ATOM     20  C   UNL     1     -10.915  -3.715  -8.334  0.00  0.00    +0.270 C 
ATOM     21  C   UNL     1     -12.362  -4.106  -8.004  0.00  0.00    +0.270 C 
ATOM     22  O   UNL     1     -12.360  -5.446  -7.499  0.00  0.00    -0.485 OA
ENDBRANCH  10  13
ENDBRANCH   9  10
ENDBRANCH   2   5
BRANCH   1  23
ATOM     23  C   UNL     1      -4.855  -3.673  -0.906  0.00  0.00    +0.093 C 
BRANCH  23  24
ATOM     24  C   UNL     1      -4.370  -2.224  -0.816  0.00  0.00    -0.021 C 
BRANCH  24  28
ATOM     25  C   UNL     1      -6.268  -0.293   2.487  0.00  0.00    -0.048 A 
ATOM     26  C   UNL     1      -6.740  -0.090   1.204  0.00  0.00    +0.004 A 
ATOM     27  C   UNL     1      -6.126  -0.715   0.135  0.00  0.00    +0.002 A 
ATOM     28  C   UNL     1      -5.039  -1.542   0.349  0.00  0.00    -0.059 A 
ATOM     29  C   UNL     1      -4.567  -1.744   1.633  0.00  0.00    +0.002 A 
ATOM     30  C   UNL     1      -5.179  -1.116   2.701  0.00  0.00    +0.004 A 
BRANCH  25  32
ATOM     31  C   UNL     1      -6.281   1.749   3.895  0.00  0.00    +0.009 C 
ATOM     32  C   UNL     1      -6.938   0.389   3.653  0.00  0.00    +0.032 C 
ENDBRANCH  25  32
ENDBRANCH  24  28
BRANCH  24  33
ATOM     33  N   UNL     1      -2.914  -2.207  -0.624  0.00  0.00    +0.382 N 
ATOM     34  C   UNL     1      -2.262  -2.875  -1.758  0.00  0.00    -0.096 C 
ATOM     35  C   UNL     1      -2.448  -0.816  -0.541  0.00  0.00    -0.096 C 
ATOM     36  H   UNL     1      -2.682  -2.691   0.231  0.00  0.00    -0.082 HD
ENDBRANCH  24  33
ENDBRANCH  23  24
ENDBRANCH   1  23
TORSDOF 8
