REMARK  Name = ZINC08046125
REMARK  7 active torsions:
REMARK  status: ('A' for Active; 'I' for Inactive)
REMARK    1  A    between atoms: C_8  and  C_24
REMARK    2  A    between atoms: N_9  and  C_10
REMARK    3  A    between atoms: C_10  and  C_11
REMARK    4  A    between atoms: N_13  and  N_14
REMARK    5  A    between atoms: C_15  and  C_16
REMARK    6  A    between atoms: C_19  and  O_23
REMARK    7  A    between atoms: C_21  and  O_22
REMARK                            x       y       z     vdW  Elec       q    Type
REMARK                         _______ _______ _______ _____ _____    ______ ____
ROOT
ATOM      1  C   UNL     1       5.384  -0.513   1.367  0.00  0.00    +0.252 C 
ATOM      2  O   UNL     1       4.620  -0.670   2.296  0.00  0.00    -0.272 OA
ATOM      3  N   UNL     1       6.686  -0.260   1.601  0.00  0.00    -0.206 N 
ATOM      4  H   UNL     1       7.297  -0.134   0.858  0.00  0.00    +0.177 HD
ENDROOT
BRANCH   3   5
ATOM      5  N   UNL     1       7.158  -0.176   2.917  0.00  0.00    -0.188 NA
ATOM      6  C   UNL     1       8.413   0.068   3.143  0.00  0.00    +0.142 C 
BRANCH   6   7
ATOM      7  C   UNL     1       8.909   0.156   4.527  0.00  0.00    +0.036 A 
ATOM      8  C   UNL     1      10.258   0.424   4.774  0.00  0.00    +0.016 A 
ATOM      9  C   UNL     1      10.718   0.506   6.070  0.00  0.00    +0.046 A 
ATOM     10  C   UNL     1       9.844   0.321   7.135  0.00  0.00    +0.120 A 
ATOM     11  C   UNL     1       8.503   0.053   6.901  0.00  0.00    +0.091 A 
ATOM     12  C   UNL     1       8.028  -0.025   5.604  0.00  0.00    +0.129 A 
BRANCH  12  13
ATOM     13  O   UNL     1       6.715  -0.281   5.373  0.00  0.00    -0.506 OA
ATOM     14  H   UNL     1       6.505  -1.222   5.300  0.00  0.00    +0.292 HD
ENDBRANCH  12  13
BRANCH  10  15
ATOM     15  O   UNL     1      10.305   0.402   8.410  0.00  0.00    -0.507 OA
ATOM     16  H   UNL     1      10.265   1.292   8.787  0.00  0.00    +0.292 HD
ENDBRANCH  10  15
ENDBRANCH   6   7
ENDBRANCH   3   5
BRANCH   1  17
ATOM     17  C   UNL     1       4.876  -0.603  -0.050  0.00  0.00    +0.221 C 
BRANCH  17  26
ATOM     18  C   UNL     1      -0.016   1.362   0.009  0.00  0.00    +0.002 A 
ATOM     19  C   UNL     1       1.167   2.086   0.002  0.00  0.00    +0.002 A 
ATOM     20  C   UNL     1       2.383   1.437  -0.013  0.00  0.00    +0.028 A 
ATOM     21  C   UNL     1       2.422   0.049  -0.021  0.00  0.00    +0.069 A 
ATOM     22  C   UNL     1       1.223  -0.684  -0.013  0.00  0.00    +0.090 A 
ATOM     23  C   UNL     1       0.002  -0.004   0.002  0.00  0.00    +0.030 A 
ATOM     24  N   UNL     1       1.563  -1.998  -0.024  0.00  0.00    -0.224 NA
ATOM     25  C   UNL     1       2.858  -2.115  -0.037  0.00  0.00    +0.216 A 
ATOM     26  N   UNL     1       3.439  -0.885  -0.036  0.00  0.00    -0.311 N 
BRANCH  25  27
ATOM     27  C   UNL     1       3.607  -3.423  -0.051  0.00  0.00    +0.451 C 
ATOM     28  F   UNL     1       2.730  -4.459  -0.390  0.00  0.00    -0.163 F 
ATOM     29  F   UNL     1       4.639  -3.359  -0.994  0.00  0.00    -0.163 F 
ATOM     30  F   UNL     1       4.147  -3.665   1.216  0.00  0.00    -0.163 F 
ENDBRANCH  25  27
ENDBRANCH  17  26
ENDBRANCH   1  17
TORSDOF 7
