REMARK  Name = ZINC29282308
REMARK  5 active torsions:
REMARK  status: ('A' for Active; 'I' for Inactive)
REMARK    1  A    between atoms: C_1  and  C_2
REMARK    2  A    between atoms: C_3  and  S_12
REMARK    3  A    between atoms: S_12  and  C_13
REMARK    4  A    between atoms: C_13  and  C_14
REMARK    5  A    between atoms: N_16  and  N_17
REMARK                            x       y       z     vdW  Elec       q    Type
REMARK                         _______ _______ _______ _____ _____    ______ ____
ROOT
ATOM      1  C   UNL     1       3.619   1.825   4.388  0.00  0.00    +0.240 C 
ATOM      2  O   UNL     1       4.343   1.440   3.495  0.00  0.00    -0.273 OA
ATOM      3  N   UNL     1       4.135   2.108   5.600  0.00  0.00    -0.223 N 
ATOM      4  H   UNL     1       3.478   2.457   6.410  0.00  0.00    +0.174 HD
ENDROOT
BRANCH   3   5
ATOM      5  N   UNL     1       5.509   1.957   5.829  0.00  0.00    -0.137 N 
ATOM      6  C   UNL     1       6.380   2.984   5.918  0.00  0.00    +0.263 C 
ATOM      7  O   UNL     1       6.133   4.167   5.820  0.00  0.00    -0.271 OA
ATOM      8  C   UNL     1       7.729   2.349   6.167  0.00  0.00    +0.114 C 
ATOM      9  C   UNL     1       8.293   2.807   7.507  0.00  0.00    +0.035 C 
ATOM     10  C   UNL     1       9.644   2.131   7.753  0.00  0.00    +0.003 C 
ATOM     11  C   UNL     1      10.609   2.497   6.623  0.00  0.00    +0.000 C 
ATOM     12  C   UNL     1      10.041   2.009   5.288  0.00  0.00    +0.003 C 
ATOM     13  C   UNL     1       8.691   2.684   5.033  0.00  0.00    +0.035 C 
ATOM     14  N   UNL     1       7.445   0.908   6.192  0.00  0.00    -0.284 N 
ATOM     15  C   UNL     1       6.120   0.777   5.992  0.00  0.00    +0.326 C 
ATOM     16  O   UNL     1       5.544  -0.292   5.958  0.00  0.00    -0.251 OA
ATOM     17  H   UNL     1       8.262   0.189   6.355  0.00  0.00    +0.151 HD
ENDBRANCH   3   5
BRANCH   1  18
ATOM     18  C   UNL     1       2.141   1.987   4.142  0.00  0.00    +0.173 C 
BRANCH  18  19
ATOM     19  S   UNL     1       1.760   1.533   2.432  0.00  0.00    -0.095 S 
BRANCH  19  22
ATOM     20  C   UNL     1      -0.013   1.086   0.008  0.00  0.00    +0.068 C 
ATOM     21  C   UNL     1      -0.718   1.572   1.248  0.00  0.00    +0.071 A 
ATOM     22  C   UNL     1       0.020   1.808   2.422  0.00  0.00    +0.119 A 
ATOM     23  N   UNL     1      -0.583   2.234   3.517  0.00  0.00    -0.237 NA
ATOM     24  C   UNL     1      -1.905   2.442   3.507  0.00  0.00    +0.090 A 
ATOM     25  C   UNL     1      -2.575   2.896   4.656  0.00  0.00    +0.030 A 
ATOM     26  C   UNL     1      -3.920   3.100   4.617  0.00  0.00    +0.002 A 
ATOM     27  C   UNL     1      -4.647   2.865   3.452  0.00  0.00    +0.002 A 
ATOM     28  C   UNL     1      -4.031   2.424   2.320  0.00  0.00    +0.030 A 
ATOM     29  C   UNL     1      -2.644   2.203   2.322  0.00  0.00    +0.090 A 
ATOM     30  N   UNL     1      -2.012   1.776   1.221  0.00  0.00    -0.248 NA
ENDBRANCH  19  22
ENDBRANCH  18  19
ENDBRANCH   1  18
TORSDOF 4
