REMARK  Name = ZINC44920931
REMARK  5 active torsions:
REMARK  status: ('A' for Active; 'I' for Inactive)
REMARK    1  A    between atoms: N_7  and  C_8
REMARK    2  A    between atoms: C_8  and  C_9
REMARK    3  A    between atoms: N_11  and  C_12
REMARK    4  A    between atoms: C_12  and  C_13
REMARK    5  A    between atoms: C_13  and  C_14
REMARK                            x       y       z     vdW  Elec       q    Type
REMARK                         _______ _______ _______ _____ _____    ______ ____
ROOT
ATOM      1  C   UNL     1       4.162   3.772   1.396  0.00  0.00    +0.233 C 
ATOM      2  O   UNL     1       3.863   3.038   2.314  0.00  0.00    -0.274 OA
ATOM      3  N   UNL     1       4.534   5.044   1.644  0.00  0.00    -0.314 N 
ATOM      4  H   UNL     1       4.773   5.631   0.910  0.00  0.00    +0.149 HD
ENDROOT
BRANCH   1   5
ATOM      5  C   UNL     1       4.120   3.263  -0.021  0.00  0.00    +0.217 C 
BRANCH   5  12
ATOM      6  C   UNL     1      -0.017   1.384   0.010  0.00  0.00    +0.003 A 
ATOM      7  C   UNL     1       1.158   2.103   0.002  0.00  0.00    +0.026 A 
ATOM      8  C   UNL     1       2.380   1.437  -0.013  0.00  0.00    +0.051 A 
ATOM      9  C   UNL     1       2.400   0.031  -0.021  0.00  0.00    +0.018 A 
ATOM     10  C   UNL     1       3.814  -0.354  -0.037  0.00  0.00    +0.029 A 
ATOM     11  C   UNL     1       4.529   0.782  -0.038  0.00  0.00    +0.087 A 
ATOM     12  N   UNL     1       3.689   1.862  -0.024  0.00  0.00    -0.338 N 
ATOM     13  C   UNL     1       1.200  -0.684  -0.013  0.00  0.00    +0.050 A 
ATOM     14  C   UNL     1       0.002  -0.004   0.002  0.00  0.00    +0.021 A 
ATOM     15 CL   UNL     1       1.218  -2.420  -0.023  0.00  0.00    -0.083 Cl
ENDBRANCH   5  12
ENDBRANCH   1   5
BRANCH   3  16
ATOM     16  C   UNL     1       4.575   5.540   3.022  0.00  0.00    +0.109 C 
BRANCH  16  17
ATOM     17  C   UNL     1       5.024   7.002   3.025  0.00  0.00    +0.056 C 
BRANCH  17  18
ATOM     18  C   UNL     1       5.067   7.512   4.442  0.00  0.00    -0.021 A 
ATOM     19  C   UNL     1       4.092   8.176   5.082  0.00  0.00    +0.087 A 
ATOM     20  N   UNL     1       4.490   8.478   6.356  0.00  0.00    -0.360 N 
ATOM     21  H   UNL     1       3.954   8.954   7.009  0.00  0.00    +0.165 HD
ATOM     22  C   UNL     1       5.765   8.002   6.573  0.00  0.00    +0.047 A 
ATOM     23  C   UNL     1       6.179   7.372   5.386  0.00  0.00    +0.004 A 
ATOM     24  C   UNL     1       7.444   6.784   5.313  0.00  0.00    +0.030 A 
ATOM     25  C   UNL     1       8.277   6.824   6.410  0.00  0.00    +0.042 A 
ATOM     26  C   UNL     1       7.865   7.444   7.582  0.00  0.00    +0.022 A 
ATOM     27  C   UNL     1       6.624   8.035   7.666  0.00  0.00    +0.027 A 
ATOM     28 CL   UNL     1       9.850   6.095   6.325  0.00  0.00    -0.084 Cl
ENDBRANCH  17  18
ENDBRANCH  16  17
ENDBRANCH   3  16
TORSDOF 5
