REMARK  Name = ZINC35425384
REMARK  10 active torsions:
REMARK  status: ('A' for Active; 'I' for Inactive)
REMARK    1  A    between atoms: C_1  and  C_2
REMARK    2  A    between atoms: C_4  and  C_36
REMARK    3  A    between atoms: C_6  and  O_8
REMARK    4  A    between atoms: O_8  and  C_9
REMARK    5  A    between atoms: N_12  and  C_23
REMARK    6  A    between atoms: C_23  and  C_24
REMARK    7  A    between atoms: N_26  and  C_27
REMARK    8  A    between atoms: C_28  and  C_35
REMARK    9  A    between atoms: C_30  and  C_34
REMARK   10  A    between atoms: C_32  and  C_33
REMARK                            x       y       z     vdW  Elec       q    Type
REMARK                         _______ _______ _______ _____ _____    ______ ____
ROOT
ATOM      1  C   UNL     1       1.256  -5.234   2.108  0.00  0.00    +0.267 A 
ATOM      2  C   UNL     1       1.067  -5.118   3.561  0.00  0.00    +0.225 A 
ATOM      3  N   UNL     1       1.081  -5.994   4.529  0.00  0.00    -0.143 NA
ATOM      4  N   UNL     1       0.839  -5.315   5.732  0.00  0.00    -0.203 N 
ATOM      5  C   UNL     1       0.682  -4.008   5.437  0.00  0.00    +0.352 A 
ATOM      6  O   UNL     1       0.457  -3.114   6.234  0.00  0.00    -0.244 OA
ATOM      7  N   UNL     1       0.819  -3.868   4.106  0.00  0.00    -0.238 N 
ATOM      8  C   UNL     1       0.758  -2.765   3.256  0.00  0.00    +0.079 A 
ATOM      9  C   UNL     1       0.512  -1.500   3.769  0.00  0.00    +0.028 A 
ATOM     10  C   UNL     1       0.453  -0.410   2.923  0.00  0.00    +0.002 A 
ATOM     11  C   UNL     1       0.638  -0.572   1.560  0.00  0.00    +0.002 A 
ATOM     12  C   UNL     1       0.884  -1.821   1.033  0.00  0.00    +0.030 A 
ATOM     13  C   UNL     1       0.947  -2.936   1.877  0.00  0.00    +0.092 A 
ATOM     14  N   UNL     1       1.194  -4.166   1.353  0.00  0.00    -0.208 NA
ENDROOT
BRANCH   1  15
ATOM     15  O   UNL     1       1.500  -6.443   1.552  0.00  0.00    -0.435 OA
BRANCH  15  21
ATOM     16  C   UNL     1      -0.182  -7.509  -2.904  0.00  0.00    +0.044 C 
ATOM     17  C   UNL     1       0.910  -7.012  -1.993  0.00  0.00    -0.047 A 
ATOM     18  C   UNL     1       2.123  -6.612  -2.523  0.00  0.00    +0.007 A 
ATOM     19  C   UNL     1       3.127  -6.155  -1.689  0.00  0.00    -0.047 A 
ATOM     20  C   UNL     1       2.921  -6.098  -0.325  0.00  0.00    +0.049 A 
ATOM     21  C   UNL     1       1.705  -6.498   0.210  0.00  0.00    +0.131 A 
ATOM     22  C   UNL     1       0.697  -6.951  -0.629  0.00  0.00    +0.049 A 
ATOM     23  C   UNL     1       4.448  -5.721  -2.270  0.00  0.00    +0.044 C 
ENDBRANCH  15  21
ENDBRANCH   1  15
BRANCH   4  24
ATOM     24  C   UNL     1       0.769  -5.915   7.066  0.00  0.00    +0.244 C 
BRANCH  24  25
ATOM     25  C   UNL     1      -0.651  -6.327   7.358  0.00  0.00    +0.239 C 
ATOM     26  O   UNL     1      -1.520  -6.137   6.533  0.00  0.00    -0.273 OA
ATOM     27  N   UNL     1      -0.957  -6.906   8.536  0.00  0.00    -0.284 N 
ATOM     28  H   UNL     1      -0.281  -6.985   9.227  0.00  0.00    +0.155 HD
BRANCH  27  29
ATOM     29  C   UNL     1      -2.248  -7.393   8.762  0.00  0.00    +0.039 A 
ATOM     30  C   UNL     1      -2.439  -8.722   9.117  0.00  0.00    -0.029 A 
ATOM     31  C   UNL     1      -3.715  -9.200   9.340  0.00  0.00    +0.008 A 
ATOM     32  C   UNL     1      -4.803  -8.356   9.210  0.00  0.00    -0.050 A 
ATOM     33  C   UNL     1      -4.617  -7.033   8.856  0.00  0.00    +0.008 A 
ATOM     34  C   UNL     1      -3.343  -6.547   8.638  0.00  0.00    -0.029 A 
ATOM     35  C   UNL     1      -3.140  -5.103   8.260  0.00  0.00    +0.045 C 
ATOM     36  C   UNL     1      -6.195  -8.881   9.454  0.00  0.00    +0.044 C 
ATOM     37  C   UNL     1      -1.254  -9.642   9.259  0.00  0.00    +0.045 C 
ENDBRANCH  27  29
ENDBRANCH  24  25
ENDBRANCH   4  24
TORSDOF 5
