REMARK  Name = ZINC16041858
REMARK  7 active torsions:
REMARK  status: ('A' for Active; 'I' for Inactive)
REMARK    1  A    between atoms: C_10  and  C_11
REMARK    2  A    between atoms: C_11  and  C_12
REMARK    3  A    between atoms: N_14  and  C_15
REMARK    4  A    between atoms: C_15  and  C_17
REMARK    5  A    between atoms: C_15  and  O_21
REMARK    6  A    between atoms: O_21  and  C_22
REMARK    7  A    between atoms: C_22  and  C_23
REMARK                            x       y       z     vdW  Elec       q    Type
REMARK                         _______ _______ _______ _____ _____    ______ ____
ROOT
ATOM      1  C   UNL     1      -0.013   1.086   0.008  0.00  0.00    +0.257 C 
ENDROOT
BRANCH   1   4
ATOM      2  C   UNL     1      -0.875   0.765  -2.248  0.00  0.00    +0.219 C 
ATOM      3  O   UNL     1      -0.427  -0.361  -2.228  0.00  0.00    -0.275 OA
ATOM      4  N   UNL     1      -0.721   1.571  -1.179  0.00  0.00    -0.286 N 
ATOM      5  H   UNL     1      -1.080   2.472  -1.195  0.00  0.00    +0.151 HD
BRANCH   2   6
ATOM      6  C   UNL     1      -1.604   1.265  -3.469  0.00  0.00    +0.131 C 
BRANCH   6  16
ATOM      7  C   UNL     1      -4.599  -2.769  -4.449  0.00  0.00    +0.001 A 
ATOM      8  C   UNL     1      -4.584  -1.772  -3.474  0.00  0.00    +0.001 A 
ATOM      9  C   UNL     1      -3.629  -0.803  -3.478  0.00  0.00    +0.009 A 
ATOM     10  C   UNL     1      -2.640  -0.805  -4.477  0.00  0.00    -0.014 A 
ATOM     11  C   UNL     1      -2.659  -1.816  -5.471  0.00  0.00    -0.018 A 
ATOM     12  C   UNL     1      -3.665  -2.797  -5.437  0.00  0.00    +0.008 A 
ATOM     13  C   UNL     1      -1.667  -1.821  -6.466  0.00  0.00    +0.008 A 
ATOM     14  C   UNL     1      -0.708  -0.855  -6.466  0.00  0.00    +0.001 A 
ATOM     15  C   UNL     1      -0.693   0.142  -5.493  0.00  0.00    +0.005 A 
ATOM     16  C   UNL     1      -1.638   0.178  -4.513  0.00  0.00    -0.031 A 
ENDBRANCH   6  16
ENDBRANCH   2   6
ENDBRANCH   1   4
BRANCH   1  17
ATOM     17  C   UNL     1      -0.729   1.579   1.267  0.00  0.00    +0.233 C 
ATOM     18 CL   UNL     1      -0.753   3.382   1.277  0.00  0.00    -0.079 Cl
ATOM     19 CL   UNL     1      -2.420   0.955   1.280  0.00  0.00    -0.079 Cl
ATOM     20 CL   UNL     1       0.143   0.982   2.728  0.00  0.00    -0.079 Cl
ENDBRANCH   1  17
BRANCH   1  21
ATOM     21  O   UNL     1       1.328   1.580  -0.002  0.00  0.00    -0.354 OA
BRANCH  21  22
ATOM     22  C   UNL     1       2.154   1.000  -1.013  0.00  0.00    +0.164 C 
BRANCH  22  23
ATOM     23  C   UNL     1       3.559   1.600  -0.931  0.00  0.00    +0.001 C 
ATOM     24  C   UNL     1       3.495   3.091  -1.266  0.00  0.00    +0.002 C 
ATOM     25  C   UNL     1       4.915   3.665  -1.223  0.00  0.00    -0.018 C 
ATOM     26  C   UNL     1       5.784   2.909  -2.228  0.00  0.00    -0.078 C 
ATOM     27  C   UNL     1       4.479   0.882  -1.924  0.00  0.00    -0.063 C 
ATOM     28  C   UNL     1       4.549  -0.596  -1.525  0.00  0.00    -0.015 C 
ATOM     29  C   UNL     1       5.494  -1.343  -2.466  0.00  0.00    -0.003 C 
ATOM     30  C   UNL     1       6.876  -0.684  -2.400  0.00  0.00    -0.019 C 
ATOM     31  C   UNL     1       6.742   0.784  -2.802  0.00  0.00    -0.078 C 
ATOM     32  N   UNL     1       5.837   1.479  -1.869  0.00  0.00    +0.382 N 
ATOM     33  H   UNL     1       6.202   1.385  -0.914  0.00  0.00    -0.081 HD
ENDBRANCH  22  23
ENDBRANCH  21  22
ENDBRANCH   1  21
TORSDOF 7
