REMARK  Name = ZINC15776318
REMARK  10 active torsions:
REMARK  status: ('A' for Active; 'I' for Inactive)
REMARK    1  A    between atoms: C_1  and  N_2
REMARK    2  A    between atoms: N_2  and  C_3
REMARK    3  A    between atoms: N_2  and  C_4
REMARK    4  A    between atoms: C_7  and  C_10
REMARK    5  A    between atoms: C_14  and  N_29
REMARK    6  A    between atoms: C_24  and  N_26
REMARK    7  A    between atoms: N_26  and  C_27
REMARK    8  A    between atoms: N_26  and  C_28
REMARK    9  A    between atoms: N_29  and  C_30
REMARK   10  A    between atoms: N_29  and  C_31
REMARK                            x       y       z     vdW  Elec       q    Type
REMARK                         _______ _______ _______ _____ _____    ______ ____
ROOT
ATOM      1  C   UNL     1      -0.005  -2.813  -4.924  0.00  0.00    +0.083 C 
ATOM      2  C   UNL     1      -1.259  -3.618  -4.988  0.00  0.00    -0.010 A 
ATOM      3  C   UNL     1      -2.410  -2.986  -5.459  0.00  0.00    +0.008 A 
ATOM      4  C   UNL     1      -3.607  -3.662  -5.531  0.00  0.00    +0.023 A 
ATOM      5  C   UNL     1      -3.683  -4.990  -5.132  0.00  0.00    +0.031 A 
ATOM      6  C   UNL     1      -2.539  -5.625  -4.668  0.00  0.00    +0.050 A 
ATOM      7  C   UNL     1      -1.341  -4.940  -4.605  0.00  0.00    +0.099 A 
ATOM      8  S   UNL     1       0.100  -5.778  -4.028  0.00  0.00    +0.026 S 
ATOM      9  O   UNL     1       0.133  -7.039  -4.682  0.00  0.00    -0.164 OA
ATOM     10  O   UNL     1       0.113  -5.648  -2.613  0.00  0.00    -0.164 OA
ATOM     11  C   UNL     1       1.471  -4.850  -4.638  0.00  0.00    +0.099 A 
ATOM     12  C   UNL     1       1.290  -3.542  -5.036  0.00  0.00    -0.010 A 
ATOM     13  C   UNL     1       2.377  -2.852  -5.571  0.00  0.00    +0.008 A 
ATOM     14  C   UNL     1       3.611  -3.452  -5.681  0.00  0.00    +0.023 A 
ATOM     15  C   UNL     1       3.789  -4.762  -5.255  0.00  0.00    +0.031 A 
ATOM     16  C   UNL     1       2.708  -5.458  -4.731  0.00  0.00    +0.050 A 
ENDROOT
BRANCH   1  20
ATOM     17  C   UNL     1       0.000  -0.696  -1.211  0.00  0.00    +0.029 A 
ATOM     18  C   UNL     1       0.444  -2.011  -1.264  0.00  0.00    +0.023 A 
ATOM     19  C   UNL     1       0.436  -2.694  -2.464  0.00  0.00    +0.006 A 
ATOM     20  C   UNL     1      -0.003  -2.066  -3.615  0.00  0.00    -0.035 A 
ATOM     21  C   UNL     1      -0.441  -0.755  -3.568  0.00  0.00    +0.006 A 
ATOM     22  C   UNL     1      -0.441  -0.069  -2.369  0.00  0.00    +0.023 A 
BRANCH  17  24
ATOM     23  C   UNL     1      -0.461   1.385   0.054  0.00  0.00    +0.129 C 
ATOM     24  N   UNL     1       0.002  -0.004   0.002  0.00  0.00    -0.336 N 
ATOM     25  C   UNL     1       0.467  -0.668   1.223  0.00  0.00    +0.129 C 
ENDBRANCH  17  24
ENDBRANCH   1  20
BRANCH  15  26
ATOM     26  N   UNL     1       5.042  -5.372  -5.352  0.00  0.00    -0.336 N 
ATOM     27  C   UNL     1       6.177  -4.630  -5.906  0.00  0.00    +0.129 C 
ATOM     28  C   UNL     1       5.220  -6.755  -4.900  0.00  0.00    +0.129 C 
ENDBRANCH  15  26
BRANCH   5  29
ATOM     29  N   UNL     1      -4.897  -5.678  -5.195  0.00  0.00    -0.336 N 
ATOM     30  C   UNL     1      -4.968  -7.079  -4.771  0.00  0.00    +0.129 C 
ATOM     31  C   UNL     1      -6.099  -5.000  -5.686  0.00  0.00    +0.129 C 
ENDBRANCH   5  29
TORSDOF 4
