REMARK  Name = ZINC36484072
REMARK  9 active torsions:
REMARK  status: ('A' for Active; 'I' for Inactive)
REMARK    1  A    between atoms: C_1  and  C_2
REMARK    2  A    between atoms: C_2  and  C_3
REMARK    3  A    between atoms: C_2  and  C_4
REMARK    4  A    between atoms: C_2  and  N_5
REMARK    5  A    between atoms: C_6  and  C_8
REMARK    6  A    between atoms: C_8  and  C_10
REMARK    7  A    between atoms: C_8  and  N_17
REMARK    8  A    between atoms: C_15  and  O_16
REMARK    9  A    between atoms: N_17  and  C_20
REMARK                            x       y       z     vdW  Elec       q    Type
REMARK                         _______ _______ _______ _____ _____    ______ ____
ROOT
ATOM      1  C   UNL     1       2.690  -0.864  -2.701  0.00  0.00    +0.200 C 
ENDROOT
BRANCH   1   2
ATOM      2  C   UNL     1       2.207  -0.389  -4.047  0.00  0.00    +0.024 A 
ATOM      3  C   UNL     1       1.357   0.697  -4.133  0.00  0.00    +0.009 A 
ATOM      4  C   UNL     1       0.913   1.133  -5.367  0.00  0.00    +0.001 A 
ATOM      5  C   UNL     1       1.319   0.484  -6.519  0.00  0.00    +0.004 A 
ATOM      6  C   UNL     1       2.169  -0.601  -6.439  0.00  0.00    +0.046 A 
ATOM      7  C   UNL     1       2.620  -1.037  -5.201  0.00  0.00    +0.122 A 
BRANCH   7   8
ATOM      8  O   UNL     1       3.462  -2.102  -5.120  0.00  0.00    -0.506 OA
ATOM      9  H   UNL     1       3.013  -2.958  -5.117  0.00  0.00    +0.292 HD
ENDBRANCH   7   8
ENDBRANCH   1   2
BRANCH   1  11
ATOM     10  N   UNL     1       0.567  -0.618  -1.456  0.00  0.00    -0.309 N 
ATOM     11  C   UNL     1       1.851  -0.239  -1.617  0.00  0.00    +0.239 C 
ATOM     12  O   UNL     1       2.330   0.604  -0.889  0.00  0.00    -0.273 OA
ATOM     13  H   UNL     1       0.161  -1.234  -2.085  0.00  0.00    +0.149 HD
BRANCH  10  15
ATOM     14  C   UNL     1      -0.288   1.427  -0.422  0.00  0.00    +0.031 C 
ATOM     15  C   UNL     1      -0.214  -0.098  -0.331  0.00  0.00    +0.026 C 
ATOM     16  C   UNL     1       0.457  -0.498   0.985  0.00  0.00    +0.031 C 
ATOM     17  C   UNL     1      -1.628  -0.681  -0.380  0.00  0.00    +0.031 C 
ENDBRANCH  10  15
ENDBRANCH   1  11
BRANCH   1  18
ATOM     18  N   UNL     1       4.091  -0.475  -2.519  0.00  0.00    -0.258 N 
ATOM     19  C   UNL     1       4.455   0.816  -2.657  0.00  0.00    +0.333 C 
ATOM     20  O   UNL     1       5.627   1.124  -2.604  0.00  0.00    -0.279 OA
BRANCH  18  21
ATOM     21  C   UNL     1       5.051  -1.442  -2.203  0.00  0.00    +0.039 A 
ATOM     22  C   UNL     1       6.137  -1.646  -3.045  0.00  0.00    +0.023 A 
ATOM     23  C   UNL     1       7.083  -2.602  -2.731  0.00  0.00    +0.003 A 
ATOM     24  C   UNL     1       6.950  -3.357  -1.580  0.00  0.00    +0.020 A 
ATOM     25  C   UNL     1       5.869  -3.157  -0.739  0.00  0.00    +0.043 A 
ATOM     26  C   UNL     1       4.922  -2.197  -1.045  0.00  0.00    +0.043 A 
ATOM     27 CL   UNL     1       5.705  -4.107   0.705  0.00  0.00    -0.083 Cl
ENDBRANCH  18  21
ENDBRANCH   1  18
TORSDOF 6
