REMARK  Name = ZINC06162456
REMARK  10 active torsions:
REMARK  status: ('A' for Active; 'I' for Inactive)
REMARK    1  A    between atoms: C_1  and  C_2
REMARK    2  A    between atoms: C_2  and  C_3
REMARK    3  A    between atoms: C_3  and  O_4
REMARK    4  A    between atoms: O_4  and  C_5
REMARK    5  A    between atoms: C_8  and  C_11
REMARK    6  A    between atoms: C_14  and  C_25
REMARK    7  A    between atoms: C_20  and  N_24
REMARK    8  A    between atoms: C_21  and  C_22
REMARK    9  A    between atoms: C_27  and  C_31
REMARK   10  A    between atoms: C_29  and  C_30
REMARK                            x       y       z     vdW  Elec       q    Type
REMARK                         _______ _______ _______ _____ _____    ______ ____
ROOT
ATOM      1  C   UNL     1       3.142  -4.421  -5.324  0.00  0.00    +0.102 C 
ATOM      2  C   UNL     1       4.404  -5.193  -5.033  0.00  0.00    +0.054 A 
ATOM      3  C   UNL     1       5.682  -4.716  -4.730  0.00  0.00    +0.101 A 
ATOM      4  N   UNL     1       6.472  -5.757  -4.550  0.00  0.00    -0.171 NA
ATOM      5  N   UNL     1       5.714  -6.924  -4.734  0.00  0.00    -0.246 N 
ATOM      6  H   UNL     1       6.041  -7.834  -4.662  0.00  0.00    +0.192 HD
ATOM      7  C   UNL     1       4.450  -6.557  -5.030  0.00  0.00    +0.223 A 
ATOM      8  O   UNL     1       3.365  -7.327  -5.293  0.00  0.00    -0.423 OA
ATOM      9  C   UNL     1       2.285  -6.723  -5.829  0.00  0.00    +0.200 C 
ATOM     10  C   UNL     1       2.119  -5.381  -5.878  0.00  0.00    +0.098 C 
ENDROOT
BRANCH   3  11
ATOM     11  C   UNL     1       6.081  -3.289  -4.629  0.00  0.00    +0.013 A 
ATOM     12  C   UNL     1       5.713  -2.377  -5.612  0.00  0.00    +0.021 A 
ATOM     13  C   UNL     1       6.095  -1.085  -5.485  0.00  0.00    -0.012 A 
ATOM     14  S   UNL     1       7.003  -1.109  -3.949  0.00  0.00    -0.098 S 
ATOM     15  C   UNL     1       6.812  -2.842  -3.565  0.00  0.00    -0.004 A 
ATOM     16  C   UNL     1       7.327  -3.613  -2.376  0.00  0.00    +0.052 C 
ATOM     17  C   UNL     1       5.824   0.076  -6.406  0.00  0.00    +0.051 C 
ENDBRANCH   3  11
BRANCH   1  21
ATOM     18  C   UNL     1       1.664  -2.662  -1.721  0.00  0.00    +0.121 A 
ATOM     19  C   UNL     1       1.944  -1.863  -2.820  0.00  0.00    +0.046 A 
ATOM     20  C   UNL     1       2.422  -2.434  -3.983  0.00  0.00    +0.008 A 
ATOM     21  C   UNL     1       2.621  -3.801  -4.053  0.00  0.00    -0.034 A 
ATOM     22  C   UNL     1       2.342  -4.599  -2.959  0.00  0.00    +0.008 A 
ATOM     23  C   UNL     1       1.870  -4.032  -1.792  0.00  0.00    +0.046 A 
BRANCH  18  24
ATOM     24  O   UNL     1       1.194  -2.103  -0.575  0.00  0.00    -0.492 OA
BRANCH  24  25
ATOM     25  C   UNL     1       1.006  -0.686  -0.574  0.00  0.00    +0.229 C 
BRANCH  25  27
ATOM     26  C   UNL     1       0.274   1.274   0.792  0.00  0.00    +0.007 C 
ATOM     27  C   UNL     1       0.476  -0.243   0.791  0.00  0.00    +0.038 C 
ENDBRANCH  25  27
ENDBRANCH  24  25
ENDBRANCH  18  24
ENDBRANCH   1  21
BRANCH   9  28
ATOM     28  N   UNL     1       1.296  -7.515  -6.356  0.00  0.00    -0.328 N 
ATOM     29  H   UNL     1       1.385  -8.481  -6.336  0.00  0.00    +0.145 HD
ATOM     30  H   UNL     1       0.507  -7.109  -6.749  0.00  0.00    +0.145 HD
ENDBRANCH   9  28
BRANCH  10  31
ATOM     31  C   UNL     1       0.931  -4.853  -6.478  0.00  0.00    +0.101 C 
ATOM     32  N   UNL     1      -0.012  -4.434  -6.953  0.00  0.00    -0.191 NA
ENDBRANCH  10  31
TORSDOF 7
