REMARK  Name = ZINC14923996
REMARK  7 active torsions:
REMARK  status: ('A' for Active; 'I' for Inactive)
REMARK    1  A    between atoms: C_1  and  C_2
REMARK    2  A    between atoms: C_5  and  N_9
REMARK    3  A    between atoms: C_10  and  C_12
REMARK    4  A    between atoms: C_12  and  C_14
REMARK    5  A    between atoms: C_12  and  N_51
REMARK    6  A    between atoms: N_17  and  C_20
REMARK    7  A    between atoms: C_25  and  N_26
REMARK                            x       y       z     vdW  Elec       q    Type
REMARK                         _______ _______ _______ _____ _____    ______ ____
ROOT
ATOM      1  C   UNL     1      -0.588  -2.117   1.232  0.00  0.00    -0.059 C 
ATOM      2  C   UNL     1      -0.695  -0.592   1.292  0.00  0.00    +0.086 C 
ATOM      3  N   UNL     1       0.013  -0.008   0.145  0.00  0.00    -0.332 N 
ATOM      4  C   UNL     1      -0.557  -0.487  -1.122  0.00  0.00    +0.086 C 
ATOM      5  C   UNL     1      -0.449  -2.013  -1.182  0.00  0.00    -0.059 C 
ATOM      6  N   UNL     1      -1.184  -2.588  -0.035  0.00  0.00    +0.389 N 
ATOM      7  H   UNL     1      -2.163  -2.280  -0.078  0.00  0.00    -0.081 HD
ENDROOT
BRANCH   3   8
ATOM      8  C   UNL     1      -0.002   1.387   0.204  0.00  0.00    +0.060 A 
ATOM      9  C   UNL     1      -1.211   2.071   0.199  0.00  0.00    +0.025 A 
ATOM     10  C   UNL     1      -1.222   3.451   0.263  0.00  0.00    +0.002 A 
ATOM     11  C   UNL     1      -0.032   4.152   0.322  0.00  0.00    +0.002 A 
ATOM     12  C   UNL     1       1.174   3.474   0.322  0.00  0.00    +0.034 A 
ATOM     13  C   UNL     1       1.192   2.095   0.263  0.00  0.00    +0.147 A 
BRANCH  13  14
ATOM     14  N   UNL     1       2.483   1.370   0.263  0.00  0.00    +0.058 N 
ATOM     15  O   UNL     1       3.530   1.991   0.315  0.00  0.00    -0.126 OA
ATOM     16  O   UNL     1       2.499   0.153   0.211  0.00  0.00    -0.126 OA
ENDBRANCH  13  14
ENDBRANCH   3   8
BRANCH   6  17
ATOM     17  C   UNL     1      -1.142  -4.064  -0.097  0.00  0.00    +0.017 C 
ATOM     18  C   UNL     1      -1.852  -4.528  -1.370  0.00  0.00    -0.004 C 
BRANCH  17  20
ATOM     19  N   UNL     1       0.545  -5.870  -0.211  0.00  0.00    -0.286 N 
ATOM     20  C   UNL     1       0.284  -4.551  -0.111  0.00  0.00    +0.203 C 
ATOM     21  O   UNL     1       1.197  -3.756  -0.032  0.00  0.00    -0.277 OA
ATOM     22  H   UNL     1      -0.182  -6.500  -0.327  0.00  0.00    +0.155 HD
BRANCH  19  27
ATOM     23  C   UNL     1       5.901  -7.727   0.042  0.00  0.00    +0.044 C 
ATOM     24  C   UNL     1       4.478  -7.234  -0.025  0.00  0.00    -0.049 A 
ATOM     25  C   UNL     1       4.198  -6.015  -0.614  0.00  0.00    +0.005 A 
ATOM     26  C   UNL     1       2.895  -5.560  -0.677  0.00  0.00    +0.024 A 
ATOM     27  C   UNL     1       1.866  -6.328  -0.149  0.00  0.00    +0.047 A 
ATOM     28  C   UNL     1       2.151  -7.550   0.447  0.00  0.00    +0.039 A 
ATOM     29  C   UNL     1       3.457  -8.002   0.503  0.00  0.00    +0.020 A 
ATOM     30 BR   UNL     1       0.755  -8.597   1.175  0.00  0.00    -0.048 Br
ENDBRANCH  19  27
ENDBRANCH  17  20
ENDBRANCH   6  17
TORSDOF 5
