REMARK  Name = ZINC40823401
REMARK  12 active torsions:
REMARK  status: ('A' for Active; 'I' for Inactive)
REMARK    1  A    between atoms: C_1  and  C_2
REMARK    2  A    between atoms: C_6  and  C_7
REMARK    3  A    between atoms: N_9  and  C_10
REMARK    4  A    between atoms: C_10  and  C_11
REMARK    5  A    between atoms: C_11  and  C_12
REMARK    6  A    between atoms: C_15  and  O_20
REMARK    7  A    between atoms: C_16  and  O_18
REMARK    8  A    between atoms: O_18  and  C_19
REMARK    9  A    between atoms: O_20  and  C_21
REMARK   10  A    between atoms: N_26  and  N_27
REMARK   11  A    between atoms: C_28  and  C_30
REMARK   12  A    between atoms: C_34  and  C_35
REMARK                            x       y       z     vdW  Elec       q    Type
REMARK                         _______ _______ _______ _____ _____    ______ ____
ROOT
ATOM      1  C   UNL     1      -0.018   1.503   0.010  0.00  0.00    +0.048 C 
ATOM      2  C   UNL     1       0.002  -0.004   0.002  0.00  0.00    +0.009 A 
ATOM      3  C   UNL     1       0.008  -0.838  -1.123  0.00  0.00    +0.042 A 
ATOM      4  C   UNL     1       0.026  -2.137  -0.673  0.00  0.00    +0.115 A 
ATOM      5  O   UNL     1       0.034  -2.112   0.658  0.00  0.00    -0.454 OA
ATOM      6  C   UNL     1       0.024  -0.830   1.091  0.00  0.00    +0.193 A 
ATOM      7  C   UNL     1       0.033  -3.326  -1.599  0.00  0.00    +0.075 C 
ATOM      8  C   UNL     1      -0.492  -2.903  -2.974  0.00  0.00    +0.014 C 
ATOM      9  C   UNL     1       0.279  -1.685  -3.495  0.00  0.00    +0.058 C 
ATOM     10  C   UNL     1       0.001  -0.512  -2.566  0.00  0.00    +0.070 C 
ATOM     11  N   UNL     1      -0.227   0.686  -3.008  0.00  0.00    -0.184 NA
ENDROOT
BRANCH   6  12
ATOM     12  C   UNL     1       0.032  -0.400   2.493  0.00  0.00    +0.280 C 
ATOM     13  O   UNL     1       0.018   0.786   2.766  0.00  0.00    -0.267 OA
ATOM     14  N   UNL     1       0.054  -1.317   3.480  0.00  0.00    -0.309 N 
ATOM     15  H   UNL     1       0.065  -2.263   3.263  0.00  0.00    +0.149 HD
BRANCH  14  16
ATOM     16  C   UNL     1       0.062  -0.887   4.881  0.00  0.00    +0.109 C 
BRANCH  16  17
ATOM     17  C   UNL     1       0.088  -2.116   5.792  0.00  0.00    +0.054 C 
BRANCH  17  18
ATOM     18  C   UNL     1       0.096  -1.674   7.232  0.00  0.00    -0.042 A 
ATOM     19  C   UNL     1       1.298  -1.449   7.878  0.00  0.00    +0.007 A 
ATOM     20  C   UNL     1       1.311  -1.043   9.199  0.00  0.00    +0.049 A 
ATOM     21  C   UNL     1       0.117  -0.860   9.879  0.00  0.00    +0.161 A 
ATOM     22  C   UNL     1      -1.092  -1.085   9.229  0.00  0.00    +0.162 A 
ATOM     23  C   UNL     1      -1.098  -1.488   7.903  0.00  0.00    +0.053 A 
BRANCH  22  24
ATOM     24  O   UNL     1      -2.266  -0.907   9.892  0.00  0.00    -0.491 OA
ATOM     25  C   UNL     1      -3.468  -1.157   9.162  0.00  0.00    +0.277 C 
ENDBRANCH  22  24
BRANCH  21  26
ATOM     26  O   UNL     1       0.128  -0.461  11.179  0.00  0.00    -0.491 OA
ATOM     27  C   UNL     1       1.406  -0.249  11.782  0.00  0.00    +0.277 C 
ENDBRANCH  21  26
ENDBRANCH  17  18
ENDBRANCH  16  17
ENDBRANCH  14  16
ENDBRANCH   6  12
BRANCH  11  28
ATOM     28  N   UNL     1      -0.222   0.938  -4.386  0.00  0.00    -0.203 N 
ATOM     29  C   UNL     1      -0.458   2.183  -4.845  0.00  0.00    +0.267 C 
ATOM     30  O   UNL     1      -0.676   3.088  -4.062  0.00  0.00    -0.268 OA
ATOM     31  H   UNL     1      -0.048   0.216  -5.010  0.00  0.00    +0.178 HD
BRANCH  29  32
ATOM     32  C   UNL     1      -0.453   2.447  -6.294  0.00  0.00    +0.079 A 
ATOM     33  C   UNL     1      -0.216   1.478  -7.374  0.00  0.00    +0.054 A 
ATOM     34  C   UNL     1      -0.308   2.171  -8.519  0.00  0.00    +0.196 A 
ATOM     35  O   UNL     1      -0.576   3.455  -8.236  0.00  0.00    -0.467 OA
ATOM     36  C   UNL     1      -0.672   3.642  -6.916  0.00  0.00    +0.114 A 
ATOM     37  C   UNL     1      -0.970   4.951  -6.230  0.00  0.00    +0.087 C 
ENDBRANCH  29  32
ENDBRANCH  11  28
TORSDOF 8
