REMARK  Name = ZINC09547187
REMARK  10 active torsions:
REMARK  status: ('A' for Active; 'I' for Inactive)
REMARK    1  A    between atoms: C_1  and  C_2
REMARK    2  A    between atoms: C_6  and  N_8
REMARK    3  A    between atoms: C_9  and  C_30
REMARK    4  A    between atoms: C_12  and  S_13
REMARK    5  A    between atoms: S_13  and  C_14
REMARK    6  A    between atoms: C_14  and  C_15
REMARK    7  A    between atoms: C_15  and  C_17
REMARK    8  A    between atoms: C_18  and  N_29
REMARK    9  A    between atoms: N_19  and  C_26
REMARK   10  A    between atoms: C_30  and  C_31
REMARK                            x       y       z     vdW  Elec       q    Type
REMARK                         _______ _______ _______ _____ _____    ______ ____
ROOT
ATOM      1  N   UNL     1       4.643   4.311  -2.784  0.00  0.00    -0.274 N 
ATOM      2  C   UNL     1       3.873   4.995  -1.881  0.00  0.00    +0.143 A 
ATOM      3  N   UNL     1       3.391   6.038  -2.495  0.00  0.00    -0.133 NA
ATOM      4  N   UNL     1       3.794   6.060  -3.715  0.00  0.00    -0.122 NA
ATOM      5  C   UNL     1       4.563   5.022  -3.950  0.00  0.00    +0.197 A 
ENDROOT
BRANCH   1  11
ATOM      6  C   UNL     1       8.959   1.974  -2.459  0.00  0.00    +0.044 C 
ATOM      7  C   UNL     1       7.453   1.967  -2.398  0.00  0.00    -0.048 A 
ATOM      8  C   UNL     1       6.778   0.792  -2.121  0.00  0.00    +0.003 A 
ATOM      9  C   UNL     1       5.397   0.782  -2.064  0.00  0.00    +0.002 A 
ATOM     10  C   UNL     1       4.687   1.947  -2.283  0.00  0.00    +0.026 A 
ATOM     11  C   UNL     1       5.361   3.127  -2.561  0.00  0.00    +0.050 A 
ATOM     12  C   UNL     1       6.748   3.133  -2.623  0.00  0.00    +0.029 A 
ENDBRANCH   1  11
BRANCH   5  13
ATOM     13  S   UNL     1       5.350   4.625  -5.476  0.00  0.00    -0.078 S 
BRANCH  13  14
ATOM     14  C   UNL     1       4.780   6.010  -6.493  0.00  0.00    +0.157 C 
BRANCH  14  15
ATOM     15  C   UNL     1       5.345   5.877  -7.884  0.00  0.00    +0.182 C 
ATOM     16  O   UNL     1       6.064   4.938  -8.161  0.00  0.00    -0.291 OA
BRANCH  15  17
ATOM     17  C   UNL     1       5.039   6.845  -8.865  0.00  0.00    +0.120 A 
ATOM     18  C   UNL     1       5.473   6.693 -10.193  0.00  0.00    +0.116 A 
ATOM     19  N   UNL     1       5.147   7.653 -11.108  0.00  0.00    -0.278 N 
ATOM     20  C   UNL     1       4.436   8.736 -10.759  0.00  0.00    +0.331 A 
ATOM     21  O   UNL     1       4.176   9.565 -11.610  0.00  0.00    -0.246 OA
ATOM     22  N   UNL     1       3.999   8.938  -9.505  0.00  0.00    -0.274 N 
ATOM     23  H   UNL     1       3.472   9.760  -9.293  0.00  0.00    +0.173 HD
ATOM     24  C   UNL     1       4.263   8.045  -8.529  0.00  0.00    +0.266 A 
ATOM     25  O   UNL     1       3.866   8.231  -7.394  0.00  0.00    -0.267 OA
BRANCH  19  26
ATOM     26  C   UNL     1       5.590   7.501 -12.497  0.00  0.00    +0.094 C 
ATOM     27  C   UNL     1       4.559   7.755 -13.598  0.00  0.00    +0.027 C 
ATOM     28  C   UNL     1       5.020   6.327 -13.295  0.00  0.00    +0.027 C 
ENDBRANCH  19  26
BRANCH  18  29
ATOM     29  N   UNL     1       6.201   5.604 -10.563  0.00  0.00    -0.344 N 
ATOM     30  H   UNL     1       6.292   4.853  -9.956  0.00  0.00    +0.144 HD
ATOM     31  H   UNL     1       6.628   5.579 -11.434  0.00  0.00    +0.144 HD
ENDBRANCH  18  29
ENDBRANCH  15  17
ENDBRANCH  14  15
ENDBRANCH  13  14
ENDBRANCH   5  13
BRANCH   2  32
ATOM     32  C   UNL     1       3.633   4.614  -0.443  0.00  0.00    +0.111 C 
BRANCH  32  33
ATOM     33  C   UNL     1       4.611   5.346   0.440  0.00  0.00    -0.040 A 
ATOM     34  C   UNL     1       4.330   6.629   0.869  0.00  0.00    +0.004 A 
ATOM     35  C   UNL     1       5.227   7.300   1.679  0.00  0.00    +0.000 A 
ATOM     36  C   UNL     1       6.408   6.689   2.056  0.00  0.00    +0.000 A 
ATOM     37  C   UNL     1       6.687   5.403   1.631  0.00  0.00    +0.000 A 
ATOM     38  C   UNL     1       5.790   4.732   0.822  0.00  0.00    +0.004 A 
ENDBRANCH  32  33
ENDBRANCH   2  32
TORSDOF 9
