REMARK  Name = ZINC44020029
REMARK  12 active torsions:
REMARK  status: ('A' for Active; 'I' for Inactive)
REMARK    1  A    between atoms: C_1  and  C_2
REMARK    2  A    between atoms: C_2  and  C_4
REMARK    3  A    between atoms: C_2  and  C_10
REMARK    4  A    between atoms: C_4  and  C_5
REMARK    5  A    between atoms: C_5  and  C_6
REMARK    6  A    between atoms: C_6  and  C_7
REMARK    7  A    between atoms: C_7  and  C_8
REMARK    8  A    between atoms: C_7  and  C_9
REMARK    9  A    between atoms: C_16  and  C_37
REMARK   10  A    between atoms: C_17  and  O_36
REMARK   11  A    between atoms: C_24  and  O_35
REMARK   12  A    between atoms: C_33  and  C_34
REMARK                            x       y       z     vdW  Elec       q    Type
REMARK                         _______ _______ _______ _____ _____    ______ ____
ROOT
ATOM      1  C   UNL     1       0.653  -0.547  -1.267  0.00  0.00    +0.001 C 
ATOM      2  C   UNL     1      -0.133  -0.037  -2.489  0.00  0.00    +0.005 C 
ATOM      3  C   UNL     1      -0.725  -1.284  -3.184  0.00  0.00    +0.005 C 
ATOM      4  C   UNL     1      -0.766  -2.336  -2.060  0.00  0.00    +0.003 C 
ATOM      5  C   UNL     1       0.546  -2.095  -1.293  0.00  0.00    +0.000 C 
ATOM      6  C   UNL     1       1.742  -2.603  -2.103  0.00  0.00    +0.121 C 
ATOM      7  C   UNL     1       1.548  -4.067  -2.484  0.00  0.00    +0.036 C 
ATOM      8  C   UNL     1       0.313  -4.183  -3.385  0.00  0.00    +0.007 C 
ATOM      9  C   UNL     1      -0.898  -3.744  -2.591  0.00  0.00    +0.026 C 
ATOM     10  C   UNL     1      -2.134  -3.844  -3.491  0.00  0.00    +0.122 C 
ATOM     11  C   UNL     1      -2.365  -5.308  -3.873  0.00  0.00    +0.063 C 
ATOM     12  C   UNL     1      -1.099  -5.846  -4.515  0.00  0.00    -0.058 C 
ATOM     13  C   UNL     1      -1.217  -6.489  -5.676  0.00  0.00    +0.046 C 
ATOM     14  C   UNL     1      -0.027  -7.042  -6.332  0.00  0.00    +0.156 C 
ATOM     15  O   UNL     1      -0.007  -7.285  -7.521  0.00  0.00    -0.293 OA
ATOM     16  C   UNL     1       1.177  -7.295  -5.445  0.00  0.00    +0.080 C 
ATOM     17  C   UNL     1       1.423  -6.024  -4.634  0.00  0.00    +0.019 C 
ATOM     18  C   UNL     1       0.163  -5.647  -3.818  0.00  0.00    -0.007 C 
ATOM     19  C   UNL     1       0.171  -6.516  -2.559  0.00  0.00    +0.016 C 
ATOM     20  C   UNL     1       0.504  -2.692   0.116  0.00  0.00    +0.014 C 
ENDROOT
BRANCH   1  22
ATOM     21  C   UNL     1      -1.475  -0.242   0.007  0.00  0.00    +0.008 C 
ATOM     22  C   UNL     1       0.036   0.001   0.021  0.00  0.00    -0.010 C 
BRANCH  22  23
ATOM     23  C   UNL     1       0.309   1.504   0.119  0.00  0.00    +0.003 C 
BRANCH  23  24
ATOM     24  C   UNL     1      -0.216   2.032   1.456  0.00  0.00    +0.001 C 
BRANCH  24  25
ATOM     25  C   UNL     1       0.057   3.534   1.554  0.00  0.00    +0.003 C 
BRANCH  25  26
ATOM     26  C   UNL     1      -0.468   4.062   2.890  0.00  0.00    -0.017 C 
ATOM     27  C   UNL     1      -0.085   5.535   3.042  0.00  0.00    +0.007 C 
ATOM     28  C   UNL     1      -1.992   3.925   2.929  0.00  0.00    +0.007 C 
ENDBRANCH  25  26
ENDBRANCH  24  25
ENDBRANCH  23  24
ENDBRANCH  22  23
ENDBRANCH   1  22
BRANCH  10  29
ATOM     29  O   UNL     1      -3.276  -3.348  -2.789  0.00  0.00    -0.391 OA
ATOM     30  H   UNL     1      -4.097  -3.381  -3.300  0.00  0.00    +0.210 HD
ENDBRANCH  10  29
BRANCH   6  31
ATOM     31  O   UNL     1       1.873  -1.820  -3.291  0.00  0.00    -0.391 OA
ATOM     32  H   UNL     1       2.612  -2.084  -3.856  0.00  0.00    +0.210 HD
ENDBRANCH   6  31
TORSDOF 7
