REMARK  Name = ZINC08905949
REMARK  7 active torsions:
REMARK  status: ('A' for Active; 'I' for Inactive)
REMARK    1  A    between atoms: C_4  and  C_7
REMARK    2  A    between atoms: C_7  and  O_8
REMARK    3  A    between atoms: O_8  and  C_9
REMARK    4  A    between atoms: C_14  and  N_15
REMARK    5  A    between atoms: N_15  and  C_16
REMARK    6  A    between atoms: C_16  and  N_18
REMARK    7  A    between atoms: C_19  and  C_21
REMARK                            x       y       z     vdW  Elec       q    Type
REMARK                         _______ _______ _______ _____ _____    ______ ____
ROOT
ATOM      1  N   UNL     1       3.325   9.996   0.025  0.00  0.00    -0.294 N 
ATOM      2  H   UNL     1       2.581  10.060  -0.593  0.00  0.00    +0.154 HD
ENDROOT
BRANCH   1   8
ATOM      3  C   UNL     1       3.816  12.359   0.220  0.00  0.00    +0.142 A 
ATOM      4  C   UNL     1       4.740  13.388   0.307  0.00  0.00    +0.047 A 
ATOM      5  C   UNL     1       6.093  13.106   0.288  0.00  0.00    +0.004 A 
ATOM      6  C   UNL     1       6.529  11.798   0.182  0.00  0.00    +0.002 A 
ATOM      7  C   UNL     1       5.614  10.765   0.100  0.00  0.00    +0.027 A 
ATOM      8  C   UNL     1       4.255  11.041   0.113  0.00  0.00    +0.075 A 
BRANCH   3   9
ATOM      9  O   UNL     1       2.485  12.634   0.238  0.00  0.00    -0.486 OA
BRANCH   9  10
ATOM     10  C   UNL     1       2.108  14.008   0.350  0.00  0.00    +0.264 C 
BRANCH  10  14
ATOM     11  C   UNL     1      -2.152  14.322   0.362  0.00  0.00    +0.000 A 
ATOM     12  C   UNL     1      -1.466  14.173   1.553  0.00  0.00    +0.000 A 
ATOM     13  C   UNL     1      -0.088  14.071   1.549  0.00  0.00    +0.007 A 
ATOM     14  C   UNL     1       0.605  14.119   0.354  0.00  0.00    -0.010 A 
ATOM     15  C   UNL     1      -0.080  14.273  -0.837  0.00  0.00    +0.007 A 
ATOM     16  C   UNL     1      -1.459  14.369  -0.833  0.00  0.00    +0.000 A 
ENDBRANCH  10  14
ENDBRANCH   9  10
ENDBRANCH   3   9
ENDBRANCH   1   8
BRANCH   1  17
ATOM     17  C   UNL     1       3.466   8.902   0.800  0.00  0.00    +0.141 C 
ATOM     18  S   UNL     1       4.838   8.739   1.810  0.00  0.00    -0.018 S 
BRANCH  17  19
ATOM     19  N   UNL     1       2.526   7.936   0.779  0.00  0.00    -0.263 N 
ATOM     20  C   UNL     1       2.667   6.843   1.554  0.00  0.00    +0.258 C 
ATOM     21  O   UNL     1       3.642   6.727   2.272  0.00  0.00    -0.269 OA
ATOM     22  H   UNL     1       1.748   8.029   0.207  0.00  0.00    +0.157 HD
BRANCH  20  23
ATOM     23  C   UNL     1       1.643   5.791   1.531  0.00  0.00    +0.094 A 
ATOM     24  C   UNL     1       1.609   4.626   2.235  0.00  0.00    +0.068 A 
ATOM     25  C   UNL     1       0.527   3.741   2.071  0.00  0.00    +0.008 A 
ATOM     26  C   UNL     1       0.311   2.491   2.707  0.00  0.00    +0.010 A 
ATOM     27  C   UNL     1      -0.797   1.755   2.434  0.00  0.00    +0.001 A 
ATOM     28  C   UNL     1      -1.754   2.188   1.524  0.00  0.00    +0.001 A 
ATOM     29  C   UNL     1      -1.585   3.400   0.886  0.00  0.00    +0.016 A 
ATOM     30  C   UNL     1      -0.466   4.159   1.153  0.00  0.00    +0.021 A 
ATOM     31  S   UNL     1       0.137   5.726   0.576  0.00  0.00    -0.082 S 
ATOM     32 CL   UNL     1       2.896   4.232   3.330  0.00  0.00    -0.082 Cl
ENDBRANCH  20  23
ENDBRANCH  17  19
ENDBRANCH   1  17
TORSDOF 7
