REMARK  Name = ZINC53925062
REMARK  7 active torsions:
REMARK  status: ('A' for Active; 'I' for Inactive)
REMARK    1  A    between atoms: C_1  and  C_2
REMARK    2  A    between atoms: C_2  and  C_3
REMARK    3  A    between atoms: C_2  and  C_4
REMARK    4  A    between atoms: C_2  and  C_5
REMARK    5  A    between atoms: C_11  and  C_14
REMARK    6  A    between atoms: C_14  and  N_15
REMARK    7  A    between atoms: N_18  and  C_21
REMARK                            x       y       z     vdW  Elec       q    Type
REMARK                         _______ _______ _______ _____ _____    ______ ____
ROOT
ATOM      1  C   UNL     1       0.718  -0.497  -1.257  0.00  0.00    -0.004 C 
ATOM      2  C   UNL     1       0.735  -2.027  -1.266  0.00  0.00    +0.011 C 
ATOM      3  C   UNL     1       1.370  -2.522  -2.570  0.00  0.00    +0.075 C 
ATOM      4  C   UNL     1       2.733  -1.882  -2.714  0.00  0.00    +0.138 C 
ATOM      5  O   UNL     1       3.712  -2.554  -2.936  0.00  0.00    -0.297 OA
ATOM      6  C   UNL     1       2.839  -0.380  -2.573  0.00  0.00    +0.069 C 
ATOM      7  C   UNL     1       2.152   0.036  -1.268  0.00  0.00    +0.016 C 
ENDROOT
BRANCH   1   9
ATOM      8  C   UNL     1      -0.019   1.526   0.010  0.00  0.00    +0.011 C 
ATOM      9  C   UNL     1       0.002  -0.004   0.002  0.00  0.00    -0.035 C 
ATOM     10  C   UNL     1       0.742  -0.511   1.242  0.00  0.00    +0.011 C 
ATOM     11  C   UNL     1      -1.433  -0.534   0.013  0.00  0.00    +0.011 C 
ENDBRANCH   1   9
BRANCH   6  12
ATOM     12  C   UNL     1       2.152   0.297  -3.760  0.00  0.00    +0.095 C 
BRANCH  12  13
ATOM     13  N   UNL     1       2.876  -0.028  -4.996  0.00  0.00    -0.305 NA
ATOM     14  C   UNL     1       4.220   0.568  -4.991  0.00  0.00    +0.066 C 
ATOM     15  C   UNL     1       4.962   0.157  -6.265  0.00  0.00    -0.064 C 
ATOM     16  N   UNL     1       4.209   0.617  -7.440  0.00  0.00    +0.379 N 
ATOM     17  C   UNL     1       2.878  -0.005  -7.444  0.00  0.00    -0.064 C 
ATOM     18  C   UNL     1       2.119   0.404  -6.180  0.00  0.00    +0.066 C 
ATOM     19  C   UNL     1       4.930   0.238  -8.662  0.00  0.00    -0.096 C 
ATOM     20  H   UNL     1       4.111   1.620  -7.404  0.00  0.00    -0.082 HD
ENDBRANCH  12  13
ENDBRANCH   6  12
TORSDOF 3
