REMARK  Name = ZINC39427112
REMARK  7 active torsions:
REMARK  status: ('A' for Active; 'I' for Inactive)
REMARK    1  A    between atoms: C_4  and  N_7
REMARK    2  A    between atoms: C_8  and  C_10
REMARK    3  A    between atoms: C_10  and  C_11
REMARK    4  A    between atoms: N_15  and  C_26
REMARK    5  A    between atoms: N_18  and  C_19
REMARK    6  A    between atoms: C_26  and  C_27
REMARK    7  A    between atoms: C_27  and  C_28
REMARK                            x       y       z     vdW  Elec       q    Type
REMARK                         _______ _______ _______ _____ _____    ______ ____
ROOT
ATOM      1  C   UNL     1       4.708  -4.227   0.249  0.00  0.00    +0.175 C 
ATOM      2  C   UNL     1       6.019  -4.985   0.310  0.00  0.00    +0.242 C 
ATOM      3  O   UNL     1       6.892  -5.008  -0.531  0.00  0.00    -0.273 OA
ATOM      4  N   UNL     1       6.013  -5.628   1.495  0.00  0.00    -0.251 N 
ATOM      5  C   UNL     1       4.891  -5.384   2.183  0.00  0.00    +0.147 C 
ATOM      6  S   UNL     1       4.560  -6.044   3.727  0.00  0.00    -0.018 S 
ATOM      7  N   UNL     1       4.050  -4.561   1.524  0.00  0.00    -0.267 N 
ENDROOT
BRANCH   7   8
ATOM      8  C   UNL     1       2.800  -4.111   1.963  0.00  0.00    +0.072 A 
ATOM      9  C   UNL     1       1.655  -4.839   1.667  0.00  0.00    +0.026 A 
ATOM     10  C   UNL     1       0.422  -4.393   2.101  0.00  0.00    +0.002 A 
ATOM     11  C   UNL     1       0.326  -3.222   2.831  0.00  0.00    +0.003 A 
ATOM     12  C   UNL     1       1.463  -2.493   3.128  0.00  0.00    +0.040 A 
ATOM     13  C   UNL     1       2.701  -2.937   2.701  0.00  0.00    +0.145 A 
ATOM     14  F   UNL     1       3.813  -2.228   2.997  0.00  0.00    -0.204 F 
ENDBRANCH   7   8
BRANCH   1  15
ATOM     15  C   UNL     1       4.962  -2.721   0.153  0.00  0.00    +0.128 C 
BRANCH  15  17
ATOM     16  N   UNL     1       3.622  -0.651  -0.037  0.00  0.00    -0.285 N 
ATOM     17  C   UNL     1       3.645  -1.995   0.057  0.00  0.00    +0.219 C 
ATOM     18  O   UNL     1       2.606  -2.620   0.064  0.00  0.00    -0.275 OA
ATOM     19  H   UNL     1       4.452  -0.155  -0.111  0.00  0.00    +0.155 HD
BRANCH  16  23
ATOM     20  C   UNL     1      -0.018   1.377  -0.014  0.00  0.00    +0.000 A 
ATOM     21  C   UNL     1       1.092   1.944   0.587  0.00  0.00    +0.002 A 
ATOM     22  C   UNL     1       2.300   1.274   0.581  0.00  0.00    +0.023 A 
ATOM     23  C   UNL     1       2.399   0.030  -0.029  0.00  0.00    +0.033 A 
ATOM     24  C   UNL     1       1.283  -0.536  -0.631  0.00  0.00    +0.023 A 
ATOM     25  C   UNL     1       0.078   0.139  -0.622  0.00  0.00    +0.002 A 
ENDBRANCH  16  23
ENDBRANCH  15  17
ENDBRANCH   1  15
BRANCH   4  26
ATOM     26  C   UNL     1       7.099  -6.489   1.970  0.00  0.00    +0.120 C 
BRANCH  26  27
ATOM     27  C   UNL     1       8.107  -5.651   2.757  0.00  0.00    +0.056 C 
BRANCH  27  28
ATOM     28  C   UNL     1       9.225  -6.536   3.245  0.00  0.00    -0.021 A 
ATOM     29  C   UNL     1      10.423  -6.921   2.496  0.00  0.00    +0.003 A 
ATOM     30  C   UNL     1      10.899  -6.636   1.215  0.00  0.00    +0.010 A 
ATOM     31  C   UNL     1      12.089  -7.165   0.801  0.00  0.00    +0.001 A 
ATOM     32  C   UNL     1      12.829  -7.982   1.643  0.00  0.00    +0.002 A 
ATOM     33  C   UNL     1      12.378  -8.276   2.912  0.00  0.00    +0.026 A 
ATOM     34  C   UNL     1      11.169  -7.749   3.354  0.00  0.00    +0.047 A 
ATOM     35  N   UNL     1      10.466  -7.851   4.533  0.00  0.00    -0.360 N 
ATOM     36  C   UNL     1       9.313  -7.117   4.452  0.00  0.00    +0.087 A 
ATOM     37  H   UNL     1      10.747  -8.363   5.308  0.00  0.00    +0.165 HD
ENDBRANCH  27  28
ENDBRANCH  26  27
ENDBRANCH   4  26
TORSDOF 7
