REMARK  Name = ZINC00707160
REMARK  7 active torsions:
REMARK  status: ('A' for Active; 'I' for Inactive)
REMARK    1  A    between atoms: C_1  and  C_2
REMARK    2  A    between atoms: C_5  and  N_9
REMARK    3  A    between atoms: C_12  and  C_19
REMARK    4  A    between atoms: C_14  and  C_17
REMARK    5  A    between atoms: C_15  and  N_16
REMARK    6  A    between atoms: C_22  and  S_25
REMARK    7  A    between atoms: S_25  and  C_26
REMARK                            x       y       z     vdW  Elec       q    Type
REMARK                         _______ _______ _______ _____ _____    ______ ____
ROOT
ATOM      1  N   UNL     1       3.158  -0.701  -1.508  0.00  0.00    -0.260 N 
ATOM      2  C   UNL     1       2.066   0.116  -1.643  0.00  0.00    +0.024 C 
ATOM      3  C   UNL     1       2.128   1.414  -1.280  0.00  0.00    +0.025 C 
ATOM      4  C   UNL     1       3.396   2.000  -0.711  0.00  0.00    +0.097 C 
ATOM      5  C   UNL     1       4.580   1.130  -1.018  0.00  0.00    +0.077 C 
ATOM      6  C   UNL     1       4.421  -0.165  -1.394  0.00  0.00    +0.107 C 
ATOM      7  C   UNL     1       1.012   2.258  -1.414  0.00  0.00    +0.162 C 
ATOM      8  O   UNL     1       1.107   3.427  -1.095  0.00  0.00    -0.292 OA
ATOM      9  C   UNL     1      -0.297   1.742  -1.946  0.00  0.00    +0.080 C 
ATOM     10  C   UNL     1      -0.414   0.250  -1.619  0.00  0.00    +0.014 C 
ATOM     11  C   UNL     1       0.798  -0.472  -2.212  0.00  0.00    +0.052 C 
ENDROOT
BRANCH   1  16
ATOM     12  C   UNL     1       2.469  -6.332  -1.415  0.00  0.00    +0.045 C 
ATOM     13  C   UNL     1       2.652  -4.837  -1.440  0.00  0.00    -0.032 A 
ATOM     14  C   UNL     1       2.604  -4.116  -0.261  0.00  0.00    +0.006 A 
ATOM     15  C   UNL     1       2.772  -2.745  -0.281  0.00  0.00    +0.024 A 
ATOM     16  C   UNL     1       2.989  -2.090  -1.486  0.00  0.00    +0.041 A 
ATOM     17  C   UNL     1       3.030  -2.815  -2.669  0.00  0.00    +0.044 A 
ATOM     18  C   UNL     1       2.868  -4.188  -2.643  0.00  0.00    +0.046 A 
ATOM     19 CL   UNL     1       2.926  -5.096  -4.121  0.00  0.00    -0.083 Cl
ENDBRANCH   1  16
BRANCH   4  20
ATOM     20  C   UNL     1       3.254   2.130   0.783  0.00  0.00    -0.035 A 
ATOM     21  C   UNL     1       3.017   1.006   1.554  0.00  0.00    +0.005 A 
ATOM     22  C   UNL     1       2.892   1.121   2.924  0.00  0.00    +0.015 A 
ATOM     23  C   UNL     1       2.992   2.368   3.528  0.00  0.00    +0.008 A 
ATOM     24  C   UNL     1       3.224   3.496   2.749  0.00  0.00    +0.015 A 
ATOM     25  C   UNL     1       3.354   3.373   1.380  0.00  0.00    +0.005 A 
BRANCH  23  26
ATOM     26  S   UNL     1       2.826   2.520   5.275  0.00  0.00    -0.129 S 
ATOM     27  C   UNL     1       2.542   0.820   5.839  0.00  0.00    +0.090 C 
ENDBRANCH  23  26
ENDBRANCH   4  20
BRANCH   6  28
ATOM     28  N   UNL     1       5.523  -0.942  -1.660  0.00  0.00    -0.345 N 
ATOM     29  H   UNL     1       6.413  -0.595  -1.494  0.00  0.00    +0.144 HD
ATOM     30  H   UNL     1       5.410  -1.838  -2.015  0.00  0.00    +0.144 HD
ENDBRANCH   6  28
BRANCH   5  31
ATOM     31  C   UNL     1       5.900   1.676  -0.912  0.00  0.00    +0.099 C 
ATOM     32  N   UNL     1       6.947   2.109  -0.828  0.00  0.00    -0.191 NA
ENDBRANCH   5  31
TORSDOF 5
