REMARK  Name = ZINC66198655
REMARK  15 active torsions:
REMARK  status: ('A' for Active; 'I' for Inactive)
REMARK    1  A    between atoms: C_1  and  C_2
REMARK    2  A    between atoms: C_2  and  C_4
REMARK    3  A    between atoms: C_2  and  C_14
REMARK    4  A    between atoms: C_7  and  C_10
REMARK    5  A    between atoms: C_10  and  C_11
REMARK    6  A    between atoms: C_11  and  C_12
REMARK    7  A    between atoms: C_11  and  C_13
REMARK    8  A    between atoms: N_16  and  C_17
REMARK    9  A    between atoms: C_20  and  S_23
REMARK   10  A    between atoms: S_23  and  N_26
REMARK   11  A    between atoms: N_26  and  C_27
REMARK   12  A    between atoms: C_29  and  O_35
REMARK   13  A    between atoms: C_31  and  O_33
REMARK   14  A    between atoms: O_33  and  C_34
REMARK   15  A    between atoms: O_35  and  C_36
REMARK                            x       y       z     vdW  Elec       q    Type
REMARK                         _______ _______ _______ _____ _____    ______ ____
ROOT
ATOM      1  C   UNL     1       2.664  -0.537   2.609  0.00  0.00    +0.034 A 
ATOM      2  C   UNL     1       3.602   0.308   3.188  0.00  0.00    +0.025 A 
ATOM      3  C   UNL     1       4.238  -0.066   4.356  0.00  0.00    +0.031 A 
ATOM      4  C   UNL     1       3.941  -1.280   4.949  0.00  0.00    +0.111 A 
ATOM      5  C   UNL     1       3.008  -2.123   4.374  0.00  0.00    +0.031 A 
ATOM      6  C   UNL     1       2.364  -1.752   3.210  0.00  0.00    +0.025 A 
ENDROOT
BRANCH   1   9
ATOM      7  C   UNL     1       0.730  -0.502   1.224  0.00  0.00    +0.224 C 
ATOM      8  O   UNL     1       0.156  -1.205   2.028  0.00  0.00    -0.275 OA
ATOM      9  N   UNL     1       2.019  -0.161   1.426  0.00  0.00    -0.285 N 
ATOM     10  H   UNL     1       2.498   0.344   0.751  0.00  0.00    +0.155 HD
BRANCH   7  12
ATOM     11  C   UNL     1      -0.013   1.521  -0.004  0.00  0.00    +0.022 C 
ATOM     12  C   UNL     1       0.004  -0.009  -0.002  0.00  0.00    +0.102 C 
BRANCH  12  13
ATOM     13  C   UNL     1      -1.411  -0.528   0.011  0.00  0.00    -0.036 A 
ATOM     14  C   UNL     1      -2.259  -0.197   1.052  0.00  0.00    +0.004 A 
ATOM     15  C   UNL     1      -3.557  -0.673   1.063  0.00  0.00    +0.004 A 
ATOM     16  C   UNL     1      -4.007  -1.478   0.034  0.00  0.00    -0.047 A 
ATOM     17  C   UNL     1      -3.159  -1.808  -1.007  0.00  0.00    +0.004 A 
ATOM     18  C   UNL     1      -1.863  -1.329  -1.021  0.00  0.00    +0.004 A 
BRANCH  16  19
ATOM     19  C   UNL     1      -5.421  -1.997   0.047  0.00  0.00    +0.038 C 
BRANCH  19  20
ATOM     20  C   UNL     1      -6.336  -1.004  -0.673  0.00  0.00    -0.013 C 
ATOM     21  C   UNL     1      -5.946  -0.930  -2.151  0.00  0.00    +0.007 C 
ATOM     22  C   UNL     1      -7.789  -1.468  -0.552  0.00  0.00    +0.007 C 
ENDBRANCH  19  20
ENDBRANCH  16  19
ENDBRANCH  12  13
ENDBRANCH   7  12
ENDBRANCH   1   9
BRANCH   4  23
ATOM     23  S   UNL     1       4.754  -1.752   6.439  0.00  0.00    +0.093 S 
ATOM     24  O   UNL     1       4.701  -3.171   6.498  0.00  0.00    -0.148 OA
ATOM     25  O   UNL     1       5.979  -1.034   6.479  0.00  0.00    -0.148 OA
BRANCH  23  26
ATOM     26  N   UNL     1       3.835  -1.192   7.697  0.00  0.00    -0.078 NA
BRANCH  26  27
ATOM     27  C   UNL     1       4.236  -1.420   9.004  0.00  0.00    +0.173 A 
ATOM     28  C   UNL     1       3.468  -0.958  10.070  0.00  0.00    +0.114 A 
ATOM     29  C   UNL     1       3.910  -1.210  11.362  0.00  0.00    +0.222 A 
ATOM     30  N   UNL     1       5.045  -1.881  11.538  0.00  0.00    -0.160 NA
ATOM     31  C   UNL     1       5.750  -2.305  10.503  0.00  0.00    +0.323 A 
ATOM     32  N   UNL     1       5.359  -2.089   9.258  0.00  0.00    -0.176 NA
BRANCH  31  33
ATOM     33  O   UNL     1       6.901  -2.985  10.723  0.00  0.00    -0.466 OA
ATOM     34  C   UNL     1       7.279  -3.198  12.085  0.00  0.00    +0.280 C 
ENDBRANCH  31  33
BRANCH  29  35
ATOM     35  O   UNL     1       3.195  -0.779  12.429  0.00  0.00    -0.479 OA
ATOM     36  C   UNL     1       3.717  -1.079  13.725  0.00  0.00    +0.279 C 
ENDBRANCH  29  35
ENDBRANCH  26  27
ENDBRANCH  23  26
ENDBRANCH   4  23
TORSDOF 10
