REMARK  Name = ZINC39677908
REMARK  9 active torsions:
REMARK  status: ('A' for Active; 'I' for Inactive)
REMARK    1  A    between atoms: C_1  and  S_2
REMARK    2  A    between atoms: S_2  and  C_3
REMARK    3  A    between atoms: C_3  and  C_4
REMARK    4  A    between atoms: C_4  and  C_5
REMARK    5  A    between atoms: C_9  and  C_18
REMARK    6  A    between atoms: N_20  and  C_21
REMARK    7  A    between atoms: C_21  and  C_22
REMARK    8  A    between atoms: N_25  and  C_29
REMARK    9  A    between atoms: C_29  and  C_30
REMARK                            x       y       z     vdW  Elec       q    Type
REMARK                         _______ _______ _______ _____ _____    ______ ____
ROOT
ATOM      1  C   UNL     1      -3.495  -2.382  -0.012  0.00  0.00    +0.216 C 
ATOM      2  O   UNL     1      -4.369  -1.544   0.055  0.00  0.00    -0.276 OA
ATOM      3  N   UNL     1      -3.813  -3.691   0.019  0.00  0.00    -0.300 N 
ATOM      4  C   UNL     1      -2.893  -4.851  -0.044  0.00  0.00    +0.121 C 
ATOM      5  C   UNL     1      -3.482  -5.872   0.955  0.00  0.00    +0.100 C 
ATOM      6  C   UNL     1      -4.971  -5.504   1.060  0.00  0.00    -0.004 C 
ATOM      7  C   UNL     1      -5.162  -4.296   0.131  0.00  0.00    +0.115 C 
ATOM      8  C   UNL     1      -5.321  -5.118   2.494  0.00  0.00    -0.010 C 
ATOM      9  C   UNL     1      -6.818  -4.811   2.585  0.00  0.00    -0.082 C 
ATOM     10  N   UNL     1      -7.587  -5.992   2.174  0.00  0.00    +0.379 N 
ATOM     11  C   UNL     1      -7.315  -6.301   0.765  0.00  0.00    -0.082 C 
ATOM     12  C   UNL     1      -5.838  -6.670   0.597  0.00  0.00    -0.010 C 
ATOM     13  H   UNL     1      -7.323  -6.780   2.747  0.00  0.00    -0.086 HD
ATOM     14  H   UNL     1      -8.572  -5.809   2.292  0.00  0.00    -0.086 HD
ENDROOT
BRANCH   5  15
ATOM     15  C   UNL     1      -3.322  -7.275   0.429  0.00  0.00    +0.218 C 
ATOM     16  O   UNL     1      -3.329  -7.478  -0.767  0.00  0.00    -0.275 OA
ATOM     17  N   UNL     1      -3.170  -8.303   1.286  0.00  0.00    -0.313 N 
ATOM     18  H   UNL     1      -3.164  -8.140   2.243  0.00  0.00    +0.149 HD
BRANCH  17  19
ATOM     19  C   UNL     1      -3.014  -9.667   0.775  0.00  0.00    +0.137 C 
BRANCH  19  20
ATOM     20  C   UNL     1      -2.861 -10.637   1.947  0.00  0.00    +0.149 C 
ATOM     21  C   UNL     1      -2.575 -12.044   1.413  0.00  0.00    +0.118 C 
ATOM     22  N   UNL     1      -2.506 -12.985   2.540  0.00  0.00    -0.293 NA
ATOM     23  C   UNL     1      -3.763 -12.981   3.302  0.00  0.00    +0.113 C 
ATOM     24  C   UNL     1      -4.036 -11.565   3.817  0.00  0.00    +0.175 C 
ATOM     25  O   UNL     1      -4.069 -10.658   2.711  0.00  0.00    -0.372 OA
BRANCH  22  26
ATOM     26  C   UNL     1      -2.177 -14.339   2.075  0.00  0.00    +0.119 C 
BRANCH  26  27
ATOM     27  C   UNL     1      -1.873 -15.218   3.261  0.00  0.00    -0.033 A 
ATOM     28  C   UNL     1      -0.579 -15.312   3.739  0.00  0.00    +0.005 A 
ATOM     29  C   UNL     1      -0.300 -16.118   4.827  0.00  0.00    +0.000 A 
ATOM     30  C   UNL     1      -1.316 -16.829   5.438  0.00  0.00    +0.000 A 
ATOM     31  C   UNL     1      -2.610 -16.735   4.961  0.00  0.00    +0.000 A 
ATOM     32  C   UNL     1      -2.889 -15.926   3.875  0.00  0.00    +0.005 A 
ENDBRANCH  26  27
ENDBRANCH  22  26
ENDBRANCH  19  20
ENDBRANCH  17  19
ENDBRANCH   5  15
BRANCH   1  33
ATOM     33  C   UNL     1      -2.054  -1.959  -0.131  0.00  0.00    +0.106 C 
BRANCH  33  34
ATOM     34  C   UNL     1      -1.970  -0.432  -0.143  0.00  0.00    +0.078 C 
BRANCH  34  36
ATOM     35  C   UNL     1      -0.307   1.890  -0.287  0.00  0.00    +0.084 C 
ATOM     36  S   UNL     1      -0.234   0.077  -0.286  0.00  0.00    -0.164 S 
ENDBRANCH  34  36
ENDBRANCH  33  34
ENDBRANCH   1  33
TORSDOF 8
