REMARK  Name = ZINC14095075
REMARK  5 active torsions:
REMARK  status: ('A' for Active; 'I' for Inactive)
REMARK    1  A    between atoms: C_4  and  N_15
REMARK    2  A    between atoms: C_5  and  C_7
REMARK    3  A    between atoms: N_9  and  C_10
REMARK    4  A    between atoms: C_10  and  C_11
REMARK    5  A    between atoms: C_16  and  C_18
REMARK                            x       y       z     vdW  Elec       q    Type
REMARK                         _______ _______ _______ _____ _____    ______ ____
ROOT
ATOM      1  N   UNL     1      -3.810   2.930   0.222  0.00  0.00    -0.281 N 
ATOM      2  C   UNL     1      -5.002   3.525   0.426  0.00  0.00    +0.249 C 
ATOM      3  O   UNL     1      -5.995   2.848   0.612  0.00  0.00    -0.270 OA
ATOM      4  H   UNL     1      -3.006   3.467   0.150  0.00  0.00    +0.155 HD
ENDROOT
BRANCH   2   5
ATOM      5  C   UNL     1      -5.102   4.995   0.423  0.00  0.00    +0.045 A 
ATOM      6  C   UNL     1      -3.980   5.793   0.212  0.00  0.00    +0.014 A 
ATOM      7  C   UNL     1      -4.056   7.181   0.207  0.00  0.00    +0.005 A 
ATOM      8  C   UNL     1      -5.239   7.828   0.409  0.00  0.00    -0.039 A 
ATOM      9  C   UNL     1      -6.387   7.071   0.623  0.00  0.00    -0.011 A 
ATOM     10  C   UNL     1      -6.382   5.665   0.635  0.00  0.00    -0.005 A 
ATOM     11  C   UNL     1      -7.593   5.003   0.866  0.00  0.00    +0.009 A 
ATOM     12  C   UNL     1      -8.724   5.746   1.055  0.00  0.00    +0.001 A 
ATOM     13  C   UNL     1      -8.710   7.142   1.032  0.00  0.00    +0.004 A 
ATOM     14  C   UNL     1      -7.546   7.816   0.817  0.00  0.00    -0.039 A 
ATOM     15  C   UNL     1      -7.165   9.273   0.730  0.00  0.00    +0.040 C 
ATOM     16  C   UNL     1      -5.645   9.282   0.461  0.00  0.00    +0.040 C 
ENDBRANCH   2   5
BRANCH   1  20
ATOM     17  C   UNL     1      -3.580  -1.220  -0.100  0.00  0.00    +0.001 A 
ATOM     18  C   UNL     1      -4.681  -0.541  -0.596  0.00  0.00    +0.002 A 
ATOM     19  C   UNL     1      -4.760   0.833  -0.491  0.00  0.00    +0.024 A 
ATOM     20  C   UNL     1      -3.732   1.544   0.115  0.00  0.00    +0.046 A 
ATOM     21  C   UNL     1      -2.617   0.859   0.618  0.00  0.00    +0.058 A 
ATOM     22  C   UNL     1      -2.549  -0.531   0.500  0.00  0.00    +0.015 A 
BRANCH  21  23
ATOM     23  C   UNL     1      -1.518   1.603   1.263  0.00  0.00    +0.246 C 
ATOM     24  O   UNL     1      -1.535   2.819   1.280  0.00  0.00    -0.270 OA
ATOM     25  N   UNL     1      -0.496   0.935   1.834  0.00  0.00    -0.303 N 
ATOM     26  H   UNL     1      -0.483  -0.034   1.821  0.00  0.00    +0.149 HD
BRANCH  25  27
ATOM     27  C   UNL     1       0.598   1.674   2.470  0.00  0.00    +0.217 C 
BRANCH  27  28
ATOM     28  C   UNL     1       1.623   0.686   3.029  0.00  0.00    +0.405 C 
ATOM     29  F   UNL     1       2.133  -0.097   1.988  0.00  0.00    -0.169 F 
ATOM     30  F   UNL     1       2.668   1.392   3.636  0.00  0.00    -0.169 F 
ATOM     31  F   UNL     1       1.007  -0.140   3.975  0.00  0.00    -0.169 F 
ENDBRANCH  27  28
ENDBRANCH  25  27
ENDBRANCH  21  23
ENDBRANCH   1  20
TORSDOF 5
