REMARK  Name = ZINC04830230
REMARK  8 active torsions:
REMARK  status: ('A' for Active; 'I' for Inactive)
REMARK    1  A    between atoms: C_1  and  C_2
REMARK    2  A    between atoms: C_2  and  N_26
REMARK    3  A    between atoms: C_3  and  C_4
REMARK    4  A    between atoms: C_3  and  C_6
REMARK    5  A    between atoms: C_6  and  C_8
REMARK    6  A    between atoms: C_8  and  O_9
REMARK    7  A    between atoms: O_9  and  C_10
REMARK    8  A    between atoms: C_10  and  C_12
REMARK                            x       y       z     vdW  Elec       q    Type
REMARK                         _______ _______ _______ _____ _____    ______ ____
ROOT
ATOM      1  C   UNL     1       0.536  -0.342   6.037  0.00  0.00    +0.341 C 
ATOM      2  O   UNL     1       0.748  -1.530   6.175  0.00  0.00    -0.245 OA
ENDROOT
BRANCH   1   3
ATOM      3  C   UNL     1       0.501   0.545   7.218  0.00  0.00    +0.073 A 
ATOM      4  C   UNL     1      -0.708   0.776   7.918  0.00  0.00    +0.015 A 
ATOM      5  C   UNL     1      -1.911   0.179   7.522  0.00  0.00    +0.011 A 
ATOM      6  C   UNL     1      -3.051   0.429   8.226  0.00  0.00    +0.001 A 
ATOM      7  C   UNL     1      -3.034   1.272   9.335  0.00  0.00    +0.002 A 
ATOM      8  C   UNL     1      -1.882   1.869   9.746  0.00  0.00    +0.028 A 
ATOM      9  C   UNL     1      -0.685   1.635   9.044  0.00  0.00    +0.072 A 
ATOM     10  N   UNL     1       0.458   2.206   9.419  0.00  0.00    -0.251 NA
ATOM     11  C   UNL     1       1.596   2.007   8.783  0.00  0.00    +0.046 A 
ATOM     12  C   UNL     1       1.660   1.171   7.676  0.00  0.00    -0.012 A 
ATOM     13  C   UNL     1       2.941   0.899   6.933  0.00  0.00    +0.038 C 
ATOM     14  C   UNL     1       3.991   1.956   7.270  0.00  0.00    +0.005 C 
ATOM     15  C   UNL     1       4.092   2.066   8.796  0.00  0.00    +0.006 C 
ATOM     16  C   UNL     1       2.813   2.725   9.314  0.00  0.00    +0.056 C 
ENDBRANCH   1   3
BRANCH   1  17
ATOM     17  O   UNL     1       0.331   0.167   4.806  0.00  0.00    -0.453 OA
BRANCH  17  18
ATOM     18  C   UNL     1       0.379  -0.748   3.709  0.00  0.00    +0.312 C 
BRANCH  18  19
ATOM     19  C   UNL     1       0.130  -0.004   2.423  0.00  0.00    +0.212 C 
ATOM     20  O   UNL     1      -0.069   1.194   2.443  0.00  0.00    -0.288 OA
BRANCH  19  23
ATOM     21  C   UNL     1      -0.786   1.354   0.089  0.00  0.00    +0.061 C 
ATOM     22  C   UNL     1      -0.230  -0.045   0.026  0.00  0.00    +0.019 C 
ATOM     23  C   UNL     1       0.127  -0.701   1.191  0.00  0.00    +0.114 C 
BRANCH  22  24
ATOM     24  N   UNL     1      -0.081  -0.659  -1.166  0.00  0.00    -0.360 N 
ATOM     25  H   UNL     1      -0.331  -0.200  -1.983  0.00  0.00    +0.142 HD
ATOM     26  H   UNL     1       0.277  -1.560  -1.207  0.00  0.00    +0.142 HD
ENDBRANCH  22  24
BRANCH  23  27
ATOM     27  C   UNL     1       0.495  -2.084   1.150  0.00  0.00    +0.104 C 
ATOM     28  N   UNL     1       0.786  -3.182   1.118  0.00  0.00    -0.191 NA
ENDBRANCH  23  27
ENDBRANCH  19  23
ENDBRANCH  18  19
ENDBRANCH  17  18
ENDBRANCH   1  17
TORSDOF 7
