REMARK  Name = ZINC02253505
REMARK  8 active torsions:
REMARK  status: ('A' for Active; 'I' for Inactive)
REMARK    1  A    between atoms: C_1  and  C_2
REMARK    2  A    between atoms: C_7  and  N_29
REMARK    3  A    between atoms: C_8  and  C_13
REMARK    4  A    between atoms: N_17  and  C_21
REMARK    5  A    between atoms: N_29  and  C_30
REMARK    6  A    between atoms: C_30  and  C_31
REMARK    7  A    between atoms: C_31  and  C_32
REMARK    8  A    between atoms: C_31  and  C_33
REMARK                            x       y       z     vdW  Elec       q    Type
REMARK                         _______ _______ _______ _____ _____    ______ ____
ROOT
ATOM      1  C   UNL     1      -2.948   7.561  -1.506  0.00  0.00    +0.045 C 
ATOM      2  C   UNL     1      -3.104   6.096  -1.187  0.00  0.00    -0.034 A 
ATOM      3  C   UNL     1      -4.384   5.532  -1.099  0.00  0.00    +0.008 A 
ATOM      4  C   UNL     1      -4.515   4.206  -0.809  0.00  0.00    +0.047 A 
ATOM      5  C   UNL     1      -3.365   3.423  -0.604  0.00  0.00    +0.142 A 
ATOM      6  N   UNL     1      -3.504   2.127  -0.323  0.00  0.00    -0.214 NA
ATOM      7  C   UNL     1      -2.455   1.343  -0.124  0.00  0.00    +0.134 A 
ATOM      8  C   UNL     1      -1.151   1.887  -0.203  0.00  0.00    +0.081 A 
ATOM      9  C   UNL     1      -1.016   3.264  -0.503  0.00  0.00    +0.267 A 
ATOM     10  O   UNL     1       0.088   3.775  -0.584  0.00  0.00    -0.267 OA
ATOM     11  N   UNL     1      -2.130   4.002  -0.697  0.00  0.00    -0.267 N 
ATOM     12  C   UNL     1      -2.009   5.329  -0.987  0.00  0.00    +0.099 A 
ENDROOT
BRANCH   8  13
ATOM     13  C   UNL     1      -0.013   1.076   0.008  0.00  0.00    +0.037 C 
ATOM     14  C   UNL     1       0.791   1.295   1.089  0.00  0.00    +0.077 C 
ATOM     15  C   UNL     1       0.612   2.187   2.185  0.00  0.00    +0.259 C 
ATOM     16  O   UNL     1      -0.372   2.901   2.257  0.00  0.00    -0.269 OA
ATOM     17  N   UNL     1       1.544   2.218   3.121  0.00  0.00    -0.251 N 
ATOM     18  C   UNL     1       2.637   1.426   3.041  0.00  0.00    +0.121 C 
ATOM     19  S   UNL     1       3.955   1.302   4.126  0.00  0.00    -0.027 S 
ATOM     20  S   UNL     1       2.352   0.536   1.518  0.00  0.00    -0.061 S 
BRANCH  17  21
ATOM     21  C   UNL     1       1.392   3.124   4.262  0.00  0.00    +0.105 C 
ATOM     22  C   UNL     1       2.589   4.088   4.324  0.00  0.00    +0.047 C 
ATOM     23  C   UNL     1       2.604   4.824   5.685  0.00  0.00    +0.168 C 
ATOM     24  S   UNL     1       1.782   3.619   6.805  0.00  0.00    -0.029 S 
ATOM     25  O   UNL     1       0.579   4.193   7.299  0.00  0.00    -0.174 OA
ATOM     26  O   UNL     1       2.740   3.108   7.721  0.00  0.00    -0.174 OA
ATOM     27  C   UNL     1       1.361   2.305   5.583  0.00  0.00    +0.188 C 
ENDBRANCH  17  21
ENDBRANCH   8  13
BRANCH   7  28
ATOM     28  N   UNL     1      -2.632   0.006   0.160  0.00  0.00    -0.328 N 
ATOM     29  H   UNL     1      -1.862  -0.565   0.307  0.00  0.00    +0.147 HD
BRANCH  28  30
ATOM     30  C   UNL     1      -3.984  -0.553   0.239  0.00  0.00    +0.106 C 
BRANCH  30  31
ATOM     31  C   UNL     1      -3.900  -2.045   0.566  0.00  0.00    -0.000 C 
ATOM     32  C   UNL     1      -3.303  -2.230   1.962  0.00  0.00    +0.009 C 
ATOM     33  C   UNL     1      -5.303  -2.655   0.526  0.00  0.00    +0.009 C 
ENDBRANCH  30  31
ENDBRANCH  28  30
ENDBRANCH   7  28
TORSDOF 5
