REMARK  Name = ZINC05606146
REMARK  5 active torsions:
REMARK  status: ('A' for Active; 'I' for Inactive)
REMARK    1  A    between atoms: C_1  and  C_2
REMARK    2  A    between atoms: C_3  and  C_20
REMARK    3  A    between atoms: C_15  and  O_17
REMARK    4  A    between atoms: C_20  and  O_22
REMARK    5  A    between atoms: O_22  and  C_23
REMARK                            x       y       z     vdW  Elec       q    Type
REMARK                         _______ _______ _______ _____ _____    ______ ____
ROOT
ATOM      1  C   UNL     1      -2.680   3.054   4.701  0.00  0.00    +0.066 C 
ATOM      2  C   UNL     1      -1.984   2.534   3.468  0.00  0.00    +0.053 A 
ATOM      3  C   UNL     1      -2.523   1.444   2.780  0.00  0.00    +0.080 A 
ATOM      4  C   UNL     1      -1.869   0.969   1.632  0.00  0.00    +0.028 A 
ATOM      5  C   UNL     1      -0.716   1.605   1.232  0.00  0.00    +0.047 A 
ATOM      6  C   UNL     1      -0.235   2.689   1.976  0.00  0.00    +0.084 A 
ATOM      7  N   UNL     1      -0.878   3.114   3.054  0.00  0.00    -0.250 NA
ATOM      8  C   UNL     1       1.014   3.336   1.512  0.00  0.00    +0.045 A 
ATOM      9  C   UNL     1       1.394   4.594   1.963  0.00  0.00    +0.033 A 
ATOM     10  C   UNL     1       2.566   5.161   1.498  0.00  0.00    +0.043 A 
ATOM     11  C   UNL     1       3.356   4.479   0.588  0.00  0.00    +0.043 A 
ATOM     12  C   UNL     1       2.986   3.226   0.135  0.00  0.00    +0.085 A 
ATOM     13  C   UNL     1       1.814   2.644   0.593  0.00  0.00    +0.152 A 
ATOM     14  O   UNL     1       1.433   1.415   0.165  0.00  0.00    -0.457 OA
ATOM     15  C   UNL     1       0.037   1.157   0.008  0.00  0.00    +0.339 C 
ATOM     16 CL   UNL     1       3.986   2.383  -1.006  0.00  0.00    -0.080 Cl
ATOM     17 CL   UNL     1       3.048   6.732   2.057  0.00  0.00    -0.083 Cl
ENDROOT
BRANCH  15  18
ATOM     18  O   UNL     1      -0.450   1.869  -1.131  0.00  0.00    -0.354 OA
ATOM     19  H   UNL     1      -0.015   1.629  -1.960  0.00  0.00    +0.214 HD
ENDBRANCH  15  18
BRANCH   3  20
ATOM     20  C   UNL     1      -3.762   0.799   3.254  0.00  0.00    +0.341 C 
ATOM     21  O   UNL     1      -4.383   1.284   4.179  0.00  0.00    -0.245 OA
BRANCH  20  22
ATOM     22  O   UNL     1      -4.205  -0.326   2.661  0.00  0.00    -0.464 OA
ATOM     23  C   UNL     1      -5.432  -0.905   3.180  0.00  0.00    +0.280 C 
ENDBRANCH  20  22
ENDBRANCH   3  20
TORSDOF 3
