REMARK  Name = ZINC39325313
REMARK  10 active torsions:
REMARK  status: ('A' for Active; 'I' for Inactive)
REMARK    1  A    between atoms: C_1  and  C_2
REMARK    2  A    between atoms: C_4  and  C_38
REMARK    3  A    between atoms: C_5  and  S_9
REMARK    4  A    between atoms: C_6  and  C_8
REMARK    5  A    between atoms: S_9  and  N_12
REMARK    6  A    between atoms: N_12  and  C_13
REMARK    7  A    between atoms: N_12  and  C_21
REMARK    8  A    between atoms: C_13  and  C_14
REMARK    9  A    between atoms: C_14  and  C_15
REMARK   10  A    between atoms: C_21  and  C_22
REMARK                            x       y       z     vdW  Elec       q    Type
REMARK                         _______ _______ _______ _____ _____    ______ ____
ROOT
ATOM      1  N   UNL     1       0.721  -5.392  -0.888  0.00  0.00    -0.175 NA
ENDROOT
BRANCH   1   2
ATOM      2  S   UNL     1      -0.550  -4.449  -0.402  0.00  0.00    +0.061 S 
ATOM      3  O   UNL     1      -0.927  -4.909   0.889  0.00  0.00    -0.153 OA
ATOM      4  O   UNL     1      -1.462  -4.403  -1.490  0.00  0.00    -0.153 OA
BRANCH   2   9
ATOM      5  C   UNL     1       1.562   1.157   0.315  0.00  0.00    +0.044 C 
ATOM      6  C   UNL     1       1.034  -0.243   0.136  0.00  0.00    -0.050 A 
ATOM      7  C   UNL     1       1.056  -1.130   1.196  0.00  0.00    +0.008 A 
ATOM      8  C   UNL     1       0.572  -2.415   1.032  0.00  0.00    -0.024 A 
ATOM      9  C   UNL     1       0.066  -2.811  -0.192  0.00  0.00    +0.111 A 
ATOM     10  C   UNL     1       0.043  -1.923  -1.251  0.00  0.00    -0.024 A 
ATOM     11  C   UNL     1       0.523  -0.638  -1.086  0.00  0.00    +0.008 A 
ATOM     12  C   UNL     1      -0.509  -2.356  -2.585  0.00  0.00    +0.046 C 
ATOM     13  C   UNL     1       0.597  -3.383   2.186  0.00  0.00    +0.046 C 
ENDBRANCH   2   9
ENDBRANCH   1   2
BRANCH   1  14
ATOM     14  C   UNL     1       1.421  -6.236   0.084  0.00  0.00    +0.114 C 
BRANCH  14  15
ATOM     15  C   UNL     1       0.764  -7.617   0.125  0.00  0.00    +0.052 C 
BRANCH  15  16
ATOM     16  C   UNL     1       1.483  -8.486   1.125  0.00  0.00    -0.046 A 
ATOM     17  C   UNL     1       2.557  -9.258   0.723  0.00  0.00    +0.003 A 
ATOM     18  C   UNL     1       3.217 -10.055   1.639  0.00  0.00    +0.000 A 
ATOM     19  C   UNL     1       2.804 -10.079   2.958  0.00  0.00    +0.000 A 
ATOM     20  C   UNL     1       1.730  -9.306   3.360  0.00  0.00    +0.000 A 
ATOM     21  C   UNL     1       1.073  -8.506   2.445  0.00  0.00    +0.003 A 
ENDBRANCH  15  16
ENDBRANCH  14  15
ENDBRANCH   1  14
BRANCH   1  22
ATOM     22  C   UNL     1       1.147  -5.381  -2.290  0.00  0.00    +0.126 C 
BRANCH  22  23
ATOM     23  C   UNL     1       2.073  -4.189  -2.533  0.00  0.00    +0.114 C 
ATOM     24  C   UNL     1       2.219  -4.011  -4.031  0.00  0.00    -0.003 C 
ATOM     25  C   UNL     1       3.475  -4.064  -4.548  0.00  0.00    -0.003 A 
ATOM     26  C   UNL     1       3.702  -3.904  -5.985  0.00  0.00    +0.059 A 
ATOM     27  C   UNL     1       4.971  -3.962  -6.472  0.00  0.00    +0.163 A 
ATOM     28  C   UNL     1       6.070  -4.172  -5.615  0.00  0.00    +0.164 A 
ATOM     29  C   UNL     1       5.909  -4.333  -4.253  0.00  0.00    +0.073 A 
ATOM     30  C   UNL     1       4.638  -4.288  -3.669  0.00  0.00    +0.044 A 
ATOM     31  N   UNL     1       4.505  -4.445  -2.349  0.00  0.00    -0.284 N 
ATOM     32  C   UNL     1       3.337  -4.413  -1.734  0.00  0.00    +0.225 C 
ATOM     33  O   UNL     1       3.279  -4.563  -0.528  0.00  0.00    -0.275 OA
ATOM     34  O   UNL     1       7.332  -4.217  -6.120  0.00  0.00    -0.485 OA
ATOM     35  C   UNL     1       7.458  -4.437  -7.528  0.00  0.00    +0.270 C 
ATOM     36  C   UNL     1       6.482  -3.499  -8.251  0.00  0.00    +0.270 C 
ATOM     37  O   UNL     1       5.156  -3.813  -7.814  0.00  0.00    -0.485 OA
ATOM     38  H   UNL     1       5.304  -4.590  -1.818  0.00  0.00    +0.155 HD
ENDBRANCH  22  23
ENDBRANCH   1  22
TORSDOF 7
