REMARK  Name = ZINC20046646
REMARK  6 active torsions:
REMARK  status: ('A' for Active; 'I' for Inactive)
REMARK    1  A    between atoms: C_1  and  C_2
REMARK    2  A    between atoms: N_11  and  C_15
REMARK    3  A    between atoms: C_15  and  C_16
REMARK    4  A    between atoms: N_21  and  C_22
REMARK    5  A    between atoms: C_22  and  C_23
REMARK    6  A    between atoms: C_23  and  C_24
REMARK                            x       y       z     vdW  Elec       q    Type
REMARK                         _______ _______ _______ _____ _____    ______ ____
ROOT
ATOM      1  C   UNL     1      -6.076   6.558  -3.709  0.00  0.00    +0.214 C 
ENDROOT
BRANCH   1  11
ATOM      2  C   UNL     1      -5.570   5.418  -7.989  0.00  0.00    +0.010 C 
ATOM      3  C   UNL     1      -7.004   5.881  -8.253  0.00  0.00    +0.018 C 
ATOM      4  C   UNL     1      -7.067   6.599  -9.603  0.00  0.00    +0.006 C 
ATOM      5  C   UNL     1      -8.497   7.080  -9.858  0.00  0.00    +0.000 C 
ATOM      6  C   UNL     1      -8.913   8.054  -8.753  0.00  0.00    +0.003 C 
ATOM      7  C   UNL     1      -8.857   7.342  -7.399  0.00  0.00    +0.035 C 
ATOM      8  C   UNL     1      -7.442   6.834  -7.146  0.00  0.00    +0.115 C 
ATOM      9  C   UNL     1      -7.360   6.151  -5.800  0.00  0.00    +0.247 C 
ATOM     10  O   UNL     1      -7.969   5.167  -5.438  0.00  0.00    -0.273 OA
ATOM     11  N   UNL     1      -6.467   6.867  -5.087  0.00  0.00    -0.215 N 
ATOM     12  C   UNL     1      -5.987   7.899  -5.791  0.00  0.00    +0.310 C 
ATOM     13  O   UNL     1      -5.172   8.691  -5.360  0.00  0.00    -0.252 OA
ATOM     14  N   UNL     1      -6.504   7.958  -7.033  0.00  0.00    -0.285 N 
ATOM     15  H   UNL     1      -6.355   8.638  -7.885  0.00  0.00    +0.151 HD
ENDBRANCH   1  11
BRANCH   1  16
ATOM     16  C   UNL     1      -4.893   5.625  -3.720  0.00  0.00    +0.238 C 
ATOM     17  O   UNL     1      -4.423   5.255  -4.774  0.00  0.00    -0.274 OA
ATOM     18  N   UNL     1      -4.358   5.202  -2.558  0.00  0.00    -0.239 N 
ATOM     19  C   UNL     1      -3.299   4.367  -2.567  0.00  0.00    +0.306 C 
ATOM     20  O   UNL     1      -2.828   3.996  -3.624  0.00  0.00    -0.252 OA
ATOM     21  N   UNL     1      -2.764   3.944  -1.405  0.00  0.00    -0.299 N 
ATOM     22  H   UNL     1      -4.785   5.537  -1.601  0.00  0.00    +0.159 HD
ATOM     23  H   UNL     1      -3.191   4.280  -0.449  0.00  0.00    +0.150 HD
BRANCH  21  24
ATOM     24  C   UNL     1      -1.614   3.037  -1.416  0.00  0.00    +0.111 C 
BRANCH  24  25
ATOM     25  C   UNL     1      -1.206   2.714   0.023  0.00  0.00    +0.061 C 
BRANCH  25  26
ATOM     26  C   UNL     1      -0.022   1.781   0.012  0.00  0.00    -0.009 A 
ATOM     27  C   UNL     1       1.300   2.079   0.001  0.00  0.00    +0.011 A 
ATOM     28  C   UNL     1       2.220   1.048  -0.013  0.00  0.00    +0.008 A 
ATOM     29  C   UNL     1       1.773  -0.232  -0.016  0.00  0.00    +0.045 A 
ATOM     30  S   UNL     1       0.002  -0.004   0.002  0.00  0.00    -0.102 S 
ENDBRANCH  25  26
ENDBRANCH  24  25
ENDBRANCH  21  24
ENDBRANCH   1  16
TORSDOF 5
