REMARK  Name = ZINC19370895
REMARK  8 active torsions:
REMARK  status: ('A' for Active; 'I' for Inactive)
REMARK    1  A    between atoms: C_1  and  C_2
REMARK    2  A    between atoms: C_2  and  C_3
REMARK    3  A    between atoms: C_2  and  C_4
REMARK    4  A    between atoms: C_10  and  N_21
REMARK    5  A    between atoms: N_24  and  C_27
REMARK    6  A    between atoms: C_27  and  C_28
REMARK    7  A    between atoms: C_28  and  S_29
REMARK    8  A    between atoms: S_29  and  C_30
REMARK                            x       y       z     vdW  Elec       q    Type
REMARK                         _______ _______ _______ _____ _____    ______ ____
ROOT
ATOM      1  C   UNL     1       3.055   6.880  -3.670  0.00  0.00    -0.044 A 
ATOM      2  C   UNL     1       4.108   6.147  -3.151  0.00  0.00    +0.005 A 
ATOM      3  C   UNL     1       3.904   5.397  -2.021  0.00  0.00    +0.015 A 
ATOM      4  C   UNL     1       2.654   5.354  -1.374  0.00  0.00    +0.017 A 
ATOM      5  C   UNL     1       1.604   6.062  -1.900  0.00  0.00    -0.016 A 
ATOM      6  C   UNL     1       1.831   6.832  -3.052  0.00  0.00    +0.010 A 
ATOM      7  C   UNL     1       0.180   6.152  -1.425  0.00  0.00    +0.092 C 
ATOM      8  C   UNL     1      -0.103   5.611  -0.060  0.00  0.00    +0.060 C 
ATOM      9  C   UNL     1      -0.064   4.118  -0.006  0.00  0.00    -0.032 A 
ATOM     10  C   UNL     1      -1.257   3.406   0.010  0.00  0.00    +0.007 A 
ATOM     11  C   UNL     1      -1.229   2.024   0.010  0.00  0.00    +0.038 A 
ATOM     12  C   UNL     1      -0.021   1.345   0.004  0.00  0.00    +0.124 A 
ATOM     13  C   UNL     1       1.167   2.057   0.001  0.00  0.00    +0.053 A 
ATOM     14  C   UNL     1       1.124   3.446   0.010  0.00  0.00    +0.019 A 
ATOM     15  S   UNL     1       2.609   4.383   0.088  0.00  0.00    -0.089 S 
ATOM     16  F   UNL     1      -0.003  -0.005  -0.004  0.00  0.00    -0.205 F 
ENDROOT
BRANCH   7  17
ATOM     17  N   UNL     1      -0.219   7.566  -1.445  0.00  0.00    -0.299 NA
ATOM     18  C   UNL     1       0.426   8.310  -0.354  0.00  0.00    +0.066 C 
ATOM     19  C   UNL     1       0.049   9.790  -0.458  0.00  0.00    -0.063 C 
ATOM     20  N   UNL     1      -1.413   9.926  -0.392  0.00  0.00    +0.382 N 
ATOM     21  C   UNL     1      -2.058   9.181  -1.482  0.00  0.00    -0.063 C 
ATOM     22  C   UNL     1      -1.681   7.702  -1.379  0.00  0.00    +0.066 C 
ATOM     23  H   UNL     1      -1.751   9.494   0.561  0.00  0.00    -0.082 HD
BRANCH  20  24
ATOM     24  C   UNL     1      -1.811  11.340  -0.412  0.00  0.00    -0.068 C 
BRANCH  24  25
ATOM     25  C   UNL     1      -1.327  12.024   0.868  0.00  0.00    +0.056 C 
BRANCH  25  26
ATOM     26  S   UNL     1      -1.819  13.770   0.843  0.00  0.00    -0.127 S 
BRANCH  26  27
ATOM     27  C   UNL     1      -1.197  14.410   2.362  0.00  0.00    +0.008 A 
ATOM     28  C   UNL     1      -0.515  13.578   3.240  0.00  0.00    +0.017 A 
ATOM     29  C   UNL     1      -0.024  14.083   4.428  0.00  0.00    +0.039 A 
ATOM     30  C   UNL     1      -0.222  15.415   4.749  0.00  0.00    +0.123 A 
ATOM     31  C   UNL     1      -0.906  16.246   3.878  0.00  0.00    +0.039 A 
ATOM     32  C   UNL     1      -1.394  15.747   2.686  0.00  0.00    +0.017 A 
ATOM     33  F   UNL     1       0.255  15.906   5.914  0.00  0.00    -0.205 F 
ENDBRANCH  26  27
ENDBRANCH  25  26
ENDBRANCH  24  25
ENDBRANCH  20  24
ENDBRANCH   7  17
BRANCH   1  35
ATOM     34  C   UNL     1       4.331   8.774  -4.636  0.00  0.00    +0.012 C 
ATOM     35  C   UNL     1       3.251   7.724  -4.903  0.00  0.00    +0.013 C 
ATOM     36  C   UNL     1       3.684   6.832  -6.068  0.00  0.00    +0.012 C 
ENDBRANCH   1  35
TORSDOF 6
