REMARK  Name = ZINC25560790
REMARK  10 active torsions:
REMARK  status: ('A' for Active; 'I' for Inactive)
REMARK    1  A    between atoms: C_1  and  C_2
REMARK    2  A    between atoms: C_2  and  C_3
REMARK    3  A    between atoms: C_3  and  C_4
REMARK    4  A    between atoms: C_4  and  C_5
REMARK    5  A    between atoms: N_7  and  C_8
REMARK    6  A    between atoms: C_8  and  C_10
REMARK    7  A    between atoms: C_8  and  N_14
REMARK    8  A    between atoms: N_14  and  C_15
REMARK    9  A    between atoms: C_15  and  N_17
REMARK   10  A    between atoms: N_17  and  C_18
REMARK                            x       y       z     vdW  Elec       q    Type
REMARK                         _______ _______ _______ _____ _____    ______ ____
ROOT
ATOM      1  N   UNL     1      -0.315   2.836  -4.462  0.00  0.00    -0.305 N 
ATOM      2  H   UNL     1       0.700   2.650  -4.845  0.00  0.00    +0.150 HD
ENDROOT
BRANCH   1   3
ATOM      3  C   UNL     1      -0.762   4.099  -4.322  0.00  0.00    +0.136 C 
ATOM      4  S   UNL     1      -2.341   4.388  -3.727  0.00  0.00    -0.019 S 
BRANCH   3   5
ATOM      5  N   UNL     1       0.035   5.136  -4.651  0.00  0.00    -0.296 N 
ATOM      6  H   UNL     1       1.073   4.954  -4.965  0.00  0.00    +0.154 HD
BRANCH   5   7
ATOM      7  C   UNL     1      -0.459   6.444  -4.591  0.00  0.00    +0.051 A 
ATOM      8  C   UNL     1      -1.160   6.873  -3.472  0.00  0.00    +0.026 A 
ATOM      9  C   UNL     1      -1.646   8.165  -3.415  0.00  0.00    +0.022 A 
ATOM     10  C   UNL     1      -1.435   9.032  -4.473  0.00  0.00    +0.042 A 
ATOM     11  C   UNL     1      -0.738   8.608  -5.590  0.00  0.00    +0.041 A 
ATOM     12  C   UNL     1      -0.244   7.318  -5.650  0.00  0.00    +0.063 A 
ATOM     13 CL   UNL     1       0.637   6.789  -7.049  0.00  0.00    -0.082 Cl
ATOM     14 CL   UNL     1      -2.048  10.655  -4.398  0.00  0.00    -0.083 Cl
ENDBRANCH   5   7
ENDBRANCH   3   5
ENDBRANCH   1   3
BRANCH   1  15
ATOM     15  C   UNL     1      -1.180   1.709  -4.105  0.00  0.00    +0.211 C 
BRANCH  15  18
ATOM     16  C   UNL     1      -1.436   1.369  -1.706  0.00  0.00    +0.214 C 
ATOM     17  O   UNL     1      -2.436   2.054  -1.744  0.00  0.00    -0.276 OA
ATOM     18  N   UNL     1      -0.735   1.135  -2.833  0.00  0.00    -0.294 N 
ATOM     19  H   UNL     1       0.172   0.513  -2.797  0.00  0.00    +0.151 HD
BRANCH  16  20
ATOM     20  C   UNL     1      -0.977   0.778  -0.397  0.00  0.00    +0.096 C 
BRANCH  20  21
ATOM     21  C   UNL     1      -1.942   1.193   0.716  0.00  0.00    +0.009 C 
BRANCH  21  23
ATOM     22  C   UNL     1      -2.441   1.009   3.157  0.00  0.00    +0.004 C 
ATOM     23  C   UNL     1      -1.477   0.594   2.044  0.00  0.00    -0.003 C 
ENDBRANCH  21  23
ENDBRANCH  20  21
ENDBRANCH  16  20
ENDBRANCH  15  18
BRANCH  15  24
ATOM     24  C   UNL     1      -1.107   0.642  -5.199  0.00  0.00    +0.225 C 
ATOM     25 CL   UNL     1      -2.172  -0.744  -4.759  0.00  0.00    -0.080 Cl
ATOM     26 CL   UNL     1      -1.655   1.349  -6.765  0.00  0.00    -0.080 Cl
ATOM     27 CL   UNL     1       0.594   0.065  -5.363  0.00  0.00    -0.080 Cl
ENDBRANCH  15  24
ENDBRANCH   1  15
TORSDOF 9
