REMARK  Name = ZINC65455135
REMARK  4 active torsions:
REMARK  status: ('A' for Active; 'I' for Inactive)
REMARK    1  A    between atoms: C_4  and  C_7
REMARK    2  A    between atoms: C_9  and  C_25
REMARK    3  A    between atoms: N_11  and  C_14
REMARK    4  A    between atoms: C_14  and  C_15
REMARK                            x       y       z     vdW  Elec       q    Type
REMARK                         _______ _______ _______ _____ _____    ______ ____
ROOT
ATOM      1  C   UNL     1       3.693  -0.671   0.181  0.00  0.00    +0.110 C 
ATOM      2  C   UNL     1       3.947  -1.318   1.560  0.00  0.00    +0.144 C 
ATOM      3  N   UNL     1       4.596  -2.616   1.279  0.00  0.00    -0.274 NA
ATOM      4  C   UNL     1       4.739  -2.717  -0.190  0.00  0.00    +0.170 C 
ATOM      5  N   UNL     1       3.687  -1.830  -0.752  0.00  0.00    -0.295 NA
ATOM      6  H   UNL     1       2.789  -2.290  -0.751  0.00  0.00    +0.124 HD
ENDROOT
BRANCH   2   7
ATOM      7  C   UNL     1       4.860  -0.445   2.383  0.00  0.00    +0.104 A 
ATOM      8  N   UNL     1       6.045   0.004   2.004  0.00  0.00    -0.349 N 
ATOM      9  C   UNL     1       6.555   0.749   3.007  0.00  0.00    +0.101 A 
ATOM     10  C   UNL     1       5.654   0.745   4.009  0.00  0.00    +0.101 A 
ATOM     11  N   UNL     1       4.604   0.002   3.602  0.00  0.00    -0.349 N 
ATOM     12  H   UNL     1       3.800  -0.176   4.116  0.00  0.00    +0.166 HD
ATOM     13  H   UNL     1       6.474  -0.172   1.152  0.00  0.00    +0.166 HD
ENDBRANCH   2   7
BRANCH   1  17
ATOM     14  C   UNL     1      -0.083   1.325   0.126  0.00  0.00    +0.000 A 
ATOM     15  C   UNL     1       1.083   2.055   0.262  0.00  0.00    +0.000 A 
ATOM     16  C   UNL     1       2.305   1.409   0.280  0.00  0.00    +0.005 A 
ATOM     17  C   UNL     1       2.361   0.033   0.162  0.00  0.00    -0.029 A 
ATOM     18  C   UNL     1       1.195  -0.698   0.027  0.00  0.00    +0.005 A 
ATOM     19  C   UNL     1      -0.027  -0.051   0.007  0.00  0.00    +0.000 A 
ENDBRANCH   1  17
BRANCH   3  20
ATOM     20  C   UNL     1       5.904  -2.706   1.943  0.00  0.00    +0.123 C 
BRANCH  20  21
ATOM     21  C   UNL     1       6.369  -4.139   1.944  0.00  0.00    -0.015 A 
ATOM     22  C   UNL     1       6.037  -4.965   2.980  0.00  0.00    +0.016 A 
ATOM     23  C   UNL     1       6.492  -6.296   2.940  0.00  0.00    +0.001 A 
ATOM     24  C   UNL     1       6.190  -7.204   3.968  0.00  0.00    +0.010 A 
ATOM     25  C   UNL     1       6.649  -8.483   3.893  0.00  0.00    +0.001 A 
ATOM     26  C   UNL     1       7.416  -8.905   2.808  0.00  0.00    +0.002 A 
ATOM     27  C   UNL     1       7.728  -8.052   1.795  0.00  0.00    +0.028 A 
ATOM     28  C   UNL     1       7.272  -6.723   1.836  0.00  0.00    +0.071 A 
ATOM     29  N   UNL     1       7.561  -5.863   0.855  0.00  0.00    -0.255 NA
ATOM     30  C   UNL     1       7.135  -4.624   0.886  0.00  0.00    +0.116 A 
ENDBRANCH  20  21
ENDBRANCH   3  20
TORSDOF 4
