REMARK  Name = ZINC63351120
REMARK  7 active torsions:
REMARK  status: ('A' for Active; 'I' for Inactive)
REMARK    1  A    between atoms: C_1  and  C_2
REMARK    2  A    between atoms: C_2  and  C_3
REMARK    3  A    between atoms: C_3  and  C_5
REMARK    4  A    between atoms: C_3  and  N_6
REMARK    5  A    between atoms: C_7  and  C_9
REMARK    6  A    between atoms: C_12  and  N_15
REMARK    7  A    between atoms: C_18  and  C_34
REMARK                            x       y       z     vdW  Elec       q    Type
REMARK                         _______ _______ _______ _____ _____    ______ ____
ROOT
ATOM      1  N   UNL     1      -2.261   1.416   8.257  0.00  0.00    -0.192 N 
ATOM      2  C   UNL     1      -1.726   1.484   9.494  0.00  0.00    +0.253 C 
ATOM      3  O   UNL     1      -0.586   1.225   9.814  0.00  0.00    -0.272 OA
ATOM      4  C   UNL     1      -2.845   1.951  10.397  0.00  0.00    +0.137 C 
ATOM      5  C   UNL     1      -3.114   0.926  11.498  0.00  0.00    +0.139 C 
ATOM      6  C   UNL     1      -4.473   0.302  11.215  0.00  0.00    -0.034 C 
ATOM      7  C   UNL     1      -4.271  -1.012  11.146  0.00  0.00    -0.001 A 
ATOM      8  C   UNL     1      -5.204  -2.135  10.962  0.00  0.00    +0.010 A 
ATOM      9  C   UNL     1      -4.648  -3.375  10.928  0.00  0.00    +0.001 A 
ATOM     10  C   UNL     1      -3.275  -3.607  11.057  0.00  0.00    +0.002 A 
ATOM     11  C   UNL     1      -2.346  -2.634  11.233  0.00  0.00    +0.026 A 
ATOM     12  C   UNL     1      -2.809  -1.287  11.291  0.00  0.00    +0.043 A 
ATOM     13  N   UNL     1      -2.142  -0.169  11.473  0.00  0.00    -0.375 N 
ATOM     14  C   UNL     1      -5.732   1.103  10.996  0.00  0.00    +0.052 C 
ATOM     15  C   UNL     1      -5.409   2.167   9.928  0.00  0.00    +0.115 C 
ATOM     16  N   UNL     1      -4.020   1.970   9.502  0.00  0.00    -0.268 N 
ATOM     17  C   UNL     1      -3.563   1.735   8.264  0.00  0.00    +0.316 C 
ATOM     18  O   UNL     1      -4.250   1.799   7.263  0.00  0.00    -0.252 OA
ATOM     19  C   UNL     1      -2.557   3.341  10.969  0.00  0.00    +0.044 C 
ATOM     20  H   UNL     1      -1.181  -0.078  11.570  0.00  0.00    +0.160 HD
ENDROOT
BRANCH   1  24
ATOM     21  C   UNL     1      -0.126   0.363   4.835  0.00  0.00    +0.037 A 
ATOM     22  C   UNL     1      -1.508   0.553   4.767  0.00  0.00    +0.015 A 
ATOM     23  C   UNL     1      -2.211   0.901   5.899  0.00  0.00    +0.025 A 
ATOM     24  C   UNL     1      -1.545   1.063   7.110  0.00  0.00    +0.045 A 
ATOM     25  C   UNL     1      -0.169   0.875   7.181  0.00  0.00    +0.025 A 
ATOM     26  C   UNL     1       0.538   0.521   6.054  0.00  0.00    +0.015 A 
BRANCH  21  28
ATOM     27  N   UNL     1      -0.012  -0.163   2.449  0.00  0.00    -0.309 N 
ATOM     28  C   UNL     1       0.630  -0.011   3.624  0.00  0.00    +0.244 C 
ATOM     29  O   UNL     1       1.833  -0.182   3.686  0.00  0.00    -0.270 OA
ATOM     30  H   UNL     1      -0.971  -0.027   2.399  0.00  0.00    +0.149 HD
BRANCH  27  31
ATOM     31  C   UNL     1       0.738  -0.534   1.246  0.00  0.00    +0.070 C 
ATOM     32  C   UNL     1       0.893  -2.055   1.191  0.00  0.00    +0.028 C 
BRANCH  31  34
ATOM     33  C   UNL     1      -0.063   1.477  -0.002  0.00  0.00    +0.005 C 
ATOM     34  C   UNL     1      -0.016  -0.053   0.005  0.00  0.00    +0.018 C 
ENDBRANCH  31  34
ENDBRANCH  27  31
ENDBRANCH  21  28
ENDBRANCH   1  24
TORSDOF 4
