REMARK  Name = ZINC39636467
REMARK  9 active torsions:
REMARK  status: ('A' for Active; 'I' for Inactive)
REMARK    1  A    between atoms: C_1  and  C_2
REMARK    2  A    between atoms: C_2  and  C_3
REMARK    3  A    between atoms: C_3  and  C_4
REMARK    4  A    between atoms: C_4  and  C_5
REMARK    5  A    between atoms: C_9  and  C_18
REMARK    6  A    between atoms: N_20  and  C_21
REMARK    7  A    between atoms: C_21  and  C_22
REMARK    8  A    between atoms: C_24  and  C_29
REMARK    9  A    between atoms: C_27  and  C_28
REMARK                            x       y       z     vdW  Elec       q    Type
REMARK                         _______ _______ _______ _____ _____    ______ ____
ROOT
ATOM      1  C   UNL     1       1.524  -2.525  -2.592  0.00  0.00    +0.216 C 
ATOM      2  O   UNL     1       1.939  -1.744  -3.422  0.00  0.00    -0.276 OA
ATOM      3  N   UNL     1       1.628  -3.852  -2.804  0.00  0.00    -0.300 N 
ATOM      4  C   UNL     1       1.177  -4.951  -1.919  0.00  0.00    +0.121 C 
ATOM      5  C   UNL     1       0.599  -6.015  -2.880  0.00  0.00    +0.100 C 
ATOM      6  C   UNL     1       1.289  -5.742  -4.227  0.00  0.00    -0.004 C 
ATOM      7  C   UNL     1       2.214  -4.541  -3.978  0.00  0.00    +0.115 C 
ATOM      8  C   UNL     1       2.103  -6.957  -4.660  0.00  0.00    -0.010 C 
ATOM      9  C   UNL     1       2.732  -6.683  -6.029  0.00  0.00    -0.082 C 
ATOM     10  N   UNL     1       1.675  -6.404  -7.008  0.00  0.00    +0.379 N 
ATOM     11  C   UNL     1       0.956  -5.180  -6.633  0.00  0.00    -0.082 C 
ATOM     12  C   UNL     1       0.252  -5.390  -5.289  0.00  0.00    -0.010 C 
ATOM     13  H   UNL     1       2.087  -6.284  -7.921  0.00  0.00    -0.086 HD
ATOM     14  H   UNL     1       1.028  -7.178  -7.033  0.00  0.00    -0.086 HD
ENDROOT
BRANCH   5  15
ATOM     15  C   UNL     1       0.931  -7.401  -2.389  0.00  0.00    +0.218 C 
ATOM     16  O   UNL     1       1.963  -7.599  -1.785  0.00  0.00    -0.275 OA
ATOM     17  N   UNL     1       0.080  -8.419  -2.622  0.00  0.00    -0.311 N 
ATOM     18  H   UNL     1      -0.746  -8.260  -3.106  0.00  0.00    +0.149 HD
BRANCH  17  19
ATOM     19  C   UNL     1       0.402  -9.767  -2.145  0.00  0.00    +0.139 C 
BRANCH  19  20
ATOM     20  C   UNL     1      -0.704 -10.714  -2.533  0.00  0.00    -0.027 A 
ATOM     21  C   UNL     1      -1.663 -11.073  -1.604  0.00  0.00    +0.008 A 
ATOM     22  C   UNL     1      -2.678 -11.942  -1.959  0.00  0.00    -0.050 A 
ATOM     23  C   UNL     1      -2.733 -12.453  -3.243  0.00  0.00    +0.003 A 
ATOM     24  C   UNL     1      -1.774 -12.093  -4.171  0.00  0.00    +0.004 A 
ATOM     25  C   UNL     1      -0.762 -11.220  -3.817  0.00  0.00    -0.046 A 
ATOM     26  C   UNL     1       0.280 -10.824  -4.831  0.00  0.00    +0.044 C 
ATOM     27  C   UNL     1      -3.723 -12.334  -0.947  0.00  0.00    +0.044 C 
ENDBRANCH  19  20
ENDBRANCH  17  19
ENDBRANCH   5  15
BRANCH   1  28
ATOM     28  C   UNL     1       0.891  -2.012  -1.324  0.00  0.00    +0.096 C 
BRANCH  28  29
ATOM     29  C   UNL     1       0.897  -0.482  -1.334  0.00  0.00    +0.009 C 
BRANCH  29  31
ATOM     30  C   UNL     1       0.261   1.569  -0.057  0.00  0.00    +0.004 C 
ATOM     31  C   UNL     1       0.255   0.039  -0.047  0.00  0.00    -0.003 C 
ENDBRANCH  29  31
ENDBRANCH  28  29
ENDBRANCH   1  28
TORSDOF 6
