REMARK  Name = ZINC40033138
REMARK  6 active torsions:
REMARK  status: ('A' for Active; 'I' for Inactive)
REMARK    1  A    between atoms: C_1  and  C_2
REMARK    2  A    between atoms: C_2  and  N_3
REMARK    3  A    between atoms: N_10  and  N_11
REMARK    4  A    between atoms: C_12  and  C_13
REMARK    5  A    between atoms: C_26  and  C_27
REMARK    6  A    between atoms: C_26  and  C_28
REMARK                            x       y       z     vdW  Elec       q    Type
REMARK                         _______ _______ _______ _____ _____    ______ ____
ROOT
ATOM      1  N   UNL     1       0.728  -0.222   1.407  0.00  0.00    -0.280 N 
ATOM      2  C   UNL     1       2.042  -0.507   1.281  0.00  0.00    +0.260 A 
ATOM      3  O   UNL     1       2.628  -0.292   0.233  0.00  0.00    -0.267 OA
ATOM      4  C   UNL     1       2.718  -1.053   2.380  0.00  0.00    +0.049 A 
ATOM      5  C   UNL     1       2.013  -1.279   3.553  0.00  0.00    +0.084 A 
ATOM      6  N   UNL     1       0.711  -0.984   3.617  0.00  0.00    -0.214 NA
ATOM      7  C   UNL     1       0.083  -0.466   2.582  0.00  0.00    +0.219 A 
ATOM      8  N   UNL     1      -1.252  -0.170   2.687  0.00  0.00    -0.206 N 
ATOM      9  C   UNL     1       2.729  -1.842   4.721  0.00  0.00    +0.004 A 
ATOM     10  C   UNL     1       2.032  -2.433   5.770  0.00  0.00    +0.010 A 
ATOM     11  C   UNL     1       2.725  -2.955   6.845  0.00  0.00    +0.001 A 
ATOM     12  C   UNL     1       4.107  -2.890   6.876  0.00  0.00    +0.000 A 
ATOM     13  C   UNL     1       4.804  -2.301   5.835  0.00  0.00    +0.004 A 
ATOM     14  C   UNL     1       4.122  -1.774   4.758  0.00  0.00    -0.037 A 
ATOM     15  C   UNL     1       4.872  -1.121   3.628  0.00  0.00    +0.047 C 
ATOM     16  C   UNL     1       4.179  -1.393   2.296  0.00  0.00    +0.001 C 
ATOM     17  C   UNL     1       4.332  -2.873   1.940  0.00  0.00    +0.016 C 
ATOM     18  C   UNL     1       4.832  -0.543   1.204  0.00  0.00    +0.016 C 
ATOM     19  H   UNL     1      -1.726   0.209   1.930  0.00  0.00    +0.177 HD
ENDROOT
BRANCH   1  21
ATOM     20  C   UNL     1       0.077   1.883   0.345  0.00  0.00    +0.027 C 
ATOM     21  C   UNL     1      -0.005   0.356   0.278  0.00  0.00    +0.125 C 
ENDBRANCH   1  21
BRANCH   8  22
ATOM     22  N   UNL     1      -1.931  -0.414   3.888  0.00  0.00    -0.188 NA
ATOM     23  C   UNL     1      -3.194  -0.134   3.987  0.00  0.00    +0.138 C 
BRANCH  23  24
ATOM     24  C   UNL     1      -3.909  -0.391   5.251  0.00  0.00    -0.005 A 
ATOM     25  C   UNL     1      -3.228  -0.931   6.345  0.00  0.00    +0.009 A 
ATOM     26  C   UNL     1      -3.903  -1.169   7.524  0.00  0.00    +0.001 A 
ATOM     27  C   UNL     1      -5.252  -0.875   7.625  0.00  0.00    +0.000 A 
ATOM     28  C   UNL     1      -5.932  -0.340   6.546  0.00  0.00    +0.001 A 
ATOM     29  C   UNL     1      -5.269  -0.091   5.362  0.00  0.00    +0.009 A 
ENDBRANCH  23  24
ENDBRANCH   8  22
TORSDOF 3
