REMARK  Name = ZINC19894202
REMARK  5 active torsions:
REMARK  status: ('A' for Active; 'I' for Inactive)
REMARK    1  A    between atoms: C_1  and  C_2
REMARK    2  A    between atoms: C_5  and  N_8
REMARK    3  A    between atoms: C_12  and  N_16
REMARK    4  A    between atoms: N_16  and  C_17
REMARK    5  A    between atoms: C_23  and  C_25
REMARK                            x       y       z     vdW  Elec       q    Type
REMARK                         _______ _______ _______ _____ _____    ______ ____
ROOT
ATOM      1  N   UNL     1       2.166  -6.676   1.212  0.00  0.00    -0.302 NA
ATOM      2  H   UNL     1       2.655  -7.274   0.563  0.00  0.00    +0.123 HD
ENDROOT
BRANCH   1   3
ATOM      3  C   UNL     1       1.708  -7.435   2.384  0.00  0.00    +0.057 C 
ATOM      4  C   UNL     1       1.658  -6.510   3.602  0.00  0.00    +0.037 C 
ATOM      5  C   UNL     1       1.148  -7.295   4.814  0.00  0.00    +0.109 C 
ATOM      6  N   UNL     1       1.990  -8.486   4.995  0.00  0.00    -0.301 N 
ATOM      7  C   UNL     1       2.179  -9.396   3.857  0.00  0.00    +0.109 C 
ATOM      8  C   UNL     1       2.678  -8.587   2.656  0.00  0.00    +0.037 C 
ATOM      9  C   UNL     1       2.578  -8.738   6.181  0.00  0.00    +0.219 C 
ATOM     10  O   UNL     1       2.466  -7.947   7.094  0.00  0.00    -0.275 OA
BRANCH   9  11
ATOM     11  C   UNL     1       3.374 -10.003   6.374  0.00  0.00    +0.075 C 
ATOM     12  C   UNL     1       2.436 -11.210   6.315  0.00  0.00    +0.013 C 
ATOM     13  C   UNL     1       3.244 -12.494   6.511  0.00  0.00    +0.001 C 
ATOM     14  C   UNL     1       3.941 -12.456   7.873  0.00  0.00    +0.000 C 
ATOM     15  C   UNL     1       4.879 -11.248   7.932  0.00  0.00    +0.001 C 
ATOM     16  C   UNL     1       4.070  -9.964   7.736  0.00  0.00    +0.013 C 
ENDBRANCH   9  11
ENDBRANCH   1   3
BRANCH   1  21
ATOM     17  N   UNL     1       1.201  -5.080  -1.579  0.00  0.00    -0.209 N 
ATOM     18  C   UNL     1       0.531  -6.222  -1.779  0.00  0.00    +0.228 C 
ATOM     19  O   UNL     1       0.132  -6.624  -2.851  0.00  0.00    -0.275 OA
ATOM     20  C   UNL     1       0.353  -6.933  -0.455  0.00  0.00    +0.125 C 
ATOM     21  C   UNL     1       1.043  -5.994   0.555  0.00  0.00    +0.150 C 
ATOM     22  C   UNL     1       1.543  -4.854  -0.304  0.00  0.00    +0.244 C 
ATOM     23  O   UNL     1       2.155  -3.888   0.097  0.00  0.00    -0.273 OA
BRANCH  17  28
ATOM     24  C   UNL     1       2.501  -1.506  -5.791  0.00  0.00    +0.044 C 
ATOM     25  C   UNL     1       2.156  -2.455  -4.673  0.00  0.00    -0.050 A 
ATOM     26  C   UNL     1       3.159  -3.155  -4.028  0.00  0.00    +0.005 A 
ATOM     27  C   UNL     1       2.845  -4.026  -3.002  0.00  0.00    +0.024 A 
ATOM     28  C   UNL     1       1.522  -4.197  -2.619  0.00  0.00    +0.044 A 
ATOM     29  C   UNL     1       0.517  -3.492  -3.268  0.00  0.00    +0.024 A 
ATOM     30  C   UNL     1       0.838  -2.619  -4.290  0.00  0.00    +0.005 A 
ENDBRANCH  17  28
ENDBRANCH   1  21
TORSDOF 4
