REMARK  Name = ZINC23343350
REMARK  11 active torsions:
REMARK  status: ('A' for Active; 'I' for Inactive)
REMARK    1  A    between atoms: C_1  and  C_2
REMARK    2  A    between atoms: C_2  and  C_3
REMARK    3  A    between atoms: C_2  and  C_4
REMARK    4  A    between atoms: C_4  and  O_32
REMARK    5  A    between atoms: C_6  and  O_31
REMARK    6  A    between atoms: C_8  and  C_30
REMARK    7  A    between atoms: C_11  and  O_20
REMARK    8  A    between atoms: C_14  and  C_19
REMARK    9  A    between atoms: O_20  and  C_21
REMARK   10  A    between atoms: C_21  and  C_23
REMARK   11  A    between atoms: C_26  and  O_29
REMARK                            x       y       z     vdW  Elec       q    Type
REMARK                         _______ _______ _______ _____ _____    ______ ____
ROOT
ATOM      1  C   UNL     1      -2.345   1.695   0.638  0.00  0.00    +0.077 C 
ATOM      2  C   UNL     1      -0.929   1.573   1.230  0.00  0.00    +0.067 C 
ATOM      3  C   UNL     1      -0.012   1.063   0.008  0.00  0.00    +0.124 C 
ATOM      4  C   UNL     1      -0.869   1.590  -1.261  0.00  0.00    +0.005 C 
ATOM      5  C   UNL     1      -2.251   1.741  -0.886  0.00  0.00    +0.070 C 
ATOM      6  C   UNL     1      -2.913   3.084  -1.331  0.00  0.00    +0.186 C 
ATOM      7  C   UNL     1      -3.082   3.306  -2.732  0.00  0.00    +0.082 C 
ATOM      8  C   UNL     1      -2.022   3.097  -3.727  0.00  0.00    +0.097 C 
ATOM      9  C   UNL     1      -0.633   2.874  -3.420  0.00  0.00    +0.151 C 
ATOM     10  C   UNL     1      -0.118   2.749  -1.953  0.00  0.00    +0.044 C 
ATOM     11  O   UNL     1      -0.968   4.146  -3.851  0.00  0.00    -0.365 OA
ATOM     12  C   UNL     1      -2.560   2.584  -5.118  0.00  0.00    +0.044 C 
ATOM     13  C   UNL     1      -0.800   0.343  -2.294  0.00  0.00    +0.014 C 
ENDROOT
BRANCH   1  15
ATOM     14  C   UNL     1      -3.221   0.362   2.581  0.00  0.00    +0.010 C 
ATOM     15  C   UNL     1      -3.119   0.420   1.056  0.00  0.00    +0.015 C 
ATOM     16  C   UNL     1      -4.524   0.456   0.452  0.00  0.00    +0.010 C 
ENDBRANCH   1  15
BRANCH   3  17
ATOM     17  O   UNL     1       1.214   1.670  -0.001  0.00  0.00    -0.391 OA
ATOM     18  H   UNL     1       1.947   1.419  -0.781  0.00  0.00    +0.210 HD
ENDBRANCH   3  17
BRANCH   1  19
ATOM     19  O   UNL     1      -3.022   2.813   1.224  0.00  0.00    -0.388 OA
ATOM     20  H   UNL     1      -2.643   3.833   1.060  0.00  0.00    +0.210 HD
ENDBRANCH   1  19
BRANCH   6  21
ATOM     21  O   UNL     1      -2.104   4.198  -0.733  0.00  0.00    -0.457 OA
BRANCH  21  22
ATOM     22  C   UNL     1      -2.782   5.266  -0.270  0.00  0.00    +0.339 C 
ATOM     23  O   UNL     1      -3.994   5.297  -0.348  0.00  0.00    -0.245 OA
BRANCH  22  24
ATOM     24  C   UNL     1      -2.053   6.399   0.331  0.00  0.00    +0.059 A 
ATOM     25  C   UNL     1      -0.659   6.363   0.427  0.00  0.00    +0.018 A 
ATOM     26  C   UNL     1       0.018   7.424   0.984  0.00  0.00    +0.046 A 
ATOM     27  C   UNL     1      -0.683   8.526   1.461  0.00  0.00    +0.117 A 
ATOM     28  C   UNL     1      -2.070   8.563   1.373  0.00  0.00    +0.046 A 
ATOM     29  C   UNL     1      -2.755   7.508   0.812  0.00  0.00    +0.018 A 
BRANCH  27  30
ATOM     30  O   UNL     1      -0.013   9.568   2.014  0.00  0.00    -0.507 OA
ATOM     31  H   UNL     1      -0.566  10.440   2.392  0.00  0.00    +0.292 HD
ENDBRANCH  27  30
ENDBRANCH  22  24
ENDBRANCH  21  22
ENDBRANCH   6  21
TORSDOF 7
