REMARK  Name = ZINC47145669
REMARK  2 active torsions:
REMARK  status: ('A' for Active; 'I' for Inactive)
REMARK    1  A    between atoms: C_6  and  C_7
REMARK    2  A    between atoms: N_23  and  C_26
REMARK                            x       y       z     vdW  Elec       q    Type
REMARK                         _______ _______ _______ _____ _____    ______ ____
ROOT
ATOM      1  C   UNL     1      -1.293  -0.775   0.010  0.00  0.00    +0.072 C 
ATOM      2  C   UNL     1      -1.372  -1.642  -1.215  0.00  0.00    +0.033 A 
ATOM      3  C   UNL     1      -1.831  -2.906  -1.344  0.00  0.00    +0.088 A 
ATOM      4  N   UNL     1      -1.747  -3.428  -2.611  0.00  0.00    -0.311 N 
ATOM      5  H   UNL     1      -2.046  -4.334  -2.783  0.00  0.00    +0.170 HD
ATOM      6  C   UNL     1      -1.250  -2.680  -3.615  0.00  0.00    +0.289 A 
ATOM      7  O   UNL     1      -1.111  -2.985  -4.786  0.00  0.00    -0.260 OA
ATOM      8  S   UNL     1      -0.868  -1.225  -2.863  0.00  0.00    -0.030 S 
ATOM      9  S   UNL     1      -2.503  -3.791   0.056  0.00  0.00    -0.093 S 
ATOM     10  C   UNL     1      -2.705  -2.426   1.229  0.00  0.00    +0.152 C 
ATOM     11  C   UNL     1      -1.349  -1.658   1.231  0.00  0.00    +0.110 C 
ATOM     12  C   UNL     1      -1.389  -1.028   2.588  0.00  0.00    +0.232 C 
ATOM     13  O   UNL     1      -0.883   0.022   2.919  0.00  0.00    -0.274 OA
ATOM     14  N   UNL     1      -2.109  -1.872   3.373  0.00  0.00    -0.209 N 
ATOM     15  C   UNL     1      -2.791  -2.843   2.671  0.00  0.00    +0.240 C 
ATOM     16  O   UNL     1      -3.342  -3.829   3.112  0.00  0.00    -0.274 OA
ENDROOT
BRANCH   1  22
ATOM     17  C   UNL     1      -0.017   1.378   0.010  0.00  0.00    +0.005 A 
ATOM     18  C   UNL     1       1.171   2.086   0.002  0.00  0.00    +0.015 A 
ATOM     19  C   UNL     1       2.378   1.411  -0.013  0.00  0.00    +0.018 A 
ATOM     20  C   UNL     1       2.396   0.027  -0.021  0.00  0.00    +0.015 A 
ATOM     21  C   UNL     1       1.208  -0.679  -0.013  0.00  0.00    +0.005 A 
ATOM     22  C   UNL     1       0.002  -0.004   0.002  0.00  0.00    -0.039 A 
ATOM     23 BR   UNL     1       4.003   2.378  -0.024  0.00  0.00    -0.050 Br
ENDBRANCH   1  22
BRANCH  14  24
ATOM     24  C   UNL     1      -2.166  -1.760   4.770  0.00  0.00    +0.044 A 
ATOM     25  C   UNL     1      -1.469  -0.747   5.415  0.00  0.00    +0.025 A 
ATOM     26  C   UNL     1      -1.526  -0.639   6.791  0.00  0.00    +0.022 A 
ATOM     27  C   UNL     1      -2.277  -1.539   7.526  0.00  0.00    +0.041 A 
ATOM     28  C   UNL     1      -2.972  -2.550   6.886  0.00  0.00    +0.022 A 
ATOM     29  C   UNL     1      -2.923  -2.658   5.510  0.00  0.00    +0.025 A 
ATOM     30 CL   UNL     1      -2.346  -1.401   9.255  0.00  0.00    -0.084 Cl
ENDBRANCH  14  24
TORSDOF 2
