REMARK  Name = ZINC64058501
REMARK  6 active torsions:
REMARK  status: ('A' for Active; 'I' for Inactive)
REMARK    1  A    between atoms: C_5  and  C_12
REMARK    2  A    between atoms: C_12  and  N_13
REMARK    3  A    between atoms: C_14  and  C_16
REMARK    4  A    between atoms: C_16  and  C_17
REMARK    5  A    between atoms: N_24  and  C_25
REMARK    6  A    between atoms: C_25  and  C_26
REMARK                            x       y       z     vdW  Elec       q    Type
REMARK                         _______ _______ _______ _____ _____    ______ ____
ROOT
ATOM      1  C   UNL     1       7.295   4.038  -2.514  0.00  0.00    +0.089 C 
ENDROOT
BRANCH   1   2
ATOM      2  C   UNL     1       8.197   3.961  -3.748  0.00  0.00    +0.028 C 
ATOM      3  C   UNL     1       9.055   5.193  -3.815  0.00  0.00    +0.200 C 
ATOM      4  O   UNL     1       9.549   5.614  -2.791  0.00  0.00    -0.278 OA
ATOM      5  N   UNL     1       9.297   5.843  -4.959  0.00  0.00    -0.318 N 
ATOM      6  C   UNL     1       8.725   5.426  -6.237  0.00  0.00    +0.085 C 
ATOM      7  C   UNL     1       8.227   3.983  -6.139  0.00  0.00    -0.059 C 
ATOM      8  N   UNL     1       7.365   3.861  -4.954  0.00  0.00    +0.389 N 
ATOM      9  H   UNL     1       9.875   6.621  -4.939  0.00  0.00    +0.149 HD
ATOM     10  H   UNL     1       6.681   4.603  -4.954  0.00  0.00    -0.081 HD
BRANCH   8  11
ATOM     11  C   UNL     1       6.684   2.560  -4.975  0.00  0.00    -0.074 C 
BRANCH  11  12
ATOM     12  C   UNL     1       5.699   2.519  -6.145  0.00  0.00    -0.028 C 
ATOM     13  C   UNL     1       4.593   3.551  -5.916  0.00  0.00    +0.002 C 
ATOM     14  C   UNL     1       3.607   3.511  -7.086  0.00  0.00    +0.000 C 
ATOM     15  C   UNL     1       2.989   2.115  -7.184  0.00  0.00    +0.000 C 
ATOM     16  C   UNL     1       4.096   1.083  -7.413  0.00  0.00    +0.000 C 
ATOM     17  C   UNL     1       5.081   1.123  -6.243  0.00  0.00    +0.002 C 
ENDBRANCH  11  12
ENDBRANCH   8  11
ENDBRANCH   1   2
BRANCH   1  19
ATOM     18  N   UNL     1       5.473   5.487  -1.678  0.00  0.00    -0.313 N 
ATOM     19  C   UNL     1       6.438   5.275  -2.595  0.00  0.00    +0.212 C 
ATOM     20  O   UNL     1       6.616   6.079  -3.486  0.00  0.00    -0.276 OA
ATOM     21  H   UNL     1       5.331   4.844  -0.966  0.00  0.00    +0.149 HD
BRANCH  18  22
ATOM     22  C   UNL     1       4.640   6.689  -1.757  0.00  0.00    +0.132 C 
BRANCH  22  27
ATOM     23  C   UNL     1       4.089   9.157   3.250  0.00  0.00    +0.040 A 
ATOM     24  C   UNL     1       4.495   7.988   2.712  0.00  0.00    +0.029 A 
ATOM     25  C   UNL     1       4.076   7.614   1.405  0.00  0.00    +0.043 A 
ATOM     26  N   UNL     1       4.330   6.553   0.678  0.00  0.00    -0.376 N 
ATOM     27  C   UNL     1       3.632   6.687  -0.606  0.00  0.00    +0.120 C 
ATOM     28  C   UNL     1       2.904   8.012  -0.545  0.00  0.00    +0.009 C 
ATOM     29  C   UNL     1       3.189   8.541   0.666  0.00  0.00    -0.001 A 
ATOM     30  C   UNL     1       2.792   9.792   1.322  0.00  0.00    +0.048 A 
ATOM     31  C   UNL     1       3.248  10.053   2.570  0.00  0.00    +0.124 A 
ATOM     32  F   UNL     1       2.885  11.204   3.177  0.00  0.00    -0.205 F 
ATOM     33  H   UNL     1       4.887   5.804   0.944  0.00  0.00    +0.160 HD
ENDBRANCH  22  27
ENDBRANCH  18  22
ENDBRANCH   1  19
TORSDOF 6
