REMARK  Name = ZINC09956980
REMARK  7 active torsions:
REMARK  status: ('A' for Active; 'I' for Inactive)
REMARK    1  A    between atoms: C_1  and  C_2
REMARK    2  A    between atoms: C_10  and  O_34
REMARK    3  A    between atoms: C_21  and  C_22
REMARK    4  A    between atoms: C_25  and  O_30
REMARK    5  A    between atoms: C_27  and  O_28
REMARK    6  A    between atoms: O_28  and  C_29
REMARK    7  A    between atoms: O_30  and  C_31
REMARK                            x       y       z     vdW  Elec       q    Type
REMARK                         _______ _______ _______ _____ _____    ______ ____
ROOT
ATOM      1  C   UNL     1       0.744   8.640  -2.429  0.00  0.00    +0.020 C 
ATOM      2  C   UNL     1       0.760   8.759  -0.903  0.00  0.00    +0.034 C 
ATOM      3  C   UNL     1       2.175   8.935  -0.351  0.00  0.00    +0.015 C 
ATOM      4  C   UNL     1       2.708  10.338  -0.575  0.00  0.00    +0.009 C 
ATOM      5  C   UNL     1       1.787  11.319   0.154  0.00  0.00    +0.023 C 
ATOM      6  C   UNL     1       2.330  12.719   0.086  0.00  0.00    -0.041 A 
ATOM      7  C   UNL     1       3.698  12.900   0.243  0.00  0.00    +0.008 A 
ATOM      8  C   UNL     1       4.246  14.165   0.213  0.00  0.00    +0.046 A 
ATOM      9  C   UNL     1       3.423  15.266   0.024  0.00  0.00    +0.117 A 
ATOM     10  C   UNL     1       2.061  15.084  -0.139  0.00  0.00    +0.049 A 
ATOM     11  C   UNL     1       1.510  13.810  -0.113  0.00  0.00    -0.040 A 
ATOM     12  C   UNL     1       0.022  13.688  -0.308  0.00  0.00    +0.036 C 
ATOM     13  C   UNL     1      -0.483  12.314   0.132  0.00  0.00    +0.009 C 
ATOM     14  C   UNL     1       0.412  11.249  -0.502  0.00  0.00    +0.001 C 
ATOM     15  C   UNL     1      -0.183   9.872  -0.403  0.00  0.00    +0.010 C 
ATOM     16  C   UNL     1      -0.438   9.434   1.050  0.00  0.00    +0.043 C 
ATOM     17  C   UNL     1      -0.495   7.918   0.945  0.00  0.00    -0.003 C 
ATOM     18  C   UNL     1      -1.103   7.087   1.829  0.00  0.00    +0.018 C 
ATOM     19  C   UNL     1       0.183   7.517  -0.225  0.00  0.00    +0.165 C 
ATOM     20  O   UNL     1       0.290   6.375  -0.626  0.00  0.00    -0.292 OA
ENDROOT
BRANCH  18  21
ATOM     21  C   UNL     1      -0.939   5.636   1.704  0.00  0.00    +0.017 A 
ATOM     22  C   UNL     1       0.323   5.092   1.428  0.00  0.00    +0.015 A 
ATOM     23  C   UNL     1       0.474   3.740   1.318  0.00  0.00    +0.046 A 
ATOM     24  C   UNL     1      -0.621   2.893   1.467  0.00  0.00    +0.124 A 
ATOM     25  C   UNL     1      -1.878   3.415   1.741  0.00  0.00    +0.091 A 
ATOM     26  C   UNL     1      -2.046   4.783   1.861  0.00  0.00    +0.131 A 
BRANCH  26  27
ATOM     27  O   UNL     1      -3.273   5.298   2.128  0.00  0.00    -0.494 OA
ATOM     28  C   UNL     1      -4.349   4.370   2.274  0.00  0.00    +0.277 C 
ENDBRANCH  26  27
BRANCH  24  29
ATOM     29  O   UNL     1      -0.458   1.551   1.350  0.00  0.00    -0.495 OA
ATOM     30  C   UNL     1       0.861   1.080   1.067  0.00  0.00    +0.277 C 
ENDBRANCH  24  29
ENDBRANCH  18  21
BRANCH   9  31
ATOM     31  O   UNL     1       3.953  16.517  -0.001  0.00  0.00    -0.507 OA
ATOM     32  H   UNL     1       4.219  16.814  -0.881  0.00  0.00    +0.292 HD
ENDBRANCH   9  31
TORSDOF 4
