REMARK  Name = ZINC20758148
REMARK  6 active torsions:
REMARK  status: ('A' for Active; 'I' for Inactive)
REMARK    1  A    between atoms: C_1  and  C_2
REMARK    2  A    between atoms: C_2  and  N_3
REMARK    3  A    between atoms: C_16  and  C_18
REMARK    4  A    between atoms: N_22  and  C_25
REMARK    5  A    between atoms: C_28  and  C_32
REMARK    6  A    between atoms: C_30  and  C_31
REMARK                            x       y       z     vdW  Elec       q    Type
REMARK                         _______ _______ _______ _____ _____    ______ ____
ROOT
ATOM      1  C   UNL     1      -0.852  -2.358  -1.485  0.00  0.00    +0.074 A 
ATOM      2  C   UNL     1       0.207  -3.207  -1.620  0.00  0.00    +0.260 A 
ATOM      3  N   UNL     1       0.649  -3.540  -2.875  0.00  0.00    -0.274 N 
ATOM      4  C   UNL     1       0.045  -3.035  -3.967  0.00  0.00    +0.337 A 
ATOM      5  N   UNL     1      -1.000  -2.196  -3.854  0.00  0.00    -0.229 N 
ATOM      6  C   UNL     1      -1.470  -1.848  -2.640  0.00  0.00    +0.267 A 
ATOM      7  O   UNL     1      -2.421  -1.092  -2.543  0.00  0.00    -0.267 OA
ATOM      8  O   UNL     1       0.451  -3.341  -5.071  0.00  0.00    -0.246 OA
ATOM      9  O   UNL     1       0.816  -3.715  -0.527  0.00  0.00    -0.267 OA
ATOM     10  H   UNL     1       1.402  -4.143  -2.977  0.00  0.00    +0.173 HD
ENDROOT
BRANCH   1  24
ATOM     11  N   UNL     1      -1.376  -0.512   0.012  0.00  0.00    +0.388 N 
ATOM     12  C   UNL     1      -2.029  -0.123   1.269  0.00  0.00    -0.073 C 
ATOM     13  C   UNL     1      -3.541  -0.366   1.158  0.00  0.00    +0.019 C 
ATOM     14  C   UNL     1      -3.746  -1.768   0.641  0.00  0.00    -0.022 A 
ATOM     15  C   UNL     1      -4.939  -2.583   0.641  0.00  0.00    +0.003 A 
ATOM     16  C   UNL     1      -6.243  -2.361   1.096  0.00  0.00    +0.010 A 
ATOM     17  C   UNL     1      -7.142  -3.385   0.929  0.00  0.00    +0.001 A 
ATOM     18  C   UNL     1      -6.787  -4.588   0.339  0.00  0.00    +0.002 A 
ATOM     19  C   UNL     1      -5.505  -4.834  -0.120  0.00  0.00    +0.026 A 
ATOM     20  C   UNL     1      -4.570  -3.813   0.036  0.00  0.00    +0.047 A 
ATOM     21  N   UNL     1      -3.248  -3.724  -0.296  0.00  0.00    -0.359 N 
ATOM     22  H   UNL     1      -2.732  -4.424  -0.725  0.00  0.00    +0.166 HD
ATOM     23  C   UNL     1      -2.762  -2.498   0.068  0.00  0.00    +0.011 A 
ATOM     24  C   UNL     1      -1.356  -1.978  -0.117  0.00  0.00    +0.021 C 
ATOM     25  H   UNL     1      -1.885  -0.116  -0.763  0.00  0.00    -0.080 HD
BRANCH  11  27
ATOM     26  C   UNL     1      -0.019   1.526   0.010  0.00  0.00    -0.017 C 
ATOM     27  C   UNL     1       0.002  -0.004   0.002  0.00  0.00    -0.081 C 
ENDBRANCH  11  27
ENDBRANCH   1  24
BRANCH   5  28
ATOM     28  C   UNL     1      -1.609  -1.684  -5.008  0.00  0.00    +0.057 A 
ATOM     29  C   UNL     1      -2.668  -2.364  -5.595  0.00  0.00    +0.027 A 
ATOM     30  C   UNL     1      -3.266  -1.857  -6.732  0.00  0.00    +0.005 A 
ATOM     31  C   UNL     1      -2.811  -0.674  -7.286  0.00  0.00    -0.050 A 
ATOM     32  C   UNL     1      -1.757   0.004  -6.704  0.00  0.00    +0.008 A 
ATOM     33  C   UNL     1      -1.159  -0.494  -5.563  0.00  0.00    -0.026 A 
ATOM     34  C   UNL     1      -0.014   0.250  -4.925  0.00  0.00    +0.046 C 
ATOM     35  C   UNL     1      -3.466  -0.124  -8.527  0.00  0.00    +0.044 C 
ENDBRANCH   5  28
TORSDOF 3
