REMARK  Name = ZINC01868858
REMARK  12 active torsions:
REMARK  status: ('A' for Active; 'I' for Inactive)
REMARK    1  A    between atoms: C_1  and  C_2
REMARK    2  A    between atoms: C_2  and  N_3
REMARK    3  A    between atoms: N_3  and  C_4
REMARK    4  A    between atoms: N_3  and  C_6
REMARK    5  A    between atoms: C_4  and  C_5
REMARK    6  A    between atoms: C_9  and  C_12
REMARK    7  A    between atoms: N_13  and  N_14
REMARK    8  A    between atoms: C_15  and  C_17
REMARK    9  A    between atoms: C_17  and  S_18
REMARK   10  A    between atoms: S_18  and  C_19
REMARK   11  A    between atoms: C_22  and  C_30
REMARK   12  A    between atoms: N_23  and  C_24
REMARK                            x       y       z     vdW  Elec       q    Type
REMARK                         _______ _______ _______ _____ _____    ______ ____
ROOT
ATOM      1  S   UNL     1      -1.399  -3.367 -11.836  0.00  0.00    -0.076 S 
ENDROOT
BRANCH   1   2
ATOM      2  C   UNL     1      -2.452  -3.617 -13.226  0.00  0.00    +0.197 A 
ATOM      3  N   UNL     1      -3.750  -3.412 -13.268  0.00  0.00    -0.122 NA
ATOM      4  N   UNL     1      -4.204  -3.695 -14.436  0.00  0.00    -0.128 NA
ATOM      5  C   UNL     1      -3.227  -4.098 -15.214  0.00  0.00    +0.169 A 
ATOM      6  N   UNL     1      -2.071  -4.056 -14.464  0.00  0.00    -0.270 N 
BRANCH   5   7
ATOM      7  C   UNL     1      -3.342  -4.514 -16.628  0.00  0.00    +0.021 A 
ATOM      8  C   UNL     1      -2.302  -5.215 -17.239  0.00  0.00    +0.011 A 
ATOM      9  C   UNL     1      -2.416  -5.601 -18.559  0.00  0.00    +0.002 A 
ATOM     10  C   UNL     1      -3.558  -5.293 -19.277  0.00  0.00    +0.015 A 
ATOM     11  C   UNL     1      -4.594  -4.598 -18.676  0.00  0.00    +0.019 A 
ATOM     12  C   UNL     1      -4.495  -4.212 -17.355  0.00  0.00    +0.027 A 
ATOM     13 BR   UNL     1      -6.150  -4.183 -19.667  0.00  0.00    -0.050 Br
ENDBRANCH   5   7
BRANCH   6  14
ATOM     14  C   UNL     1      -0.777  -4.395 -14.883  0.00  0.00    +0.051 A 
ATOM     15  C   UNL     1      -0.142  -3.641 -15.861  0.00  0.00    +0.026 A 
ATOM     16  C   UNL     1       1.133  -3.977 -16.270  0.00  0.00    +0.002 A 
ATOM     17  C   UNL     1       1.778  -5.063 -15.707  0.00  0.00    +0.000 A 
ATOM     18  C   UNL     1       1.149  -5.815 -14.733  0.00  0.00    +0.002 A 
ATOM     19  C   UNL     1      -0.124  -5.481 -14.315  0.00  0.00    +0.026 A 
ENDBRANCH   6  14
ENDBRANCH   1   2
BRANCH   1  20
ATOM     20  C   UNL     1      -2.521  -2.787 -10.534  0.00  0.00    +0.174 C 
BRANCH  20  22
ATOM     21  N   UNL     1      -2.367  -2.092  -8.165  0.00  0.00    -0.206 N 
ATOM     22  C   UNL     1      -1.737  -2.532  -9.272  0.00  0.00    +0.242 C 
ATOM     23  O   UNL     1      -0.539  -2.722  -9.253  0.00  0.00    -0.273 OA
ATOM     24  H   UNL     1      -3.325  -1.940  -8.180  0.00  0.00    +0.177 HD
BRANCH  21  26
ATOM     25  C   UNL     1      -2.245  -1.431  -5.926  0.00  0.00    +0.138 C 
ATOM     26  N   UNL     1      -1.639  -1.855  -6.992  0.00  0.00    -0.188 NA
BRANCH  25  30
ATOM     27  C   UNL     1      -0.037  -0.712  -2.371  0.00  0.00    +0.030 A 
ATOM     28  C   UNL     1      -1.411  -0.493  -2.391  0.00  0.00    +0.024 A 
ATOM     29  C   UNL     1      -2.130  -0.725  -3.542  0.00  0.00    +0.011 A 
ATOM     30  C   UNL     1      -1.479  -1.181  -4.692  0.00  0.00    -0.005 A 
ATOM     31  C   UNL     1      -0.099  -1.400  -4.668  0.00  0.00    +0.011 A 
ATOM     32  C   UNL     1       0.615  -1.161  -3.514  0.00  0.00    +0.024 A 
BRANCH  27  33
ATOM     33  N   UNL     1       0.688  -0.476  -1.203  0.00  0.00    -0.330 N 
BRANCH  33  35
ATOM     34  C   UNL     1      -0.019   1.526   0.010  0.00  0.00    +0.024 C 
ATOM     35  C   UNL     1       0.002  -0.004   0.002  0.00  0.00    +0.102 C 
ENDBRANCH  33  35
BRANCH  33  36
ATOM     36  C   UNL     1       2.135  -0.701  -1.182  0.00  0.00    +0.102 C 
ATOM     37  C   UNL     1       2.421  -2.145  -0.763  0.00  0.00    +0.024 C 
ENDBRANCH  33  36
ENDBRANCH  27  33
ENDBRANCH  25  30
ENDBRANCH  21  26
ENDBRANCH  20  22
ENDBRANCH   1  20
TORSDOF 10
