REMARK  Name = ZINC36007165
REMARK  6 active torsions:
REMARK  status: ('A' for Active; 'I' for Inactive)
REMARK    1  A    between atoms: C_3  and  C_6
REMARK    2  A    between atoms: C_6  and  C_8
REMARK    3  A    between atoms: C_6  and  N_15
REMARK    4  A    between atoms: C_16  and  C_18
REMARK    5  A    between atoms: C_18  and  N_19
REMARK    6  A    between atoms: C_25  and  C_27
REMARK                            x       y       z     vdW  Elec       q    Type
REMARK                         _______ _______ _______ _____ _____    ______ ____
ROOT
ATOM      1  N   UNL     1       4.569   1.019  -0.924  0.00  0.00    -0.303 N 
ATOM      2  C   UNL     1       4.598   1.290  -2.244  0.00  0.00    +0.228 C 
ATOM      3  O   UNL     1       3.955   2.218  -2.687  0.00  0.00    -0.274 OA
ATOM      4  H   UNL     1       5.084   0.277  -0.570  0.00  0.00    +0.150 HD
ENDROOT
BRANCH   1   5
ATOM      5  C   UNL     1       3.761   1.845  -0.024  0.00  0.00    +0.140 C 
BRANCH   5   6
ATOM      6  C   UNL     1       4.330   1.776   1.369  0.00  0.00    -0.022 A 
ATOM      7  C   UNL     1       4.808   0.576   1.861  0.00  0.00    +0.008 A 
ATOM      8  C   UNL     1       5.331   0.511   3.139  0.00  0.00    +0.038 A 
ATOM      9  C   UNL     1       5.377   1.649   3.926  0.00  0.00    +0.123 A 
ATOM     10  C   UNL     1       4.899   2.851   3.432  0.00  0.00    +0.038 A 
ATOM     11  C   UNL     1       4.381   2.914   2.152  0.00  0.00    +0.008 A 
ATOM     12  F   UNL     1       5.888   1.587   5.175  0.00  0.00    -0.205 F 
ENDBRANCH   5   6
BRANCH   5  15
ATOM     13  C   UNL     1      -0.016   1.351   0.009  0.00  0.00    +0.008 A 
ATOM     14  C   UNL     1       1.183   2.038   0.002  0.00  0.00    +0.013 A 
ATOM     15  C   UNL     1       2.343   1.336  -0.013  0.00  0.00    +0.014 A 
ATOM     16  S   UNL     1       1.754  -0.349  -0.017  0.00  0.00    -0.099 S 
ATOM     17  C   UNL     1       0.002  -0.004   0.002  0.00  0.00    +0.045 A 
ENDBRANCH   5  15
ENDBRANCH   1   5
BRANCH   2  18
ATOM     18  C   UNL     1       5.430   0.441  -3.170  0.00  0.00    +0.180 C 
BRANCH  18  19
ATOM     19  N   UNL     1       5.293   0.937  -4.546  0.00  0.00    -0.291 NA
ATOM     20  C   UNL     1       5.871   2.281  -4.680  0.00  0.00    +0.104 C 
ATOM     21  C   UNL     1       5.549   2.835  -6.072  0.00  0.00    +0.123 C 
ATOM     22  N   UNL     1       6.000   1.861  -7.078  0.00  0.00    -0.297 N 
ATOM     23  C   UNL     1       5.573   0.461  -6.931  0.00  0.00    +0.123 C 
ATOM     24  C   UNL     1       5.894   0.001  -5.505  0.00  0.00    +0.104 C 
ATOM     25  C   UNL     1       6.784   2.241  -8.107  0.00  0.00    +0.245 C 
ATOM     26  O   UNL     1       7.126   3.400  -8.212  0.00  0.00    -0.273 OA
BRANCH  25  27
ATOM     27  C   UNL     1       7.234   1.226  -9.126  0.00  0.00    +0.204 C 
ATOM     28  C   UNL     1       8.159   0.187  -8.457  0.00  0.00    +0.043 C 
ATOM     29  C   UNL     1       9.237  -0.047  -9.550  0.00  0.00    +0.031 C 
ATOM     30  C   UNL     1       9.330   1.366 -10.179  0.00  0.00    +0.161 C 
ATOM     31  O   UNL     1       7.985   1.875 -10.159  0.00  0.00    -0.367 OA
ENDBRANCH  25  27
ENDBRANCH  18  19
ENDBRANCH   2  18
TORSDOF 6
