REMARK  Name = ZINC40151149
REMARK  4 active torsions:
REMARK  status: ('A' for Active; 'I' for Inactive)
REMARK    1  A    between atoms: C_8  and  C_13
REMARK    2  A    between atoms: C_13  and  C_23
REMARK    3  A    between atoms: N_14  and  N_15
REMARK    4  A    between atoms: N_15  and  C_16
REMARK                            x       y       z     vdW  Elec       q    Type
REMARK                         _______ _______ _______ _____ _____    ______ ____
ROOT
ATOM      1  C   UNL     1      -0.575   0.993  -0.008  0.00  0.00    +0.002 A 
ATOM      2  C   UNL     1       0.533   1.824   0.223  0.00  0.00    +0.002 A 
ATOM      3  C   UNL     1       1.794   1.348   0.342  0.00  0.00    +0.025 A 
ATOM      4  C   UNL     1       2.049  -0.038   0.236  0.00  0.00    +0.057 A 
ATOM      5  N   UNL     1       3.282  -0.498   0.353  0.00  0.00    -0.282 N 
ATOM      6  C   UNL     1       3.555  -1.802   0.259  0.00  0.00    +0.246 C 
ATOM      7  O   UNL     1       4.697  -2.201   0.370  0.00  0.00    -0.273 OA
ATOM      8  C   UNL     1       2.425  -2.774   0.011  0.00  0.00    +0.220 C 
ATOM      9  N   UNL     1       1.063  -2.230  -0.115  0.00  0.00    -0.367 N 
ATOM     10  C   UNL     1       0.897  -0.943  -0.007  0.00  0.00    +0.058 A 
ATOM     11  C   UNL     1      -0.444  -0.347  -0.125  0.00  0.00    +0.027 A 
ATOM     12  H   UNL     1       4.007   0.126   0.512  0.00  0.00    +0.155 HD
ATOM     13  H   UNL     1       0.307  -2.816  -0.275  0.00  0.00    +0.161 HD
ENDROOT
BRANCH   8  14
ATOM     14  C   UNL     1       2.736  -3.527  -1.257  0.00  0.00    +0.129 C 
ATOM     15  N   UNL     1       3.353  -4.679  -1.198  0.00  0.00    -0.181 NA
BRANCH  15  16
ATOM     16  N   UNL     1       3.804  -5.112  -0.069  0.00  0.00    -0.237 N 
ATOM     17  H   UNL     1       3.633  -4.613   0.745  0.00  0.00    +0.174 HD
BRANCH  16  18
ATOM     18  C   UNL     1       4.537  -6.299  -0.020  0.00  0.00    +0.048 A 
ATOM     19  C   UNL     1       4.787  -7.012  -1.186  0.00  0.00    +0.026 A 
ATOM     20  C   UNL     1       5.513  -8.185  -1.134  0.00  0.00    +0.017 A 
ATOM     21  C   UNL     1       5.992  -8.651   0.078  0.00  0.00    +0.018 A 
ATOM     22  C   UNL     1       5.744  -7.944   1.242  0.00  0.00    +0.017 A 
ATOM     23  C   UNL     1       5.023  -6.767   1.195  0.00  0.00    +0.026 A 
ATOM     24 BR   UNL     1       6.986 -10.259   0.145  0.00  0.00    -0.050 Br
ENDBRANCH  16  18
ENDBRANCH  15  16
BRANCH  14  25
ATOM     25  C   UNL     1       2.363  -2.992  -2.504  0.00  0.00    +0.278 C 
ATOM     26  O   UNL     1       2.614  -3.599  -3.526  0.00  0.00    -0.294 OA
ENDBRANCH  14  25
ENDBRANCH   8  14
TORSDOF 4
