REMARK  Name = ZINC13576890
REMARK  7 active torsions:
REMARK  status: ('A' for Active; 'I' for Inactive)
REMARK    1  A    between atoms: C_1  and  C_2
REMARK    2  A    between atoms: C_5  and  N_8
REMARK    3  A    between atoms: C_9  and  C_11
REMARK    4  A    between atoms: C_11  and  N_12
REMARK    5  A    between atoms: N_20  and  N_21
REMARK    6  A    between atoms: C_22  and  C_24
REMARK    7  A    between atoms: C_26  and  N_31
REMARK                            x       y       z     vdW  Elec       q    Type
REMARK                         _______ _______ _______ _____ _____    ______ ____
ROOT
ATOM      1  N   UNL     1       0.465  -7.292   2.371  0.00  0.00    -0.257 N 
ATOM      2  C   UNL     1       1.649  -7.638   3.012  0.00  0.00    +0.047 A 
ATOM      3  C   UNL     1       2.964  -7.681   2.562  0.00  0.00    +0.024 A 
ATOM      4  C   UNL     1       3.976  -8.068   3.418  0.00  0.00    +0.002 A 
ATOM      5  C   UNL     1       3.698  -8.416   4.729  0.00  0.00    +0.001 A 
ATOM      6  C   UNL     1       2.398  -8.380   5.193  0.00  0.00    +0.012 A 
ATOM      7  C   UNL     1       1.371  -7.992   4.339  0.00  0.00    +0.028 A 
ATOM      8  C   UNL     1      -0.093  -7.847   4.513  0.00  0.00    +0.153 C 
ATOM      9  N   UNL     1      -0.794  -8.072   5.597  0.00  0.00    -0.174 NA
ATOM     10  C   UNL     1      -0.589  -7.390   3.200  0.00  0.00    +0.272 C 
ATOM     11  O   UNL     1      -1.748  -7.146   2.917  0.00  0.00    -0.268 OA
ENDROOT
BRANCH   9  12
ATOM     12  N   UNL     1      -0.144  -8.352   6.806  0.00  0.00    -0.202 N 
ATOM     13  C   UNL     1      -0.862  -8.696   7.894  0.00  0.00    +0.267 C 
ATOM     14  O   UNL     1      -2.074  -8.764   7.826  0.00  0.00    -0.268 OA
ATOM     15  H   UNL     1       0.823  -8.298   6.861  0.00  0.00    +0.178 HD
BRANCH  13  16
ATOM     16  C   UNL     1      -0.178  -8.990   9.166  0.00  0.00    +0.087 A 
ATOM     17  C   UNL     1       1.215  -8.908   9.251  0.00  0.00    +0.049 A 
ATOM     18  C   UNL     1       1.848  -9.184  10.443  0.00  0.00    +0.127 A 
ATOM     19  C   UNL     1       1.110  -9.543  11.560  0.00  0.00    +0.036 A 
ATOM     20  C   UNL     1      -0.266  -9.629  11.490  0.00  0.00    +0.054 A 
ATOM     21  C   UNL     1      -0.921  -9.348  10.300  0.00  0.00    +0.191 A 
ATOM     22  O   UNL     1      -2.273  -9.426  10.232  0.00  0.00    -0.287 OA
BRANCH  18  23
ATOM     23  N   UNL     1       3.323  -9.097  10.531  0.00  0.00    +0.056 N 
ATOM     24  O   UNL     1       3.969  -8.784   9.559  0.00  0.00    -0.126 OA
ATOM     25  O   UNL     1       3.881  -9.339  11.576  0.00  0.00    -0.126 OA
ENDBRANCH  18  23
ENDBRANCH  13  16
ENDBRANCH   9  12
BRANCH   1  26
ATOM     26  C   UNL     1       0.377  -6.867   0.972  0.00  0.00    +0.210 C 
BRANCH  26  28
ATOM     27  N   UNL     1       0.487  -4.753  -0.307  0.00  0.00    -0.284 N 
ATOM     28  C   UNL     1       0.534  -5.371   0.890  0.00  0.00    +0.235 C 
ATOM     29  O   UNL     1       0.702  -4.723   1.901  0.00  0.00    -0.274 OA
ATOM     30  H   UNL     1       0.277  -5.260  -1.107  0.00  0.00    +0.155 HD
BRANCH  27  35
ATOM     31  C   UNL     1       1.523   0.813  -0.669  0.00  0.00    +0.044 C 
ATOM     32  C   UNL     1       1.248  -0.666  -0.573  0.00  0.00    -0.050 A 
ATOM     33  C   UNL     1       1.923  -1.434   0.358  0.00  0.00    +0.005 A 
ATOM     34  C   UNL     1       1.673  -2.789   0.449  0.00  0.00    +0.023 A 
ATOM     35  C   UNL     1       0.742  -3.380  -0.396  0.00  0.00    +0.033 A 
ATOM     36  C   UNL     1       0.066  -2.606  -1.330  0.00  0.00    +0.023 A 
ATOM     37  C   UNL     1       0.318  -1.250  -1.413  0.00  0.00    +0.005 A 
ENDBRANCH  27  35
ENDBRANCH  26  28
ENDBRANCH   1  26
TORSDOF 6
