REMARK  Name = ZINC39147131
REMARK  8 active torsions:
REMARK  status: ('A' for Active; 'I' for Inactive)
REMARK    1  A    between atoms: C_1  and  C_2
REMARK    2  A    between atoms: C_2  and  C_3
REMARK    3  A    between atoms: C_7  and  N_10
REMARK    4  A    between atoms: C_11  and  C_13
REMARK    5  A    between atoms: N_18  and  C_20
REMARK    6  A    between atoms: C_20  and  C_21
REMARK    7  A    between atoms: C_21  and  C_22
REMARK    8  A    between atoms: C_25  and  C_31
REMARK                            x       y       z     vdW  Elec       q    Type
REMARK                         _______ _______ _______ _____ _____    ______ ____
ROOT
ATOM      1  C   UNL     1      -2.606  -2.761   5.499  0.00  0.00    +0.101 C 
ATOM      2  C   UNL     1      -2.954  -4.267   5.478  0.00  0.00    +0.110 C 
ATOM      3  C   UNL     1      -3.265  -4.597   6.921  0.00  0.00    +0.216 C 
ATOM      4  O   UNL     1      -3.312  -5.717   7.383  0.00  0.00    -0.276 OA
ATOM      5  N   UNL     1      -3.482  -3.467   7.617  0.00  0.00    -0.300 N 
ATOM      6  C   UNL     1      -3.358  -2.281   6.761  0.00  0.00    +0.121 C 
ENDROOT
BRANCH   1   8
ATOM      7  N   UNL     1      -2.639  -2.398   3.053  0.00  0.00    -0.290 N 
ATOM      8  C   UNL     1      -3.126  -2.069   4.266  0.00  0.00    +0.220 C 
ATOM      9  O   UNL     1      -3.983  -1.216   4.364  0.00  0.00    -0.275 OA
ATOM     10  H   UNL     1      -1.954  -3.080   2.974  0.00  0.00    +0.151 HD
BRANCH   7  14
ATOM     11  C   UNL     1      -1.433  -0.534   0.013  0.00  0.00    +0.129 C 
ATOM     12  N   UNL     1      -1.464  -2.027   0.109  0.00  0.00    -0.241 NA
ATOM     13  N   UNL     1      -2.757  -2.467   0.621  0.00  0.00    -0.227 NA
ATOM     14  C   UNL     1      -3.145  -1.726   1.853  0.00  0.00    +0.216 C 
ATOM     15  S   UNL     1      -2.296  -0.111   1.589  0.00  0.00    -0.102 S 
ATOM     16  H   UNL     1      -0.711  -2.368   0.687  0.00  0.00    +0.142 HD
ATOM     17  H   UNL     1      -3.471  -2.391  -0.087  0.00  0.00    +0.143 HD
BRANCH  11  19
ATOM     18  C   UNL     1      -0.019   1.526   0.010  0.00  0.00    +0.006 C 
ATOM     19  C   UNL     1       0.002  -0.004   0.002  0.00  0.00    +0.027 C 
ENDBRANCH  11  19
ENDBRANCH   7  14
ENDBRANCH   1   8
BRANCH   5  20
ATOM     20  C   UNL     1      -3.801  -3.425   9.046  0.00  0.00    +0.112 C 
BRANCH  20  21
ATOM     21  C   UNL     1      -2.505  -3.332   9.855  0.00  0.00    +0.056 C 
BRANCH  21  22
ATOM     22  C   UNL     1      -2.833  -3.288  11.325  0.00  0.00    -0.021 A 
ATOM     23  C   UNL     1      -3.067  -4.440  12.200  0.00  0.00    +0.003 A 
ATOM     24  C   UNL     1      -3.069  -5.822  12.005  0.00  0.00    +0.013 A 
ATOM     25  C   UNL     1      -3.332  -6.655  13.056  0.00  0.00    -0.050 A 
ATOM     26  C   UNL     1      -3.597  -6.138  14.316  0.00  0.00    +0.005 A 
ATOM     27  C   UNL     1      -3.600  -4.777  14.531  0.00  0.00    +0.026 A 
ATOM     28  C   UNL     1      -3.335  -3.910  13.476  0.00  0.00    +0.047 A 
ATOM     29  N   UNL     1      -3.266  -2.539  13.369  0.00  0.00    -0.360 N 
ATOM     30  C   UNL     1      -2.960  -2.187  12.083  0.00  0.00    +0.087 A 
ATOM     31  C   UNL     1      -3.334  -8.147  12.845  0.00  0.00    +0.044 C 
ATOM     32  H   UNL     1      -3.408  -1.916  14.098  0.00  0.00    +0.165 HD
ENDBRANCH  21  22
ENDBRANCH  20  21
ENDBRANCH   5  20
TORSDOF 6
