REMARK  Name = ZINC05519243
REMARK  4 active torsions:
REMARK  status: ('A' for Active; 'I' for Inactive)
REMARK    1  A    between atoms: C_10  and  N_11
REMARK    2  A    between atoms: N_16  and  N_17
REMARK    3  A    between atoms: C_18  and  C_19
REMARK    4  A    between atoms: C_22  and  O_25
REMARK                            x       y       z     vdW  Elec       q    Type
REMARK                         _______ _______ _______ _____ _____    ______ ____
ROOT
ATOM      1  N   UNL     1       3.612   3.270   0.190  0.00  0.00    -0.179 N 
ATOM      2  C   UNL     1       4.818   3.825  -0.118  0.00  0.00    +0.259 A 
ATOM      3  N   UNL     1       5.665   2.833  -0.288  0.00  0.00    -0.090 NA
ATOM      4  N   UNL     1       5.079   1.705  -0.110  0.00  0.00    -0.021 NA
ATOM      5  N   UNL     1       3.838   1.882   0.189  0.00  0.00    -0.038 NA
ATOM      6  N   UNL     1       5.097   5.175  -0.231  0.00  0.00    -0.204 N 
ATOM      7  H   UNL     1       4.380   5.826  -0.169  0.00  0.00    +0.177 HD
ENDROOT
BRANCH   1  17
ATOM      8  C   UNL     1      -1.155   2.775  -1.398  0.00  0.00    +0.001 A 
ATOM      9  C   UNL     1       0.029   2.095  -1.673  0.00  0.00    +0.001 A 
ATOM     10  C   UNL     1       1.200   2.458  -1.081  0.00  0.00    +0.010 A 
ATOM     11  C   UNL     1       1.217   3.531  -0.175  0.00  0.00    +0.008 A 
ATOM     12  C   UNL     1       0.012   4.220   0.110  0.00  0.00    -0.016 A 
ATOM     13  C   UNL     1      -1.177   3.816  -0.520  0.00  0.00    +0.008 A 
ATOM     14  C   UNL     1       0.028   5.294   1.015  0.00  0.00    +0.008 A 
ATOM     15  C   UNL     1       1.195   5.664   1.611  0.00  0.00    +0.003 A 
ATOM     16  C   UNL     1       2.384   4.995   1.338  0.00  0.00    +0.028 A 
ATOM     17  C   UNL     1       2.411   3.936   0.457  0.00  0.00    +0.078 A 
ENDBRANCH   1  17
BRANCH   6  18
ATOM     18  N   UNL     1       6.415   5.603  -0.435  0.00  0.00    -0.187 NA
ATOM     19  C   UNL     1       6.678   6.870  -0.541  0.00  0.00    +0.138 C 
BRANCH  19  20
ATOM     20  C   UNL     1       8.065   7.320  -0.755  0.00  0.00    -0.005 A 
ATOM     21  C   UNL     1       9.100   6.385  -0.838  0.00  0.00    +0.013 A 
ATOM     22  C   UNL     1      10.395   6.810  -1.044  0.00  0.00    +0.046 A 
ATOM     23  C   UNL     1      10.673   8.166  -1.157  0.00  0.00    +0.117 A 
ATOM     24  C   UNL     1       9.649   9.099  -1.069  0.00  0.00    +0.046 A 
ATOM     25  C   UNL     1       8.350   8.683  -0.869  0.00  0.00    +0.013 A 
BRANCH  23  26
ATOM     26  O   UNL     1      11.952   8.581  -1.355  0.00  0.00    -0.507 OA
ATOM     27  H   UNL     1      12.441   8.749  -0.538  0.00  0.00    +0.292 HD
ENDBRANCH  23  26
ENDBRANCH  19  20
ENDBRANCH   6  18
TORSDOF 4
