REMARK  Name = ZINC19796578
REMARK  8 active torsions:
REMARK  status: ('A' for Active; 'I' for Inactive)
REMARK    1  A    between atoms: C_1  and  C_2
REMARK    2  A    between atoms: C_2  and  C_3
REMARK    3  A    between atoms: C_3  and  C_4
REMARK    4  A    between atoms: C_3  and  C_6
REMARK    5  A    between atoms: C_4  and  C_5
REMARK    6  A    between atoms: C_11  and  C_15
REMARK    7  A    between atoms: C_12  and  C_14
REMARK    8  A    between atoms: C_24  and  C_27
REMARK                            x       y       z     vdW  Elec       q    Type
REMARK                         _______ _______ _______ _____ _____    ______ ____
ROOT
ATOM      1  C   UNL     1      -6.864   0.339   1.488  0.00  0.00    +0.222 C 
ATOM      2  O   UNL     1      -6.628  -0.609   0.769  0.00  0.00    -0.275 OA
ATOM      3  N   UNL     1      -5.876   1.193   1.823  0.00  0.00    -0.264 N 
ATOM      4  C   UNL     1      -4.588   0.987   1.345  0.00  0.00    +0.165 A 
ATOM      5  N   UNL     1      -3.495   1.695   1.559  0.00  0.00    -0.224 NA
ATOM      6  C   UNL     1      -2.337   1.354   1.014  0.00  0.00    +0.083 A 
ATOM      7  C   UNL     1      -2.269   0.240   0.224  0.00  0.00    +0.016 A 
ATOM      8  S   UNL     1      -3.969  -0.311   0.284  0.00  0.00    -0.057 S 
ATOM      9  C   UNL     1      -1.089  -0.357  -0.498  0.00  0.00    +0.054 C 
ATOM     10  H   UNL     1      -6.090   2.052   2.475  0.00  0.00    +0.157 HD
ENDROOT
BRANCH   6  11
ATOM     11  C   UNL     1      -1.123   2.169   1.263  0.00  0.00    +0.003 A 
ATOM     12  C   UNL     1       0.122   1.552   1.373  0.00  0.00    +0.014 A 
ATOM     13  C   UNL     1       1.254   2.309   1.599  0.00  0.00    +0.048 A 
ATOM     14  C   UNL     1       1.155   3.685   1.723  0.00  0.00    +0.143 A 
ATOM     15  C   UNL     1      -0.089   4.308   1.621  0.00  0.00    +0.076 A 
ATOM     16  C   UNL     1      -1.226   3.554   1.393  0.00  0.00    +0.037 A 
ATOM     17  N   UNL     1      -0.171   5.702   1.751  0.00  0.00    -0.280 N 
ATOM     18  C   UNL     1       0.959   6.436   1.655  0.00  0.00    +0.258 C 
ATOM     19  O   UNL     1       0.916   7.640   1.795  0.00  0.00    -0.271 OA
ATOM     20  C   UNL     1       2.272   5.752   1.375  0.00  0.00    +0.256 C 
ATOM     21  O   UNL     1       2.264   4.441   1.945  0.00  0.00    -0.478 OA
ATOM     22  C   UNL     1       3.412   6.567   1.989  0.00  0.00    +0.062 C 
ATOM     23  H   UNL     1      -1.145   6.181   1.929  0.00  0.00    +0.155 HD
ENDBRANCH   6  11
BRANCH   1  24
ATOM     24  C   UNL     1      -8.261   0.562   2.006  0.00  0.00    +0.075 C 
BRANCH  24  26
ATOM     25  C   UNL     1      -8.812   1.944  -0.001  0.00  0.00    +0.004 C 
ATOM     26  C   UNL     1      -8.771   1.923   1.529  0.00  0.00    +0.009 C 
ENDBRANCH  24  26
BRANCH  24  27
ATOM     27  C   UNL     1      -9.182  -0.541   1.481  0.00  0.00    +0.009 C 
ATOM     28  C   UNL     1     -10.568  -0.391   2.111  0.00  0.00    +0.004 C 
ENDBRANCH  24  27
ENDBRANCH   1  24
TORSDOF 4
