REMARK  Name = ZINC08637262
REMARK  9 active torsions:
REMARK  status: ('A' for Active; 'I' for Inactive)
REMARK    1  A    between atoms: C_1  and  C_2
REMARK    2  A    between atoms: C_2  and  N_3
REMARK    3  A    between atoms: C_4  and  C_13
REMARK    4  A    between atoms: C_7  and  S_8
REMARK    5  A    between atoms: S_8  and  C_9
REMARK    6  A    between atoms: C_9  and  C_10
REMARK    7  A    between atoms: C_14  and  N_33
REMARK    8  A    between atoms: C_16  and  C_28
REMARK    9  A    between atoms: C_18  and  C_22
REMARK                            x       y       z     vdW  Elec       q    Type
REMARK                         _______ _______ _______ _____ _____    ______ ____
ROOT
ATOM      1  C   UNL     1       1.317   0.179   6.079  0.00  0.00    +0.196 A 
ATOM      2  C   UNL     1       2.353  -0.540   6.604  0.00  0.00    +0.084 A 
ATOM      3  C   UNL     1       2.217  -0.438   8.056  0.00  0.00    +0.072 A 
ATOM      4  C   UNL     1       2.950  -0.940   9.152  0.00  0.00    +0.033 A 
ATOM      5  C   UNL     1       2.499  -0.628  10.436  0.00  0.00    +0.040 A 
ATOM      6  C   UNL     1       1.357   0.157  10.578  0.00  0.00    +0.076 A 
ATOM      7  N   UNL     1       0.692   0.613   9.525  0.00  0.00    -0.212 NA
ATOM      8  C   UNL     1       1.073   0.349   8.284  0.00  0.00    +0.231 A 
ATOM      9  O   UNL     1       0.570   0.693   7.081  0.00  0.00    -0.432 OA
ENDROOT
BRANCH   6  10
ATOM     10  C   UNL     1       0.874   0.491  11.939  0.00  0.00    +0.000 A 
ATOM     11  C   UNL     1       1.555   0.018  13.060  0.00  0.00    +0.010 A 
ATOM     12  C   UNL     1       1.103   0.337  14.324  0.00  0.00    +0.001 A 
ATOM     13  C   UNL     1      -0.029   1.115  14.481  0.00  0.00    +0.000 A 
ATOM     14  C   UNL     1      -0.712   1.584  13.373  0.00  0.00    +0.001 A 
ATOM     15  C   UNL     1      -0.267   1.276  12.104  0.00  0.00    +0.010 A 
ENDBRANCH   6  10
BRANCH   1  17
ATOM     16  N   UNL     1       0.012   1.073   4.089  0.00  0.00    -0.300 N 
ATOM     17  C   UNL     1       1.051   0.359   4.647  0.00  0.00    +0.202 A 
ATOM     18  N   UNL     1       1.760  -0.129   3.651  0.00  0.00    -0.125 NA
ATOM     19  N   UNL     1       1.240   0.221   2.530  0.00  0.00    -0.122 NA
ATOM     20  C   UNL     1       0.174   0.961   2.735  0.00  0.00    +0.192 A 
BRANCH  16  22
ATOM     21  C   UNL     1      -2.229   0.865   5.046  0.00  0.00    +0.027 C 
ATOM     22  C   UNL     1      -1.044   1.801   4.798  0.00  0.00    +0.122 C 
ENDBRANCH  16  22
BRANCH  20  23
ATOM     23  S   UNL     1      -0.860   1.669   1.497  0.00  0.00    -0.077 S 
BRANCH  23  24
ATOM     24  C   UNL     1      -0.013   1.086   0.008  0.00  0.00    +0.172 C 
BRANCH  24  25
ATOM     25  C   UNL     1      -0.742   1.585  -1.213  0.00  0.00    +0.221 C 
ATOM     26  O   UNL     1      -1.736   2.268  -1.088  0.00  0.00    -0.275 OA
ATOM     27  N   UNL     1      -0.288   1.272  -2.443  0.00  0.00    -0.329 N 
ATOM     28  H   UNL     1       0.507   0.726  -2.543  0.00  0.00    +0.145 HD
ATOM     29  H   UNL     1      -0.758   1.594  -3.229  0.00  0.00    +0.145 HD
ENDBRANCH  24  25
ENDBRANCH  23  24
ENDBRANCH  20  23
ENDBRANCH   1  17
BRANCH   4  30
ATOM     30  C   UNL     1       4.153  -1.768   8.948  0.00  0.00    +0.136 A 
ATOM     31  C   UNL     1       5.366  -1.572   9.534  0.00  0.00    +0.050 A 
ATOM     32  C   UNL     1       6.214  -2.591   9.059  0.00  0.00    +0.042 A 
ATOM     33  C   UNL     1       5.489  -3.346   8.210  0.00  0.00    +0.196 A 
ATOM     34  O   UNL     1       4.244  -2.846   8.145  0.00  0.00    -0.463 OA
ENDBRANCH   4  30
BRANCH   2  35
ATOM     35  N   UNL     1       3.343  -1.230   5.896  0.00  0.00    -0.354 N 
ATOM     36  H   UNL     1       3.337  -1.228   4.926  0.00  0.00    +0.142 HD
ATOM     37  H   UNL     1       4.036  -1.711   6.376  0.00  0.00    +0.142 HD
ENDBRANCH   2  35
TORSDOF 8
