REMARK  Name = ZINC04525920
REMARK  3 active torsions:
REMARK  status: ('A' for Active; 'I' for Inactive)
REMARK    1  A    between atoms: C_4  and  C_7
REMARK    2  A    between atoms: C_7  and  N_45
REMARK    3  A    between atoms: C_18  and  C_21
REMARK                            x       y       z     vdW  Elec       q    Type
REMARK                         _______ _______ _______ _____ _____    ______ ____
ROOT
ATOM      1  C   UNL     1       3.981   5.141  -1.441  0.00  0.00    -0.073 C 
ATOM      2  C   UNL     1       4.630   5.111  -2.828  0.00  0.00    +0.018 C 
ATOM      3  C   UNL     1       3.534   5.298  -3.871  0.00  0.00    -0.027 A 
ATOM      4  C   UNL     1       2.239   5.096  -3.534  0.00  0.00    -0.021 A 
ATOM      5  S   UNL     1       1.325   5.418  -5.018  0.00  0.00    -0.080 S 
ATOM      6  C   UNL     1       2.630   5.807  -6.056  0.00  0.00    +0.080 A 
ATOM      7  C   UNL     1       3.772   5.692  -5.248  0.00  0.00    +0.068 A 
ATOM      8  C   UNL     1       5.085   5.970  -5.875  0.00  0.00    +0.248 C 
ATOM      9  O   UNL     1       6.127   5.773  -5.278  0.00  0.00    -0.270 OA
ATOM     10  N   UNL     1       5.077   6.451  -7.136  0.00  0.00    -0.289 N 
ATOM     11  C   UNL     1       3.873   6.922  -7.811  0.00  0.00    +0.197 C 
ATOM     12  N   UNL     1       2.686   6.162  -7.379  0.00  0.00    -0.316 N 
ATOM     13  C   UNL     1       1.722   4.688  -2.190  0.00  0.00    -0.035 C 
ATOM     14  H   UNL     1       5.918   6.486  -7.619  0.00  0.00    +0.151 HD
ATOM     15  H   UNL     1       1.980   5.924  -8.000  0.00  0.00    +0.149 HD
ATOM     16  N   UNL     1       2.867   4.172  -1.401  0.00  0.00    +0.386 N 
ATOM     17  H   UNL     1       3.181   3.284  -1.809  0.00  0.00    -0.081 HD
ENDROOT
BRANCH  11  18
ATOM     18  C   UNL     1       3.667   8.381  -7.493  0.00  0.00    +0.028 A 
ATOM     19  C   UNL     1       4.591   9.333  -7.215  0.00  0.00    +0.015 A 
ATOM     20  C   UNL     1       4.168  10.622  -6.954  0.00  0.00    +0.008 A 
ATOM     21  C   UNL     1       2.841  10.895  -6.973  0.00  0.00    +0.045 A 
ATOM     22  S   UNL     1       2.142   9.302  -7.377  0.00  0.00    -0.098 S 
ENDBRANCH  11  18
BRANCH  16  23
ATOM     23  C   UNL     1       2.451   3.937  -0.001  0.00  0.00    -0.043 C 
BRANCH  23  27
ATOM     24  C   UNL     1      -1.219   1.751   0.017  0.00  0.00    +0.000 A 
ATOM     25  C   UNL     1      -0.013   1.076   0.008  0.00  0.00    +0.000 A 
ATOM     26  C   UNL     1       1.175   1.783   0.000  0.00  0.00    +0.002 A 
ATOM     27  C   UNL     1       1.156   3.165   0.008  0.00  0.00    -0.064 A 
ATOM     28  C   UNL     1      -0.050   3.840   0.022  0.00  0.00    +0.002 A 
ATOM     29  C   UNL     1      -1.238   3.133   0.030  0.00  0.00    +0.000 A 
ENDBRANCH  23  27
ENDBRANCH  16  23
TORSDOF 3
