REMARK  Name = ZINC38686094
REMARK  13 active torsions:
REMARK  status: ('A' for Active; 'I' for Inactive)
REMARK    1  A    between atoms: C_1  and  C_2
REMARK    2  A    between atoms: C_2  and  C_3
REMARK    3  A    between atoms: C_3  and  C_4
REMARK    4  A    between atoms: C_4  and  C_5
REMARK    5  A    between atoms: C_5  and  O_6
REMARK    6  A    between atoms: O_6  and  C_7
REMARK    7  A    between atoms: C_12  and  C_13
REMARK    8  A    between atoms: C_18  and  O_27
REMARK    9  A    between atoms: C_22  and  N_26
REMARK   10  A    between atoms: C_23  and  C_24
REMARK   11  A    between atoms: O_27  and  C_28
REMARK   12  A    between atoms: C_28  and  C_30
REMARK   13  A    between atoms: C_35  and  N_36
REMARK                            x       y       z     vdW  Elec       q    Type
REMARK                         _______ _______ _______ _____ _____    ______ ____
ROOT
ATOM      1  C   UNL     1       1.323  -6.867  -2.405  0.00  0.00    +0.101 C 
ATOM      2  C   UNL     1       2.418  -7.705  -1.801  0.00  0.00    +0.008 A 
ATOM      3  C   UNL     1       3.351  -7.109  -0.970  0.00  0.00    +0.012 A 
ATOM      4  C   UNL     1       4.363  -7.862  -0.408  0.00  0.00    +0.047 A 
ATOM      5  C   UNL     1       4.447  -9.221  -0.674  0.00  0.00    +0.135 A 
ATOM      6  C   UNL     1       3.515  -9.821  -1.505  0.00  0.00    +0.093 A 
ATOM      7  C   UNL     1       2.498  -9.062  -2.071  0.00  0.00    +0.138 A 
ATOM      8  O   UNL     1       1.593  -9.664  -2.882  0.00  0.00    -0.441 OA
ATOM      9  C   UNL     1       0.411  -9.072  -3.123  0.00  0.00    +0.199 C 
ATOM     10  C   UNL     1       0.220  -7.751  -2.917  0.00  0.00    +0.098 C 
ENDROOT
BRANCH   1  16
ATOM     11  C   UNL     1       1.833  -4.672  -3.503  0.00  0.00    +0.125 A 
ATOM     12  C   UNL     1       2.356  -3.929  -4.552  0.00  0.00    +0.046 A 
ATOM     13  C   UNL     1       2.921  -4.570  -5.637  0.00  0.00    +0.004 A 
ATOM     14  C   UNL     1       2.966  -5.952  -5.678  0.00  0.00    +0.001 A 
ATOM     15  C   UNL     1       2.445  -6.694  -4.635  0.00  0.00    +0.008 A 
ATOM     16  C   UNL     1       1.884  -6.057  -3.545  0.00  0.00    +0.007 A 
BRANCH  11  17
ATOM     17  O   UNL     1       1.277  -4.043  -2.434  0.00  0.00    -0.492 OA
BRANCH  17  18
ATOM     18  C   UNL     1       1.259  -2.614  -2.459  0.00  0.00    +0.229 C 
BRANCH  18  19
ATOM     19  C   UNL     1       0.600  -2.090  -1.182  0.00  0.00    +0.041 C 
BRANCH  19  20
ATOM     20  C   UNL     1       0.580  -0.561  -1.208  0.00  0.00    +0.003 C 
BRANCH  20  22
ATOM     21  C   UNL     1      -0.099   1.493   0.042  0.00  0.00    +0.004 C 
ATOM     22  C   UNL     1      -0.079  -0.037   0.069  0.00  0.00    -0.003 C 
ENDBRANCH  20  22
ENDBRANCH  19  20
ENDBRANCH  18  19
ENDBRANCH  17  18
ENDBRANCH  11  17
ENDBRANCH   1  16
BRANCH   9  23
ATOM     23  N   UNL     1      -0.630  -9.832  -3.593  0.00  0.00    -0.328 N 
ATOM     24  H   UNL     1      -0.507 -10.782  -3.747  0.00  0.00    +0.145 HD
ATOM     25  H   UNL     1      -1.490  -9.420  -3.772  0.00  0.00    +0.145 HD
ENDBRANCH   9  23
BRANCH  10  26
ATOM     26  C   UNL     1      -1.064  -7.181  -3.194  0.00  0.00    +0.101 C 
ATOM     27  N   UNL     1      -2.083  -6.729  -3.414  0.00  0.00    -0.191 NA
ENDBRANCH  10  26
BRANCH   5  28
ATOM     28  O   UNL     1       5.443  -9.963  -0.121  0.00  0.00    -0.422 OA
BRANCH  28  29
ATOM     29  C   UNL     1       5.442 -10.126   1.216  0.00  0.00    +0.347 C 
ATOM     30  O   UNL     1       4.520  -9.697   1.880  0.00  0.00    -0.244 OA
BRANCH  29  31
ATOM     31  C   UNL     1       6.563 -10.826   1.875  0.00  0.00    +0.089 A 
ATOM     32  C   UNL     1       6.922 -12.113   1.469  0.00  0.00    +0.017 A 
ATOM     33  C   UNL     1       7.970 -12.761   2.089  0.00  0.00    +0.001 A 
ATOM     34  C   UNL     1       8.665 -12.139   3.111  0.00  0.00    +0.002 A 
ATOM     35  C   UNL     1       8.315 -10.864   3.518  0.00  0.00    +0.033 A 
ATOM     36  C   UNL     1       7.273 -10.202   2.903  0.00  0.00    +0.140 A 
BRANCH  36  37
ATOM     37  N   UNL     1       6.904  -8.835   3.335  0.00  0.00    +0.057 N 
ATOM     38  O   UNL     1       7.432  -8.345   4.306  0.00  0.00    -0.126 OA
ATOM     39  O   UNL     1       6.074  -8.209   2.718  0.00  0.00    -0.126 OA
ENDBRANCH  36  37
ENDBRANCH  29  31
ENDBRANCH  28  29
ENDBRANCH   5  28
TORSDOF 12
