REMARK  Name = ZINC15869507
REMARK  5 active torsions:
REMARK  status: ('A' for Active; 'I' for Inactive)
REMARK    1  A    between atoms: C_1  and  C_2
REMARK    2  A    between atoms: C_2  and  C_19
REMARK    3  A    between atoms: N_3  and  N_4
REMARK    4  A    between atoms: C_5  and  C_7
REMARK    5  A    between atoms: C_9  and  C_13
REMARK                            x       y       z     vdW  Elec       q    Type
REMARK                         _______ _______ _______ _____ _____    ______ ____
ROOT
ATOM      1  N   UNL     1      -1.058  -1.642   1.339  0.00  0.00    -0.201 N 
ATOM      2  C   UNL     1      -1.563  -1.995   2.537  0.00  0.00    +0.283 C 
ATOM      3  O   UNL     1      -1.452  -1.246   3.489  0.00  0.00    -0.267 OA
ATOM      4  H   UNL     1      -1.146  -2.239   0.580  0.00  0.00    +0.178 HD
ENDROOT
BRANCH   2   5
ATOM      5  C   UNL     1      -2.252  -3.292   2.695  0.00  0.00    +0.149 A 
ATOM      6  C   UNL     1      -2.832  -3.792   3.881  0.00  0.00    +0.063 A 
ATOM      7  C   UNL     1      -3.348  -5.016   3.546  0.00  0.00    +0.073 A 
ATOM      8  N   UNL     1      -3.073  -5.210   2.223  0.00  0.00    -0.276 N 
ATOM      9  H   UNL     1      -3.321  -5.997   1.712  0.00  0.00    +0.189 HD
ATOM     10  N   UNL     1      -2.442  -4.195   1.752  0.00  0.00    -0.169 NA
BRANCH   7  11
ATOM     11  C   UNL     1      -4.060  -5.945   4.441  0.00  0.00    +0.038 A 
ATOM     12  C   UNL     1      -4.589  -7.178   4.162  0.00  0.00    +0.019 A 
ATOM     13  C   UNL     1      -5.218  -7.872   5.173  0.00  0.00    +0.028 A 
ATOM     14  C   UNL     1      -5.294  -7.315   6.410  0.00  0.00    +0.079 A 
ATOM     15  S   UNL     1      -4.451  -5.759   6.173  0.00  0.00    -0.075 S 
ATOM     16 CL   UNL     1      -6.020  -7.955   7.852  0.00  0.00    -0.076 Cl
ENDBRANCH   7  11
ENDBRANCH   2   5
BRANCH   1  19
ATOM     17  C   UNL     1       0.825   1.222  -0.127  0.00  0.00    +0.068 C 
ATOM     18  C   UNL     1      -0.011  -0.024   0.015  0.00  0.00    +0.063 C 
ATOM     19  N   UNL     1      -0.405  -0.411   1.189  0.00  0.00    -0.184 NA
BRANCH  18  20
ATOM     20  C   UNL     1      -0.383  -0.802  -1.181  0.00  0.00    +0.000 A 
ATOM     21  C   UNL     1      -1.650  -1.390  -1.292  0.00  0.00    +0.029 A 
ATOM     22  C   UNL     1      -1.955  -2.109  -2.429  0.00  0.00    +0.111 A 
ATOM     23  N   UNL     1      -1.074  -2.246  -3.401  0.00  0.00    -0.263 NA
ATOM     24  C   UNL     1       0.130  -1.709  -3.338  0.00  0.00    +0.111 A 
ATOM     25  C   UNL     1       0.518  -0.969  -2.241  0.00  0.00    +0.029 A 
ENDBRANCH  18  20
ENDBRANCH   1  19
TORSDOF 4
