REMARK  Name = ZINC02302329
REMARK  10 active torsions:
REMARK  status: ('A' for Active; 'I' for Inactive)
REMARK    1  A    between atoms: C_1  and  C_2
REMARK    2  A    between atoms: C_2  and  C_3
REMARK    3  A    between atoms: C_2  and  C_4
REMARK    4  A    between atoms: C_2  and  O_5
REMARK    5  A    between atoms: O_5  and  C_6
REMARK    6  A    between atoms: C_6  and  C_8
REMARK    7  A    between atoms: C_12  and  N_13
REMARK    8  A    between atoms: C_14  and  C_15
REMARK    9  A    between atoms: C_20  and  O_21
REMARK   10  A    between atoms: C_27  and  N_50
REMARK                            x       y       z     vdW  Elec       q    Type
REMARK                         _______ _______ _______ _____ _____    ______ ____
ROOT
ATOM      1  C   UNL     1      -2.589  -4.150   0.005  0.00  0.00    +0.095 A 
ATOM      2  C   UNL     1      -3.907  -4.638   0.016  0.00  0.00    -0.025 A 
ATOM      3  C   UNL     1      -4.904  -3.718   0.030  0.00  0.00    -0.021 A 
ATOM      4  S   UNL     1      -4.071  -2.155   0.039  0.00  0.00    -0.075 S 
ATOM      5  C   UNL     1      -2.391  -2.763   0.011  0.00  0.00    +0.115 A 
ATOM      6  C   UNL     1      -6.375  -3.992   0.041  0.00  0.00    -0.036 C 
ATOM      7  C   UNL     1      -5.706  -6.278   0.476  0.00  0.00    -0.074 C 
ATOM      8  C   UNL     1      -4.255  -6.125   0.016  0.00  0.00    +0.018 C 
ATOM      9  C   UNL     1      -7.992  -5.789  -0.157  0.00  0.00    -0.096 C 
ATOM     10  N   UNL     1      -6.575  -5.410  -0.344  0.00  0.00    +0.381 N 
ATOM     11  H   UNL     1      -6.326  -5.526  -1.334  0.00  0.00    -0.082 HD
ENDROOT
BRANCH   1  12
ATOM     12  C   UNL     1      -1.449  -5.071  -0.011  0.00  0.00    +0.343 C 
ATOM     13  O   UNL     1      -0.965  -5.458   1.036  0.00  0.00    -0.245 OA
BRANCH  12  14
ATOM     14  O   UNL     1      -0.936  -5.488  -1.186  0.00  0.00    -0.455 OA
BRANCH  14  16
ATOM     15  C   UNL     1      -0.218  -7.671  -0.382  0.00  0.00    +0.055 C 
ATOM     16  C   UNL     1       0.193  -6.399  -1.126  0.00  0.00    +0.106 C 
ATOM     17  C   UNL     1       0.633  -6.760  -2.547  0.00  0.00    +0.055 C 
ATOM     18  C   UNL     1       1.352  -5.727  -0.388  0.00  0.00    +0.055 C 
ENDBRANCH  14  16
ENDBRANCH  12  14
ENDBRANCH   1  12
BRANCH   5  19
ATOM     19  N   UNL     1      -1.234  -2.068   0.003  0.00  0.00    -0.247 NA
ATOM     20  C   UNL     1      -1.256  -0.760   0.011  0.00  0.00    +0.123 C 
BRANCH  20  21
ATOM     21  C   UNL     1       0.002  -0.004   0.002  0.00  0.00    +0.037 A 
ATOM     22  C   UNL     1      -0.017   1.396   0.010  0.00  0.00    +0.028 A 
ATOM     23  C   UNL     1       1.168   2.099   0.002  0.00  0.00    +0.020 A 
ATOM     24  C   UNL     1       2.381   1.426  -0.013  0.00  0.00    +0.039 A 
ATOM     25  C   UNL     1       2.415   0.044  -0.021  0.00  0.00    +0.084 A 
ATOM     26  C   UNL     1       1.232  -0.680  -0.013  0.00  0.00    +0.144 A 
ATOM     27 CL   UNL     1       3.939  -0.785  -0.040  0.00  0.00    -0.080 Cl
ATOM     28 BR   UNL     1       1.141   3.990   0.013  0.00  0.00    -0.050 Br
BRANCH  26  29
ATOM     29  O   UNL     1       1.264  -2.037  -0.021  0.00  0.00    -0.505 OA
ATOM     30  H   UNL     1       1.265  -2.426  -0.907  0.00  0.00    +0.292 HD
ENDBRANCH  26  29
ENDBRANCH  20  21
ENDBRANCH   5  19
TORSDOF 6
