REMARK  Name = ZINC04660974
REMARK  4 active torsions:
REMARK  status: ('A' for Active; 'I' for Inactive)
REMARK    1  A    between atoms: C_1  and  C_2
REMARK    2  A    between atoms: C_2  and  O_3
REMARK    3  A    between atoms: O_3  and  C_4
REMARK    4  A    between atoms: C_14  and  C_16
REMARK                            x       y       z     vdW  Elec       q    Type
REMARK                         _______ _______ _______ _____ _____    ______ ____
ROOT
ATOM      1  C   UNL     1       2.404  -0.002  -0.021  0.00  0.00    +0.147 A 
ATOM      2  C   UNL     1       2.374   1.373  -0.012  0.00  0.00    +0.048 A 
ATOM      3  C   UNL     1       1.175   2.070   0.002  0.00  0.00    +0.005 A 
ATOM      4  C   UNL     1      -0.017   1.369   0.010  0.00  0.00    +0.017 A 
ATOM      5  C   UNL     1       0.002  -0.004   0.002  0.00  0.00    +0.044 A 
ATOM      6  C   UNL     1       1.201  -0.751  -0.013  0.00  0.00    +0.122 A 
ATOM      7  N   UNL     1       1.054  -2.094  -0.019  0.00  0.00    -0.221 NA
ATOM      8  C   UNL     1      -0.123  -2.675  -0.011  0.00  0.00    +0.166 A 
ATOM      9  S   UNL     1      -1.237  -1.278   0.007  0.00  0.00    -0.052 S 
ATOM     10  N   UNL     1      -0.425  -4.028  -0.015  0.00  0.00    -0.264 N 
ATOM     11  C   UNL     1      -1.710  -4.431  -0.005  0.00  0.00    +0.225 C 
ATOM     12  O   UNL     1      -2.603  -3.611   0.007  0.00  0.00    -0.275 OA
ATOM     13  H   UNL     1       0.290  -4.684  -0.026  0.00  0.00    +0.157 HD
ENDROOT
BRANCH  11  14
ATOM     14  C   UNL     1      -2.039  -5.902  -0.010  0.00  0.00    +0.048 C 
ATOM     15  C   UNL     1      -1.434  -6.564   1.230  0.00  0.00    +0.019 C 
ATOM     16  C   UNL     1      -1.767  -8.057   1.225  0.00  0.00    -0.009 C 
ATOM     17  C   UNL     1      -3.286  -8.241   1.238  0.00  0.00    +0.007 C 
ATOM     18  C   UNL     1      -3.891  -7.579  -0.002  0.00  0.00    -0.009 C 
ATOM     19  C   UNL     1      -3.558  -6.086   0.003  0.00  0.00    +0.019 C 
ATOM     20  C   UNL     1      -3.310  -8.227  -1.260  0.00  0.00    +0.007 C 
ATOM     21  C   UNL     1      -1.791  -8.043  -1.273  0.00  0.00    -0.009 C 
ATOM     22  C   UNL     1      -1.186  -8.705  -0.033  0.00  0.00    +0.007 C 
ATOM     23  C   UNL     1      -1.458  -6.550  -1.268  0.00  0.00    +0.019 C 
ENDBRANCH  11  14
BRANCH   1  24
ATOM     24  O   UNL     1       3.600  -0.649  -0.035  0.00  0.00    -0.490 OA
BRANCH  24  26
ATOM     25  C   UNL     1       6.015  -0.736  -0.059  0.00  0.00    +0.048 C 
ATOM     26  C   UNL     1       4.776   0.162  -0.042  0.00  0.00    +0.226 C 
ENDBRANCH  24  26
ENDBRANCH   1  24
TORSDOF 3
