REMARK  Name = ZINC35232554
REMARK  6 active torsions:
REMARK  status: ('A' for Active; 'I' for Inactive)
REMARK    1  A    between atoms: C_4  and  C_7
REMARK    2  A    between atoms: C_10  and  C_12
REMARK    3  A    between atoms: N_14  and  C_15
REMARK    4  A    between atoms: C_18  and  N_30
REMARK    5  A    between atoms: C_19  and  C_21
REMARK    6  A    between atoms: N_23  and  C_24
REMARK                            x       y       z     vdW  Elec       q    Type
REMARK                         _______ _______ _______ _____ _____    ______ ____
ROOT
ATOM      1  C   UNL     1       2.273  -2.675   4.330  0.00  0.00    +0.034 A 
ATOM      2  C   UNL     1       1.070  -1.976   4.283  0.00  0.00    +0.025 A 
ATOM      3  C   UNL     1       0.179  -2.050   5.332  0.00  0.00    +0.026 A 
ATOM      4  C   UNL     1       0.476  -2.825   6.447  0.00  0.00    +0.042 A 
ATOM      5  C   UNL     1       1.687  -3.533   6.501  0.00  0.00    +0.059 A 
ATOM      6  C   UNL     1       2.581  -3.455   5.430  0.00  0.00    +0.038 A 
ENDROOT
BRANCH   4   7
ATOM      7  N   UNL     1      -0.423  -2.899   7.505  0.00  0.00    -0.325 N 
ATOM      8  C   UNL     1      -0.367  -1.946   8.625  0.00  0.00    +0.110 C 
ATOM      9  C   UNL     1      -1.659  -1.131   8.614  0.00  0.00    +0.054 C 
ATOM     10  C   UNL     1      -2.858  -2.030   8.468  0.00  0.00    -0.041 A 
ATOM     11  C   UNL     1      -4.093  -1.527   8.860  0.00  0.00    +0.004 A 
ATOM     12  C   UNL     1      -5.233  -2.295   8.743  0.00  0.00    +0.000 A 
ATOM     13  C   UNL     1      -5.149  -3.576   8.230  0.00  0.00    +0.000 A 
ATOM     14  C   UNL     1      -3.925  -4.080   7.843  0.00  0.00    +0.005 A 
ATOM     15  C   UNL     1      -2.776  -3.310   7.966  0.00  0.00    -0.027 A 
ATOM     16  C   UNL     1      -1.469  -3.926   7.546  0.00  0.00    +0.140 C 
ENDBRANCH   4   7
BRANCH   1  19
ATOM     17  C   UNL     1       3.304  -1.437   2.577  0.00  0.00    +0.221 C 
ATOM     18  O   UNL     1       2.586  -0.495   2.837  0.00  0.00    -0.275 OA
ATOM     19  N   UNL     1       3.172  -2.593   3.258  0.00  0.00    -0.285 N 
ATOM     20  H   UNL     1       3.699  -3.367   3.006  0.00  0.00    +0.155 HD
BRANCH  17  23
ATOM     21  C   UNL     1       4.444   0.020   0.756  0.00  0.00    +0.032 C 
ATOM     22  C   UNL     1       3.849  -1.199   0.049  0.00  0.00    +0.022 C 
ATOM     23  C   UNL     1       4.344  -1.317   1.493  0.00  0.00    +0.083 C 
BRANCH  21  27
ATOM     24  C   UNL     1       1.757   3.127   1.928  0.00  0.00    +0.000 A 
ATOM     25  C   UNL     1       3.123   3.321   2.026  0.00  0.00    +0.000 A 
ATOM     26  C   UNL     1       3.992   2.315   1.647  0.00  0.00    +0.004 A 
ATOM     27  C   UNL     1       3.496   1.116   1.170  0.00  0.00    -0.044 A 
ATOM     28  C   UNL     1       2.131   0.922   1.073  0.00  0.00    +0.004 A 
ATOM     29  C   UNL     1       1.262   1.928   1.451  0.00  0.00    +0.000 A 
ENDBRANCH  21  27
ENDBRANCH  17  23
ENDBRANCH   1  19
BRANCH   5  30
ATOM     30  C   UNL     1       2.010  -4.358   7.679  0.00  0.00    +0.246 C 
ATOM     31  O   UNL     1       1.228  -4.426   8.607  0.00  0.00    -0.270 OA
ATOM     32  N   UNL     1       3.174  -5.036   7.728  0.00  0.00    -0.308 N 
ATOM     33  H   UNL     1       3.798  -4.982   6.987  0.00  0.00    +0.149 HD
BRANCH  32  34
ATOM     34  C   UNL     1       3.496  -5.856   8.898  0.00  0.00    +0.073 C 
ATOM     35  C   UNL     1       4.132  -4.977   9.977  0.00  0.00    +0.022 C 
ATOM     36  C   UNL     1       4.469  -5.833  11.200  0.00  0.00    +0.002 C 
ATOM     37  C   UNL     1       5.449  -6.936  10.796  0.00  0.00    +0.000 C 
ATOM     38  C   UNL     1       4.813  -7.815   9.717  0.00  0.00    +0.002 C 
ATOM     39  C   UNL     1       4.476  -6.959   8.495  0.00  0.00    +0.022 C 
ENDBRANCH  32  34
ENDBRANCH   5  30
TORSDOF 6
