REMARK  Name = ZINC39431882
REMARK  6 active torsions:
REMARK  status: ('A' for Active; 'I' for Inactive)
REMARK    1  A    between atoms: C_1  and  C_2
REMARK    2  A    between atoms: C_2  and  C_4
REMARK    3  A    between atoms: C_2  and  S_16
REMARK    4  A    between atoms: S_16  and  C_17
REMARK    5  A    between atoms: C_21  and  C_30
REMARK    6  A    between atoms: N_23  and  C_24
REMARK                            x       y       z     vdW  Elec       q    Type
REMARK                         _______ _______ _______ _____ _____    ______ ____
ROOT
ATOM      1  C   UNL     1       2.582  -0.025   1.234  0.00  0.00    +0.138 C 
ATOM      2  N   UNL     1       2.607   1.434   1.071  0.00  0.00    -0.198 NA
ATOM      3  N   UNL     1       3.342   1.766   0.136  0.00  0.00    -0.201 NA
ATOM      4  C   UNL     1       3.949   0.593  -0.506  0.00  0.00    +0.147 C 
ATOM      5  N   UNL     1       3.138  -0.560  -0.035  0.00  0.00    +0.424 N 
ATOM      6  H   UNL     1       2.401  -0.776  -0.690  0.00  0.00    -0.073 HD
ENDROOT
BRANCH   5   7
ATOM      7  C   UNL     1       3.983  -1.736   0.214  0.00  0.00    -0.061 C 
ATOM      8  C   UNL     1       4.564  -2.236  -1.110  0.00  0.00    -0.015 C 
ATOM      9  C   UNL     1       5.444  -3.460  -0.851  0.00  0.00    -0.002 C 
ATOM     10  C   UNL     1       4.602  -4.567  -0.214  0.00  0.00    -0.000 C 
ATOM     11  C   UNL     1       4.021  -4.068   1.111  0.00  0.00    -0.002 C 
ATOM     12  C   UNL     1       3.141  -2.843   0.852  0.00  0.00    -0.015 C 
ENDBRANCH   5   7
BRANCH   4  13
ATOM     13  C   UNL     1       3.871   0.716  -2.006  0.00  0.00    +0.114 A 
ATOM     14  C   UNL     1       3.912   1.865  -2.704  0.00  0.00    +0.045 A 
ATOM     15  C   UNL     1       3.808   1.517  -4.071  0.00  0.00    +0.041 A 
ATOM     16  C   UNL     1       3.710   0.177  -4.126  0.00  0.00    +0.195 A 
ATOM     17  O   UNL     1       3.754  -0.304  -2.873  0.00  0.00    -0.468 OA
ENDBRANCH   4  13
BRANCH   1  18
ATOM     18  S   UNL     1       0.879  -0.605   1.472  0.00  0.00    -0.140 S 
BRANCH  18  20
ATOM     19  C   UNL     1      -0.019   1.526   0.010  0.00  0.00    +0.027 C 
ATOM     20  C   UNL     1       0.002  -0.004   0.002  0.00  0.00    +0.109 C 
BRANCH  20  21
ATOM     21  C   UNL     1      -1.412  -0.526   0.013  0.00  0.00    +0.123 A 
ATOM     22  N   UNL     1      -2.261  -0.104  -0.960  0.00  0.00    -0.309 N 
ATOM     23  H   UNL     1      -1.948   0.517  -1.636  0.00  0.00    +0.170 HD
ATOM     24  C   UNL     1      -3.541  -0.543  -0.995  0.00  0.00    +0.259 A 
ATOM     25  O   UNL     1      -4.313  -0.175  -1.861  0.00  0.00    -0.267 OA
ATOM     26  C   UNL     1      -3.963  -1.484   0.054  0.00  0.00    +0.065 A 
ATOM     27  C   UNL     1      -5.258  -1.995   0.109  0.00  0.00    +0.015 A 
ATOM     28  C   UNL     1      -5.599  -2.873   1.114  0.00  0.00    +0.001 A 
ATOM     29  C   UNL     1      -4.665  -3.251   2.069  0.00  0.00    +0.002 A 
ATOM     30  C   UNL     1      -3.380  -2.757   2.034  0.00  0.00    +0.028 A 
ATOM     31  C   UNL     1      -3.010  -1.866   1.024  0.00  0.00    +0.078 A 
ATOM     32  N   UNL     1      -1.754  -1.359   0.948  0.00  0.00    -0.233 NA
ENDBRANCH  20  21
ENDBRANCH  18  20
ENDBRANCH   1  18
TORSDOF 5
