REMARK  Name = ZINC23452164
REMARK  10 active torsions:
REMARK  status: ('A' for Active; 'I' for Inactive)
REMARK    1  A    between atoms: C_1  and  C_2
REMARK    2  A    between atoms: C_2  and  N_3
REMARK    3  A    between atoms: N_3  and  C_4
REMARK    4  A    between atoms: C_4  and  C_5
REMARK    5  A    between atoms: C_6  and  O_8
REMARK    6  A    between atoms: O_8  and  C_9
REMARK    7  A    between atoms: C_14  and  N_15
REMARK    8  A    between atoms: C_16  and  C_18
REMARK    9  A    between atoms: N_24  and  C_25
REMARK   10  A    between atoms: C_25  and  C_26
REMARK                            x       y       z     vdW  Elec       q    Type
REMARK                         _______ _______ _______ _____ _____    ______ ____
ROOT
ATOM      1  C   UNL     1      -0.254   4.032   1.118  0.00  0.00    +0.155 A 
ATOM      2  C   UNL     1      -1.478   3.451   0.803  0.00  0.00    +0.050 A 
ATOM      3  C   UNL     1      -1.540   2.339  -0.009  0.00  0.00    +0.030 A 
ATOM      4  C   UNL     1      -0.373   1.790  -0.532  0.00  0.00    +0.051 A 
ATOM      5  C   UNL     1       0.867   2.371  -0.218  0.00  0.00    +0.025 A 
ATOM      6  C   UNL     1       0.922   3.499   0.612  0.00  0.00    +0.086 A 
ATOM      7  C   UNL     1       1.879   1.567  -0.909  0.00  0.00    +0.029 A 
ATOM      8  C   UNL     1       1.226   0.596  -1.567  0.00  0.00    +0.087 A 
ATOM      9  N   UNL     1      -0.121   0.712  -1.353  0.00  0.00    -0.342 N 
ENDROOT
BRANCH   6  10
ATOM     10  N   UNL     1       2.155   4.082   0.928  0.00  0.00    -0.279 N 
ATOM     11  C   UNL     1       2.318   5.415   0.813  0.00  0.00    +0.269 C 
ATOM     12  O   UNL     1       1.373   6.120   0.527  0.00  0.00    -0.271 OA
ATOM     13  H   UNL     1       2.989   3.453   1.271  0.00  0.00    +0.155 HD
BRANCH  11  14
ATOM     14  C   UNL     1       3.676   6.030   1.038  0.00  0.00    +0.267 C 
ATOM     15 CL   UNL     1       3.571   7.816   0.814  0.00  0.00    -0.074 Cl
ATOM     16 CL   UNL     1       4.228   5.667   2.716  0.00  0.00    -0.074 Cl
ATOM     17 CL   UNL     1       4.851   5.343  -0.144  0.00  0.00    -0.074 Cl
ENDBRANCH  11  14
ENDBRANCH   6  10
BRANCH   1  18
ATOM     18  O   UNL     1      -0.210   5.127   1.925  0.00  0.00    -0.409 OA
BRANCH  18  20
ATOM     19  N   UNL     1       0.155   5.958   4.074  0.00  0.00    -0.268 N 
ATOM     20  C   UNL     1       0.149   4.927   3.207  0.00  0.00    +0.408 C 
ATOM     21  O   UNL     1       0.468   3.816   3.583  0.00  0.00    -0.226 OA
BRANCH  19  23
ATOM     22  C   UNL     1      -1.737   7.485   3.805  0.00  0.00    +0.024 C 
ATOM     23  C   UNL     1      -0.230   7.298   3.622  0.00  0.00    +0.108 C 
ENDBRANCH  19  23
BRANCH  19  24
ATOM     24  C   UNL     1       0.546   5.741   5.469  0.00  0.00    +0.108 C 
ATOM     25  C   UNL     1       2.055   5.944   5.613  0.00  0.00    +0.024 C 
ENDBRANCH  19  24
ENDBRANCH  18  20
ENDBRANCH   1  18
BRANCH   9  26
ATOM     26  C   UNL     1      -1.142  -0.176  -1.915  0.00  0.00    +0.158 C 
BRANCH  26  27
ATOM     27  C   UNL     1      -1.462  -1.264  -0.922  0.00  0.00    -0.009 A 
ATOM     28  C   UNL     1      -2.506  -1.101  -0.030  0.00  0.00    +0.007 A 
ATOM     29  C   UNL     1      -2.800  -2.098   0.880  0.00  0.00    +0.000 A 
ATOM     30  C   UNL     1      -2.050  -3.260   0.899  0.00  0.00    +0.001 A 
ATOM     31  C   UNL     1      -1.007  -3.425   0.007  0.00  0.00    +0.020 A 
ATOM     32  C   UNL     1      -0.716  -2.428  -0.908  0.00  0.00    +0.046 A 
ATOM     33 CL   UNL     1       0.590  -2.637  -2.033  0.00  0.00    -0.083 Cl
ENDBRANCH  26  27
ENDBRANCH   9  26
TORSDOF 8
