REMARK  Name = ZINC63131330
REMARK  5 active torsions:
REMARK  status: ('A' for Active; 'I' for Inactive)
REMARK    1  A    between atoms: C_1  and  S_2
REMARK    2  A    between atoms: S_2  and  C_5
REMARK    3  A    between atoms: C_8  and  S_11
REMARK    4  A    between atoms: S_11  and  C_12
REMARK    5  A    between atoms: C_18  and  C_20
REMARK                            x       y       z     vdW  Elec       q    Type
REMARK                         _______ _______ _______ _____ _____    ______ ____
ROOT
ATOM      1  C   UNL     1       0.831  -0.970  -1.375  0.00  0.00    +0.088 A 
ATOM      2  C   UNL     1       1.075   0.116  -2.196  0.00  0.00    +0.028 A 
ATOM      3  C   UNL     1       1.740  -0.058  -3.393  0.00  0.00    +0.016 A 
ATOM      4  C   UNL     1       2.164  -1.326  -3.773  0.00  0.00    +0.008 A 
ATOM      5  C   UNL     1       1.917  -2.415  -2.945  0.00  0.00    +0.016 A 
ATOM      6  C   UNL     1       1.256  -2.232  -1.747  0.00  0.00    +0.028 A 
ENDROOT
BRANCH   1   8
ATOM      7  C   UNL     1       1.286  -0.407   1.366  0.00  0.00    +0.200 C 
ATOM      8  S   UNL     1      -0.019  -0.744   0.152  0.00  0.00    -0.006 S 
ATOM      9  O   UNL     1      -0.624  -2.001   0.420  0.00  0.00    -0.170 OA
ATOM     10  O   UNL     1      -0.816   0.416  -0.045  0.00  0.00    -0.170 OA
ENDBRANCH   1   8
BRANCH   4  11
ATOM     11  S   UNL     1       3.013  -1.553  -5.300  0.00  0.00    -0.121 S 
BRANCH  11  12
ATOM     12  C   UNL     1       4.767  -1.504  -4.840  0.00  0.00    +0.068 C 
ATOM     13  C   UNL     1       5.129  -0.096  -4.361  0.00  0.00    +0.016 C 
ATOM     14  C   UNL     1       6.609  -0.055  -3.973  0.00  0.00    +0.001 C 
ATOM     15  C   UNL     1       7.465  -0.417  -5.187  0.00  0.00    +0.001 C 
ATOM     16  C   UNL     1       7.103  -1.825  -5.665  0.00  0.00    +0.019 C 
ATOM     17  C   UNL     1       5.624  -1.866  -6.054  0.00  0.00    +0.105 C 
BRANCH  17  18
ATOM     18  C   UNL     1       5.275  -3.220  -6.514  0.00  0.00    +0.067 C 
ATOM     19  N   UNL     1       5.006  -4.265  -6.869  0.00  0.00    -0.196 NA
ENDBRANCH  17  18
ENDBRANCH  11  12
ENDBRANCH   4  11
TORSDOF 4
