REMARK  Name = ZINC32895506
REMARK  8 active torsions:
REMARK  status: ('A' for Active; 'I' for Inactive)
REMARK    1  A    between atoms: C_1  and  C_2
REMARK    2  A    between atoms: C_2  and  C_3
REMARK    3  A    between atoms: C_2  and  C_4
REMARK    4  A    between atoms: C_8  and  N_10
REMARK    5  A    between atoms: N_10  and  S_11
REMARK    6  A    between atoms: S_11  and  C_14
REMARK    7  A    between atoms: C_19  and  O_20
REMARK    8  A    between atoms: O_20  and  C_21
REMARK                            x       y       z     vdW  Elec       q    Type
REMARK                         _______ _______ _______ _____ _____    ______ ____
ROOT
ATOM      1  S   UNL     1      -3.038   0.078  -0.037  0.00  0.00    +0.076 S 
ATOM      2  O   UNL     1      -3.087   1.015  -1.105  0.00  0.00    -0.150 OA
ATOM      3  O   UNL     1      -3.991  -0.966   0.104  0.00  0.00    -0.150 OA
ENDROOT
BRANCH   1   4
ATOM      4  C   UNL     1      -1.455  -0.692  -0.116  0.00  0.00    +0.150 A 
ATOM      5  C   UNL     1      -0.564  -0.341  -1.113  0.00  0.00    +0.032 A 
ATOM      6  C   UNL     1       0.676  -0.949  -1.178  0.00  0.00    +0.002 A 
ATOM      7  C   UNL     1       1.030  -1.905  -0.244  0.00  0.00    +0.004 A 
ATOM      8  C   UNL     1       0.145  -2.256   0.757  0.00  0.00    +0.048 A 
ATOM      9  C   UNL     1      -1.100  -1.647   0.825  0.00  0.00    +0.157 A 
BRANCH   9  10
ATOM     10  O   UNL     1      -1.972  -1.990   1.809  0.00  0.00    -0.404 OA
BRANCH  10  11
ATOM     11  C   UNL     1      -1.590  -3.066   2.668  0.00  0.00    +0.575 C 
ATOM     12  F   UNL     1      -0.454  -2.700   3.397  0.00  0.00    -0.133 F 
ATOM     13  F   UNL     1      -2.638  -3.352   3.551  0.00  0.00    -0.133 F 
ATOM     14  F   UNL     1      -1.306  -4.199   1.899  0.00  0.00    -0.133 F 
ENDBRANCH  10  11
ENDBRANCH   9  10
ENDBRANCH   1   4
BRANCH   1  15
ATOM     15  N   UNL     1      -3.086   0.956   1.366  0.00  0.00    -0.216 N 
ATOM     16  H   UNL     1      -3.828   0.715   2.140  0.00  0.00    +0.174 HD
BRANCH  15  21
ATOM     17  C   UNL     1      -0.619   3.158   2.969  0.00  0.00    -0.043 A 
ATOM     18  C   UNL     1      -0.396   4.079   1.961  0.00  0.00    +0.004 A 
ATOM     19  C   UNL     1      -1.065   3.965   0.756  0.00  0.00    +0.002 A 
ATOM     20  C   UNL     1      -1.958   2.930   0.555  0.00  0.00    +0.024 A 
ATOM     21  C   UNL     1      -2.183   2.003   1.565  0.00  0.00    +0.048 A 
ATOM     22  C   UNL     1      -1.513   2.124   2.776  0.00  0.00    +0.028 A 
BRANCH  17  24
ATOM     23  C   UNL     1       1.620   3.209   4.034  0.00  0.00    +0.012 C 
ATOM     24  C   UNL     1       0.112   3.287   4.281  0.00  0.00    +0.013 C 
ATOM     25  C   UNL     1      -0.231   4.631   4.926  0.00  0.00    +0.012 C 
ENDBRANCH  17  24
ENDBRANCH  15  21
ENDBRANCH   1  15
TORSDOF 6
