REMARK  Name = ZINC07324762
REMARK  4 active torsions:
REMARK  status: ('A' for Active; 'I' for Inactive)
REMARK    1  A    between atoms: C_1  and  C_2
REMARK    2  A    between atoms: C_3  and  C_12
REMARK    3  A    between atoms: C_9  and  C_10
REMARK    4  A    between atoms: C_13  and  C_14
REMARK                            x       y       z     vdW  Elec       q    Type
REMARK                         _______ _______ _______ _____ _____    ______ ____
ROOT
ATOM      1  C   UNL     1       3.631   3.283  -0.027  0.00  0.00    +0.047 C 
ATOM      2  C   UNL     1       3.635   1.776  -0.029  0.00  0.00    -0.001 A 
ATOM      3  C   UNL     1       2.427   1.044  -0.015  0.00  0.00    +0.088 A 
ATOM      4  N   UNL     1       2.435  -0.271  -0.023  0.00  0.00    -0.171 NA
ATOM      5  N   UNL     1       3.508  -0.971  -0.037  0.00  0.00    -0.242 N 
ATOM      6  H   UNL     1       3.437  -1.969  -0.042  0.00  0.00    +0.192 HD
ATOM      7  C   UNL     1       4.730  -0.404  -0.045  0.00  0.00    +0.282 A 
ATOM      8  O   UNL     1       5.735  -1.094  -0.058  0.00  0.00    -0.265 OA
ATOM      9  C   UNL     1       4.829   1.062  -0.038  0.00  0.00    +0.122 A 
ENDROOT
BRANCH   9  10
ATOM     10  C   UNL     1       6.097   1.726  -0.046  0.00  0.00    +0.105 C 
ATOM     11  N   UNL     1       7.104   2.253  -0.053  0.00  0.00    -0.191 NA
ENDBRANCH   9  10
BRANCH   3  12
ATOM     12  C   UNL     1       1.141   1.763   0.001  0.00  0.00    +0.030 C 
ATOM     13  C   UNL     1      -0.013   1.076   0.008  0.00  0.00    +0.010 C 
BRANCH  13  14
ATOM     14  C   UNL     1      -1.299   1.795   0.018  0.00  0.00    -0.024 A 
ATOM     15  C   UNL     1      -1.321   3.193   0.031  0.00  0.00    +0.008 A 
ATOM     16  C   UNL     1      -2.529   3.860   0.035  0.00  0.00    +0.002 A 
ATOM     17  C   UNL     1      -3.716   3.149   0.037  0.00  0.00    +0.020 A 
ATOM     18  C   UNL     1      -3.702   1.765   0.029  0.00  0.00    +0.042 A 
ATOM     19  C   UNL     1      -2.501   1.084   0.020  0.00  0.00    +0.028 A 
ATOM     20 CL   UNL     1      -5.197   0.883   0.032  0.00  0.00    -0.084 Cl
ENDBRANCH  13  14
ENDBRANCH   3  12
TORSDOF 3
