REMARK  Name = ZINC20837392
REMARK  7 active torsions:
REMARK  status: ('A' for Active; 'I' for Inactive)
REMARK    1  A    between atoms: C_1  and  C_2
REMARK    2  A    between atoms: C_2  and  C_21
REMARK    3  A    between atoms: N_3  and  N_4
REMARK    4  A    between atoms: C_7  and  S_10
REMARK    5  A    between atoms: S_10  and  C_11
REMARK    6  A    between atoms: C_11  and  C_12
REMARK    7  A    between atoms: N_14  and  C_15
REMARK                            x       y       z     vdW  Elec       q    Type
REMARK                         _______ _______ _______ _____ _____    ______ ____
ROOT
ATOM      1  N   UNL     1      -2.442   1.307   0.019  0.00  0.00    -0.205 N 
ATOM      2  C   UNL     1      -1.128   1.754   0.016  0.00  0.00    +0.232 A 
ATOM      3  N   UNL     1      -0.011   0.966   0.007  0.00  0.00    -0.186 NA
ATOM      4  C   UNL     1       1.083   1.784   0.001  0.00  0.00    +0.211 A 
ATOM      5  N   UNL     1       0.661   3.025   0.011  0.00  0.00    -0.144 NA
ATOM      6  N   UNL     1      -0.740   3.006   0.025  0.00  0.00    -0.245 N 
ATOM      7  H   UNL     1      -2.656   0.228   0.014  0.00  0.00    +0.177 HD
ATOM      8  H   UNL     1      -1.487   3.813   0.039  0.00  0.00    +0.192 HD
ENDROOT
BRANCH   1  11
ATOM      9  C   UNL     1      -5.001   0.340   0.025  0.00  0.00    +0.063 C 
ATOM     10  C   UNL     1      -4.708   1.818   0.032  0.00  0.00    +0.040 C 
ATOM     11  N   UNL     1      -3.496   2.230   0.029  0.00  0.00    -0.189 NA
BRANCH  10  12
ATOM     12  C   UNL     1      -5.842   2.811   0.042  0.00  0.00    +0.011 C 
ATOM     13  C   UNL     1      -6.695   2.598   1.293  0.00  0.00    +0.016 C 
ATOM     14  C   UNL     1      -7.846   3.606   1.304  0.00  0.00    -0.010 C 
ATOM     15  C   UNL     1      -7.279   5.027   1.309  0.00  0.00    +0.007 C 
ATOM     16  C   UNL     1      -6.426   5.240   0.057  0.00  0.00    -0.010 C 
ATOM     17  C   UNL     1      -5.275   4.232   0.047  0.00  0.00    +0.016 C 
ATOM     18  C   UNL     1      -7.290   5.040  -1.190  0.00  0.00    +0.007 C 
ATOM     19  C   UNL     1      -7.857   3.619  -1.195  0.00  0.00    -0.010 C 
ATOM     20  C   UNL     1      -8.710   3.406   0.057  0.00  0.00    +0.007 C 
ATOM     21  C   UNL     1      -6.706   2.611  -1.205  0.00  0.00    +0.016 C 
ENDBRANCH  10  12
ENDBRANCH   1  11
BRANCH   4  22
ATOM     22  S   UNL     1       2.766   1.262  -0.018  0.00  0.00    -0.075 S 
BRANCH  22  23
ATOM     23  C   UNL     1       3.706   2.813  -0.018  0.00  0.00    +0.173 C 
BRANCH  23  24
ATOM     24  C   UNL     1       5.182   2.506  -0.034  0.00  0.00    +0.224 C 
ATOM     25  O   UNL     1       5.561   1.355  -0.044  0.00  0.00    -0.275 OA
ATOM     26  N   UNL     1       6.079   3.512  -0.037  0.00  0.00    -0.312 N 
ATOM     27  H   UNL     1       5.735   4.557  -0.028  0.00  0.00    +0.149 HD
BRANCH  26  28
ATOM     28  C   UNL     1       7.513   3.214  -0.052  0.00  0.00    +0.073 C 
ATOM     29  C   UNL     1       8.001   2.979   1.379  0.00  0.00    +0.022 C 
ATOM     30  C   UNL     1       9.499   2.667   1.363  0.00  0.00    +0.002 C 
ATOM     31  C   UNL     1      10.258   3.847   0.752  0.00  0.00    +0.000 C 
ATOM     32  C   UNL     1       9.771   4.082  -0.679  0.00  0.00    +0.002 C 
ATOM     33  C   UNL     1       8.273   4.393  -0.663  0.00  0.00    +0.022 C 
ENDBRANCH  26  28
ENDBRANCH  23  24
ENDBRANCH  22  23
ENDBRANCH   4  22
TORSDOF 6
