REMARK  Name = ZINC36029816
REMARK  11 active torsions:
REMARK  status: ('A' for Active; 'I' for Inactive)
REMARK    1  A    between atoms: C_1  and  C_2
REMARK    2  A    between atoms: C_2  and  C_3
REMARK    3  A    between atoms: C_3  and  C_5
REMARK    4  A    between atoms: C_3  and  C_6
REMARK    5  A    between atoms: N_10  and  C_29
REMARK    6  A    between atoms: N_15  and  C_18
REMARK    7  A    between atoms: C_18  and  N_20
REMARK    8  A    between atoms: N_20  and  C_21
REMARK    9  A    between atoms: C_24  and  O_27
REMARK   10  A    between atoms: O_27  and  C_28
REMARK   11  A    between atoms: C_29  and  C_30
REMARK                            x       y       z     vdW  Elec       q    Type
REMARK                         _______ _______ _______ _____ _____    ______ ____
ROOT
ATOM      1  C   UNL     1       0.497  -1.734  -0.463  0.00  0.00    +0.022 C 
ATOM      2  C   UNL     1       1.387  -2.507   0.486  0.00  0.00    +0.201 C 
ATOM      3  O   UNL     1       1.556  -2.259   1.661  0.00  0.00    -0.277 OA
ATOM      4  N   UNL     1       1.961  -3.521  -0.195  0.00  0.00    -0.313 N 
ATOM      5  C   UNL     1       1.504  -3.494  -1.587  0.00  0.00    +0.006 C 
ATOM      6  N   UNL     1       0.934  -2.148  -1.818  0.00  0.00    +0.401 N 
ATOM      7  C   UNL     1       0.426  -4.554  -1.809  0.00  0.00    +0.025 C 
ATOM      8  C   UNL     1       1.012  -5.941  -1.530  0.00  0.00    +0.107 C 
ATOM      9  N   UNL     1       2.220  -6.117  -2.348  0.00  0.00    -0.312 N 
ATOM     10  C   UNL     1       3.285  -5.109  -2.261  0.00  0.00    +0.107 C 
ATOM     11  C   UNL     1       2.680  -3.728  -2.534  0.00  0.00    +0.025 C 
ATOM     12  H   UNL     1       0.147  -2.196  -2.447  0.00  0.00    -0.082 HD
ATOM     13  H   UNL     1       1.639  -1.520  -2.172  0.00  0.00    -0.082 HD
ENDROOT
BRANCH   1  14
ATOM     14  C   UNL     1       0.698  -0.229  -0.274  0.00  0.00    -0.020 C 
ATOM     15  C   UNL     1       2.173   0.118  -0.485  0.00  0.00    +0.006 C 
BRANCH  14  17
ATOM     16  C   UNL     1       0.359   1.689   1.290  0.00  0.00    +0.004 C 
ATOM     17  C   UNL     1       0.277   0.168   1.142  0.00  0.00    -0.001 C 
ENDBRANCH  14  17
ENDBRANCH   1  14
BRANCH   9  18
ATOM     18  C   UNL     1       2.349  -7.184  -3.161  0.00  0.00    +0.137 C 
ATOM     19  S   UNL     1       1.047  -8.279  -3.349  0.00  0.00    -0.018 S 
BRANCH  18  20
ATOM     20  N   UNL     1       3.503  -7.388  -3.827  0.00  0.00    -0.297 N 
ATOM     21  H   UNL     1       3.573  -7.144  -4.763  0.00  0.00    +0.154 HD
BRANCH  20  22
ATOM     22  C   UNL     1       4.602  -7.954  -3.167  0.00  0.00    +0.033 A 
ATOM     23  C   UNL     1       4.535  -8.214  -1.804  0.00  0.00    +0.027 A 
ATOM     24  C   UNL     1       5.618  -8.772  -1.154  0.00  0.00    +0.047 A 
ATOM     25  C   UNL     1       6.773  -9.072  -1.862  0.00  0.00    +0.120 A 
ATOM     26  C   UNL     1       6.841  -8.811  -3.223  0.00  0.00    +0.047 A 
ATOM     27  C   UNL     1       5.756  -8.259  -3.875  0.00  0.00    +0.027 A 
BRANCH  25  28
ATOM     28  O   UNL     1       7.839  -9.621  -1.221  0.00  0.00    -0.495 OA
ATOM     29  C   UNL     1       8.996  -9.904  -2.011  0.00  0.00    +0.277 C 
ENDBRANCH  25  28
ENDBRANCH  20  22
ENDBRANCH  18  20
ENDBRANCH   9  18
BRANCH   4  30
ATOM     30  C   UNL     1       2.897  -4.496   0.369  0.00  0.00    +0.109 C 
BRANCH  30  31
ATOM     31  C   UNL     1       4.312  -3.913   0.354  0.00  0.00    +0.006 C 
ATOM     32  C   UNL     1       5.391  -4.696  -0.398  0.00  0.00    +0.005 C 
ATOM     33  C   UNL     1       5.394  -4.665   1.132  0.00  0.00    +0.005 C 
ENDBRANCH  30  31
ENDBRANCH   4  30
TORSDOF 8
