REMARK  Name = ZINC33672864
REMARK  7 active torsions:
REMARK  status: ('A' for Active; 'I' for Inactive)
REMARK    1  A    between atoms: C_1  and  C_2
REMARK    2  A    between atoms: C_2  and  C_3
REMARK    3  A    between atoms: C_4  and  C_30
REMARK    4  A    between atoms: C_5  and  N_10
REMARK    5  A    between atoms: C_7  and  C_9
REMARK    6  A    between atoms: N_19  and  C_20
REMARK    7  A    between atoms: C_30  and  C_31
REMARK                            x       y       z     vdW  Elec       q    Type
REMARK                         _______ _______ _______ _____ _____    ______ ____
ROOT
ATOM      1  N   UNL     1      -0.242   2.019   0.684  0.00  0.00    -0.313 N 
ATOM      2  C   UNL     1       0.981   2.807   0.835  0.00  0.00    +0.108 C 
ATOM      3  C   UNL     1       1.107   3.255   2.275  0.00  0.00    +0.038 C 
ATOM      4  C   UNL     1       1.940   2.231   3.063  0.00  0.00    +0.111 C 
ATOM      5  N   UNL     1       1.604   0.848   2.670  0.00  0.00    -0.284 N 
ATOM      6  C   UNL     1       0.241   0.414   2.440  0.00  0.00    +0.128 C 
ATOM      7  C   UNL     1      -0.134   0.635   0.955  0.00  0.00    +0.125 C 
ATOM      8  C   UNL     1       2.602  -0.044   2.518  0.00  0.00    +0.303 C 
ATOM      9  O   UNL     1       3.755   0.296   2.705  0.00  0.00    -0.253 OA
ATOM     10  N   UNL     1       2.324  -1.313   2.160  0.00  0.00    -0.294 N 
ATOM     11  H   UNL     1       1.281  -1.621   1.991  0.00  0.00    +0.151 HD
ENDROOT
BRANCH  10  12
ATOM     12  C   UNL     1       3.409  -2.283   1.995  0.00  0.00    +0.037 C 
ATOM     13  C   UNL     1       4.369  -1.794   0.909  0.00  0.00    +0.029 C 
ATOM     14  C   UNL     1       5.503  -2.807   0.737  0.00  0.00    -0.008 C 
ATOM     15  C   UNL     1       4.920  -4.162   0.330  0.00  0.00    +0.007 C 
ATOM     16  C   UNL     1       3.960  -4.650   1.417  0.00  0.00    -0.008 C 
ATOM     17  C   UNL     1       2.826  -3.638   1.589  0.00  0.00    +0.029 C 
ATOM     18  C   UNL     1       4.717  -4.797   2.738  0.00  0.00    +0.007 C 
ATOM     19  C   UNL     1       5.300  -3.443   3.145  0.00  0.00    -0.008 C 
ATOM     20  C   UNL     1       6.261  -2.954   2.058  0.00  0.00    +0.007 C 
ATOM     21  C   UNL     1       4.167  -2.430   3.317  0.00  0.00    +0.029 C 
ENDBRANCH  10  12
BRANCH   1  24
ATOM     22  C   UNL     1      -2.743   2.384  -1.964  0.00  0.00    +0.024 A 
ATOM     23  C   UNL     1      -2.209   2.151  -0.711  0.00  0.00    +0.016 A 
ATOM     24  C   UNL     1      -0.825   2.239  -0.553  0.00  0.00    +0.128 A 
ATOM     25  N   UNL     1      -0.074   2.531  -1.611  0.00  0.00    -0.219 NA
ATOM     26  C   UNL     1      -0.625   2.741  -2.790  0.00  0.00    +0.106 A 
ATOM     27  N   UNL     1      -1.929   2.670  -2.970  0.00  0.00    -0.347 N 
ATOM     28  C   UNL     1       0.260   3.070  -3.964  0.00  0.00    +0.086 C 
ATOM     29  H   UNL     1      -2.339   2.854  -3.974  0.00  0.00    +0.167 HD
BRANCH  22  31
ATOM     30  C   UNL     1      -4.622   0.870  -2.536  0.00  0.00    +0.010 C 
ATOM     31  C   UNL     1      -4.231   2.307  -2.185  0.00  0.00    +0.050 C 
ENDBRANCH  22  31
BRANCH  23  32
ATOM     32  C   UNL     1      -3.100   1.816   0.458  0.00  0.00    +0.075 C 
BRANCH  32  33
ATOM     33  C   UNL     1      -3.408   3.072   1.231  0.00  0.00    -0.043 A 
ATOM     34  C   UNL     1      -2.573   3.474   2.257  0.00  0.00    +0.004 A 
ATOM     35  C   UNL     1      -2.853   4.630   2.963  0.00  0.00    +0.000 A 
ATOM     36  C   UNL     1      -3.973   5.377   2.649  0.00  0.00    +0.000 A 
ATOM     37  C   UNL     1      -4.810   4.972   1.627  0.00  0.00    +0.000 A 
ATOM     38  C   UNL     1      -4.527   3.820   0.917  0.00  0.00    +0.004 A 
ENDBRANCH  32  33
ENDBRANCH  23  32
ENDBRANCH   1  24
TORSDOF 5
