REMARK  Name = ZINC16684180
REMARK  9 active torsions:
REMARK  status: ('A' for Active; 'I' for Inactive)
REMARK    1  A    between atoms: C_1  and  C_2
REMARK    2  A    between atoms: C_2  and  O_3
REMARK    3  A    between atoms: O_3  and  C_4
REMARK    4  A    between atoms: C_7  and  C_12
REMARK    5  A    between atoms: C_9  and  O_10
REMARK    6  A    between atoms: O_10  and  C_11
REMARK    7  A    between atoms: N_18  and  C_19
REMARK    8  A    between atoms: C_23  and  C_26
REMARK    9  A    between atoms: C_24  and  C_25
REMARK                            x       y       z     vdW  Elec       q    Type
REMARK                         _______ _______ _______ _____ _____    ______ ____
ROOT
ATOM      1  C   UNL     1       0.055  -5.966   2.267  0.00  0.00    +0.028 C 
ATOM      2  C   UNL     1      -0.276  -6.807   1.254  0.00  0.00    +0.078 C 
ATOM      3  C   UNL     1      -0.152  -8.275   1.178  0.00  0.00    +0.256 C 
ATOM      4  O   UNL     1       0.301  -8.924   2.103  0.00  0.00    -0.269 OA
ATOM      5  N   UNL     1      -0.555  -8.854   0.060  0.00  0.00    -0.260 N 
ATOM      6  C   UNL     1      -1.065  -8.102  -0.976  0.00  0.00    +0.166 C 
ATOM      7  N   UNL     1      -1.506  -8.513  -2.144  0.00  0.00    -0.225 NA
ATOM      8  S   UNL     1      -0.988  -6.435  -0.342  0.00  0.00    -0.049 S 
ATOM      9  H   UNL     1      -0.491  -9.818  -0.033  0.00  0.00    +0.157 HD
ENDROOT
BRANCH   7  10
ATOM     10  C   UNL     1      -1.897  -7.601  -3.086  0.00  0.00    +0.070 A 
ATOM     11  C   UNL     1      -1.073  -6.517  -3.399  0.00  0.00    +0.028 A 
ATOM     12  C   UNL     1      -1.473  -5.603  -4.350  0.00  0.00    +0.002 A 
ATOM     13  C   UNL     1      -2.688  -5.756  -4.995  0.00  0.00    +0.004 A 
ATOM     14  C   UNL     1      -3.510  -6.827  -4.690  0.00  0.00    -0.046 A 
ATOM     15  C   UNL     1      -3.120  -7.753  -3.745  0.00  0.00    -0.022 A 
ATOM     16  C   UNL     1      -4.013  -8.922  -3.418  0.00  0.00    +0.046 C 
ATOM     17  C   UNL     1      -4.831  -6.986  -5.397  0.00  0.00    +0.044 C 
ENDBRANCH   7  10
BRANCH   1  21
ATOM     18  C   UNL     1      -1.020  -1.867   2.052  0.00  0.00    +0.162 A 
ATOM     19  C   UNL     1      -1.643  -2.791   1.224  0.00  0.00    +0.050 A 
ATOM     20  C   UNL     1      -1.297  -4.123   1.290  0.00  0.00    +0.012 A 
ATOM     21  C   UNL     1      -0.315  -4.547   2.194  0.00  0.00    -0.020 A 
ATOM     22  C   UNL     1       0.312  -3.614   3.028  0.00  0.00    +0.057 A 
ATOM     23  C   UNL     1      -0.037  -2.280   2.951  0.00  0.00    +0.162 A 
BRANCH  23  24
ATOM     24  O   UNL     1       0.574  -1.369   3.755  0.00  0.00    -0.491 OA
ATOM     25  C   UNL     1       1.572  -1.862   4.652  0.00  0.00    +0.277 C 
ENDBRANCH  23  24
BRANCH  18  26
ATOM     26  O   UNL     1      -1.365  -0.555   1.982  0.00  0.00    -0.489 OA
BRANCH  26  28
ATOM     27  C   UNL     1      -2.632   1.308   1.106  0.00  0.00    +0.048 C 
ATOM     28  C   UNL     1      -2.380  -0.200   1.040  0.00  0.00    +0.226 C 
ENDBRANCH  26  28
ENDBRANCH  18  26
ENDBRANCH   1  21
TORSDOF 5
