REMARK  Name = ZINC20323944
REMARK  10 active torsions:
REMARK  status: ('A' for Active; 'I' for Inactive)
REMARK    1  A    between atoms: C_1  and  C_2
REMARK    2  A    between atoms: C_2  and  C_3
REMARK    3  A    between atoms: C_3  and  N_20
REMARK    4  A    between atoms: N_10  and  C_13
REMARK    5  A    between atoms: N_20  and  C_21
REMARK    6  A    between atoms: C_21  and  C_23
REMARK    7  A    between atoms: C_21  and  C_34
REMARK    8  A    between atoms: C_23  and  C_24
REMARK    9  A    between atoms: C_34  and  O_36
REMARK   10  A    between atoms: O_36  and  C_37
REMARK                            x       y       z     vdW  Elec       q    Type
REMARK                         _______ _______ _______ _____ _____    ______ ____
ROOT
ATOM      1  C   UNL     1       0.762  -0.457   1.555  0.00  0.00    +0.022 C 
ATOM      2  C   UNL     1       0.132  -1.027   2.646  0.00  0.00    +0.116 C 
ATOM      3  C   UNL     1       0.893  -1.727   3.696  0.00  0.00    +0.258 C 
ATOM      4  O   UNL     1       2.104  -1.823   3.631  0.00  0.00    -0.270 OA
ATOM      5  N   UNL     1       0.211  -2.258   4.731  0.00  0.00    -0.235 N 
ATOM      6  C   UNL     1      -1.123  -2.160   4.816  0.00  0.00    +0.320 C 
ATOM      7  O   UNL     1      -1.677  -2.661   5.774  0.00  0.00    -0.251 OA
ATOM      8  N   UNL     1      -1.878  -1.538   3.899  0.00  0.00    -0.190 N 
ATOM      9  C   UNL     1      -1.331  -0.955   2.813  0.00  0.00    +0.265 C 
ATOM     10  O   UNL     1      -2.026  -0.389   1.991  0.00  0.00    -0.269 OA
ATOM     11  H   UNL     1       0.698  -2.722   5.431  0.00  0.00    +0.159 HD
ENDROOT
BRANCH   8  12
ATOM     12  C   UNL     1      -3.268  -1.488   4.077  0.00  0.00    +0.046 A 
ATOM     13  C   UNL     1      -4.111  -2.047   3.126  0.00  0.00    +0.025 A 
ATOM     14  C   UNL     1      -5.479  -1.996   3.303  0.00  0.00    +0.022 A 
ATOM     15  C   UNL     1      -6.011  -1.389   4.427  0.00  0.00    +0.041 A 
ATOM     16  C   UNL     1      -5.173  -0.830   5.376  0.00  0.00    +0.022 A 
ATOM     17  C   UNL     1      -3.803  -0.884   5.206  0.00  0.00    +0.025 A 
ATOM     18 CL   UNL     1      -7.732  -1.326   4.647  0.00  0.00    -0.084 Cl
ENDBRANCH   8  12
BRANCH   1  20
ATOM     19  C   UNL     1      -0.414   1.555   0.708  0.00  0.00    +0.010 C 
ATOM     20  C   UNL     1      -0.055   0.096   0.417  0.00  0.00    +0.048 C 
ENDBRANCH   1  20
BRANCH   1  21
ATOM     21  N   UNL     1       2.108  -0.397   1.510  0.00  0.00    -0.334 N 
ATOM     22  H   UNL     1       2.631  -0.660   2.284  0.00  0.00    +0.147 HD
BRANCH  21  23
ATOM     23  C   UNL     1       2.780   0.066   0.294  0.00  0.00    +0.184 C 
BRANCH  23  24
ATOM     24  C   UNL     1       2.944  -1.089  -0.660  0.00  0.00    +0.328 C 
ATOM     25  O   UNL     1       2.541  -2.187  -0.355  0.00  0.00    -0.249 OA
BRANCH  24  26
ATOM     26  O   UNL     1       3.539  -0.899  -1.848  0.00  0.00    -0.467 OA
ATOM     27  C   UNL     1       3.660  -2.038  -2.703  0.00  0.00    +0.280 C 
ENDBRANCH  24  26
ENDBRANCH  23  24
BRANCH  23  28
ATOM     28  C   UNL     1       4.157   0.629   0.655  0.00  0.00    +0.071 C 
BRANCH  28  29
ATOM     29  C   UNL     1       3.988   1.858   1.510  0.00  0.00    -0.020 A 
ATOM     30  C   UNL     1       3.968   3.131   1.083  0.00  0.00    +0.087 A 
ATOM     31  N   UNL     1       3.796   3.976   2.145  0.00  0.00    -0.360 N 
ATOM     32  H   UNL     1       3.750   4.943   2.086  0.00  0.00    +0.165 HD
ATOM     33  C   UNL     1       3.700   3.250   3.311  0.00  0.00    +0.047 A 
ATOM     34  C   UNL     1       3.809   1.891   2.963  0.00  0.00    +0.003 A 
ATOM     35  C   UNL     1       3.740   0.911   3.955  0.00  0.00    +0.010 A 
ATOM     36  C   UNL     1       3.562   1.277   5.259  0.00  0.00    +0.001 A 
ATOM     37  C   UNL     1       3.449   2.615   5.607  0.00  0.00    +0.002 A 
ATOM     38  C   UNL     1       3.524   3.600   4.645  0.00  0.00    +0.026 A 
ENDBRANCH  28  29
ENDBRANCH  23  28
ENDBRANCH  21  23
ENDBRANCH   1  21
TORSDOF 8
