REMARK  Name = ZINC02179125
REMARK  6 active torsions:
REMARK  status: ('A' for Active; 'I' for Inactive)
REMARK    1  A    between atoms: C_1  and  C_2
REMARK    2  A    between atoms: C_10  and  C_31
REMARK    3  A    between atoms: C_13  and  C_16
REMARK    4  A    between atoms: C_21  and  O_22
REMARK    5  A    between atoms: O_22  and  C_23
REMARK    6  A    between atoms: C_23  and  C_24
REMARK                            x       y       z     vdW  Elec       q    Type
REMARK                         _______ _______ _______ _____ _____    ______ ____
ROOT
ATOM      1  C   UNL     1      -0.018   1.503   0.010  0.00  0.00    +0.044 C 
ATOM      2  C   UNL     1       0.002  -0.004   0.002  0.00  0.00    -0.050 A 
ATOM      3  C   UNL     1       0.006  -0.687  -1.202  0.00  0.00    +0.005 A 
ATOM      4  C   UNL     1       0.029  -2.070  -1.230  0.00  0.00    +0.024 A 
ATOM      5  C   UNL     1       0.047  -2.783  -0.044  0.00  0.00    +0.038 A 
ATOM      6  C   UNL     1       0.035  -2.084   1.180  0.00  0.00    +0.021 A 
ATOM      7  C   UNL     1       0.023  -0.700   1.197  0.00  0.00    +0.015 A 
ATOM      8  C   UNL     1       0.025  -2.907   2.404  0.00  0.00    +0.073 A 
ATOM      9  C   UNL     1       0.229  -2.591   3.701  0.00  0.00    +0.052 A 
ATOM     10  C   UNL     1       0.112  -3.769   4.448  0.00  0.00    +0.061 A 
ATOM     11  N   UNL     1      -0.155  -4.761   3.631  0.00  0.00    -0.174 NA
ATOM     12  N   UNL     1      -0.224  -4.259   2.337  0.00  0.00    -0.238 N 
ATOM     13  C   UNL     1      -0.510  -4.941   1.073  0.00  0.00    +0.226 C 
ATOM     14  N   UNL     1       0.087  -4.176  -0.031  0.00  0.00    -0.318 N 
ATOM     15  C   UNL     1       0.268  -3.880   5.943  0.00  0.00    +0.067 C 
ATOM     16  H   UNL     1       0.515  -4.648  -0.762  0.00  0.00    +0.148 HD
ENDROOT
BRANCH  13  17
ATOM     17  C   UNL     1      -2.001  -5.034   0.876  0.00  0.00    +0.036 A 
ATOM     18  C   UNL     1      -2.644  -4.143   0.039  0.00  0.00    +0.011 A 
ATOM     19  C   UNL     1      -4.012  -4.227  -0.142  0.00  0.00    +0.001 A 
ATOM     20  C   UNL     1      -4.740  -5.204   0.513  0.00  0.00    +0.004 A 
ATOM     21  C   UNL     1      -4.101  -6.098   1.350  0.00  0.00    +0.046 A 
ATOM     22  C   UNL     1      -2.727  -6.018   1.529  0.00  0.00    +0.128 A 
BRANCH  22  23
ATOM     23  O   UNL     1      -2.096  -6.900   2.348  0.00  0.00    -0.487 OA
BRANCH  23  24
ATOM     24  C   UNL     1      -2.907  -7.887   2.988  0.00  0.00    +0.264 C 
BRANCH  24  25
ATOM     25  C   UNL     1      -2.040  -8.769   3.850  0.00  0.00    -0.010 A 
ATOM     26  C   UNL     1      -1.470  -9.909   3.316  0.00  0.00    +0.008 A 
ATOM     27  C   UNL     1      -0.674 -10.718   4.106  0.00  0.00    +0.015 A 
ATOM     28  C   UNL     1      -0.449 -10.386   5.429  0.00  0.00    +0.018 A 
ATOM     29  C   UNL     1      -1.020  -9.245   5.963  0.00  0.00    +0.015 A 
ATOM     30  C   UNL     1      -1.811  -8.433   5.171  0.00  0.00    +0.008 A 
ATOM     31 BR   UNL     1       0.639 -11.493   6.510  0.00  0.00    -0.050 Br
ENDBRANCH  24  25
ENDBRANCH  23  24
ENDBRANCH  22  23
ENDBRANCH  13  17
TORSDOF 4
