REMARK  Name = ZINC63686655
REMARK  10 active torsions:
REMARK  status: ('A' for Active; 'I' for Inactive)
REMARK    1  A    between atoms: C_1  and  C_2
REMARK    2  A    between atoms: C_2  and  C_3
REMARK    3  A    between atoms: C_6  and  O_9
REMARK    4  A    between atoms: O_9  and  C_10
REMARK    5  A    between atoms: C_10  and  C_11
REMARK    6  A    between atoms: C_15  and  S_20
REMARK    7  A    between atoms: N_17  and  C_18
REMARK    8  A    between atoms: C_18  and  C_19
REMARK    9  A    between atoms: S_20  and  C_21
REMARK   10  A    between atoms: C_21  and  C_22
REMARK                            x       y       z     vdW  Elec       q    Type
REMARK                         _______ _______ _______ _____ _____    ______ ____
ROOT
ATOM      1  C   UNL     1      -7.321  -2.704  -1.015  0.00  0.00    +0.178 C 
ATOM      2  N   UNL     1      -7.287  -3.951  -0.217  0.00  0.00    -0.234 NA
ATOM      3  N   UNL     1      -7.524  -3.509   1.166  0.00  0.00    -0.229 NA
ATOM      4  C   UNL     1      -8.526  -2.423   1.004  0.00  0.00    +0.200 C 
ATOM      5  N   UNL     1      -8.113  -1.728  -0.238  0.00  0.00    -0.259 NA
ATOM      6  H   UNL     1      -6.393  -4.411  -0.302  0.00  0.00    +0.142 HD
ATOM      7  H   UNL     1      -7.894  -4.261   1.728  0.00  0.00    +0.143 HD
ENDROOT
BRANCH   5   8
ATOM      8  C   UNL     1      -9.282  -1.272  -1.001  0.00  0.00    +0.085 C 
ATOM      9  C   UNL     1      -9.933  -0.091  -0.279  0.00  0.00    +0.020 C 
ENDBRANCH   5   8
BRANCH   1  10
ATOM     10  C   UNL     1      -5.900  -2.178  -1.227  0.00  0.00    +0.265 C 
BRANCH  10  11
ATOM     11  O   UNL     1      -5.282  -1.955   0.042  0.00  0.00    -0.489 OA
BRANCH  11  15
ATOM     12  C   UNL     1      -1.412  -0.526   0.013  0.00  0.00    -0.047 A 
ATOM     13  C   UNL     1      -2.050  -0.766   1.216  0.00  0.00    +0.007 A 
ATOM     14  C   UNL     1      -3.346  -1.244   1.228  0.00  0.00    +0.046 A 
ATOM     15  C   UNL     1      -4.007  -1.484   0.032  0.00  0.00    +0.121 A 
ATOM     16  C   UNL     1      -3.365  -1.242  -1.173  0.00  0.00    +0.046 A 
ATOM     17  C   UNL     1      -2.071  -0.758  -1.180  0.00  0.00    +0.007 A 
BRANCH  12  19
ATOM     18  C   UNL     1      -0.019   1.526   0.010  0.00  0.00    +0.009 C 
ATOM     19  C   UNL     1       0.002  -0.004   0.002  0.00  0.00    +0.032 C 
ENDBRANCH  12  19
ENDBRANCH  11  15
ENDBRANCH  10  11
ENDBRANCH   1  10
BRANCH   4  20
ATOM     20  S   UNL     1      -8.466  -1.289   2.419  0.00  0.00    -0.119 S 
BRANCH  20  21
ATOM     21  C   UNL     1      -6.758  -0.680   2.422  0.00  0.00    +0.125 C 
BRANCH  21  22
ATOM     22  C   UNL     1      -6.570   0.285   3.565  0.00  0.00    +0.030 A 
ATOM     23  N   UNL     1      -7.096   1.529   3.459  0.00  0.00    -0.355 N 
ATOM     24  C   UNL     1      -6.960   2.458   4.468  0.00  0.00    +0.086 A 
ATOM     25  C   UNL     1      -6.261   2.114   5.637  0.00  0.00    +0.048 A 
ATOM     26  C   UNL     1      -6.115   3.046   6.665  0.00  0.00    +0.014 A 
ATOM     27  C   UNL     1      -6.656   4.294   6.529  0.00  0.00    +0.004 A 
ATOM     28  C   UNL     1      -7.348   4.642   5.378  0.00  0.00    +0.040 A 
ATOM     29  C   UNL     1      -7.504   3.735   4.349  0.00  0.00    +0.147 A 
ATOM     30  F   UNL     1      -8.180   4.085   3.233  0.00  0.00    -0.203 F 
ATOM     31  C   UNL     1      -5.693   0.758   5.743  0.00  0.00    +0.190 A 
ATOM     32  O   UNL     1      -5.077   0.407   6.736  0.00  0.00    -0.287 OA
ATOM     33  C   UNL     1      -5.890  -0.126   4.655  0.00  0.00    +0.073 A 
ATOM     34  H   UNL     1      -7.580   1.771   2.655  0.00  0.00    +0.166 HD
ENDBRANCH  21  22
ENDBRANCH  20  21
ENDBRANCH   4  20
TORSDOF 8
