REMARK  Name = ZINC01639932
REMARK  4 active torsions:
REMARK  status: ('A' for Active; 'I' for Inactive)
REMARK    1  A    between atoms: C_2  and  C_3
REMARK    2  A    between atoms: C_3  and  O_4
REMARK    3  A    between atoms: O_4  and  C_5
REMARK    4  A    between atoms: C_11  and  O_13
REMARK                            x       y       z     vdW  Elec       q    Type
REMARK                         _______ _______ _______ _____ _____    ______ ____
ROOT
ATOM      1  C   UNL     1      -1.433  -0.534   0.013  0.00  0.00    +0.148 C 
ATOM      2  C   UNL     1      -1.413  -2.063   0.004  0.00  0.00    +0.034 C 
ATOM      3  C   UNL     1      -0.673  -2.570   1.244  0.00  0.00    +0.003 C 
ATOM      4  C   UNL     1       0.763  -2.041   1.233  0.00  0.00    +0.003 C 
ATOM      5  C   UNL     1       0.742  -0.511   1.242  0.00  0.00    +0.034 C 
ATOM      6  C   UNL     1       0.002  -0.004   0.002  0.00  0.00    +0.143 C 
ENDROOT
BRANCH   6   7
ATOM      7  O   UNL     1      -0.017   1.425   0.010  0.00  0.00    -0.389 OA
ATOM      8  H   UNL     1       0.861   1.830   0.004  0.00  0.00    +0.210 HD
ENDBRANCH   6   7
BRANCH   1   9
ATOM      9  O   UNL     1      -2.124  -0.060  -1.145  0.00  0.00    -0.362 OA
BRANCH   9  10
ATOM     10  C   UNL     1      -3.530   0.113  -0.952  0.00  0.00    +0.248 C 
BRANCH  10  12
ATOM     11  C   UNL     1      -4.626   0.990  -3.195  0.00  0.00    +0.006 C 
ATOM     12  C   UNL     1      -4.139   0.601  -2.200  0.00  0.00    -0.077 C 
ENDBRANCH  10  12
ENDBRANCH   9  10
ENDBRANCH   1   9
TORSDOF 4
