REMARK  Name = ZINC04082332
REMARK  9 active torsions:
REMARK  status: ('A' for Active; 'I' for Inactive)
REMARK    1  A    between atoms: C_1  and  C_2
REMARK    2  A    between atoms: C_2  and  O_3
REMARK    3  A    between atoms: O_3  and  C_4
REMARK    4  A    between atoms: C_6  and  C_13
REMARK    5  A    between atoms: C_8  and  N_10
REMARK    6  A    between atoms: C_18  and  C_22
REMARK    7  A    between atoms: C_18  and  C_23
REMARK    8  A    between atoms: C_27  and  C_33
REMARK    9  A    between atoms: C_28  and  C_32
REMARK                            x       y       z     vdW  Elec       q    Type
REMARK                         _______ _______ _______ _____ _____    ______ ____
ROOT
ATOM      1  C   UNL     1      -4.994   1.125   0.032  0.00  0.00    +0.136 C 
ATOM      2  C   UNL     1      -5.411   0.887  -1.399  0.00  0.00    +0.036 C 
ATOM      3  C   UNL     1      -5.401  -0.294  -2.038  0.00  0.00    +0.017 C 
ATOM      4  C   UNL     1      -5.862  -0.395  -3.482  0.00  0.00    +0.058 C 
ATOM      5  C   UNL     1      -5.543   0.901  -4.224  0.00  0.00    -0.023 C 
ATOM      6  C   UNL     1      -6.273   2.043  -3.506  0.00  0.00    +0.086 C 
ATOM      7  C   UNL     1      -5.839   2.057  -2.070  0.00  0.00    +0.163 C 
ATOM      8  O   UNL     1      -5.857   3.110  -1.463  0.00  0.00    -0.292 OA
ATOM      9  C   UNL     1      -4.034   1.155  -4.199  0.00  0.00    +0.011 C 
ATOM     10  C   UNL     1      -6.029   0.803  -5.671  0.00  0.00    +0.011 C 
ATOM     11  N   UNL     1      -5.011  -1.469  -1.480  0.00  0.00    -0.316 N 
ATOM     12  C   UNL     1      -3.861  -1.649  -0.722  0.00  0.00    +0.053 A 
ATOM     13  C   UNL     1      -2.846  -2.506  -1.110  0.00  0.00    +0.028 A 
ATOM     14  C   UNL     1      -1.781  -2.729  -0.253  0.00  0.00    -0.046 A 
ATOM     15  C   UNL     1      -1.734  -2.101   0.978  0.00  0.00    -0.046 A 
ATOM     16  C   UNL     1      -2.737  -1.226   1.358  0.00  0.00    +0.028 A 
ATOM     17  C   UNL     1      -3.794  -0.987   0.495  0.00  0.00    +0.050 A 
ATOM     18  N   UNL     1      -4.804  -0.080   0.812  0.00  0.00    -0.331 N 
ATOM     19  C   UNL     1      -0.582  -2.370   1.913  0.00  0.00    +0.044 C 
ATOM     20  C   UNL     1      -0.670  -3.661  -0.663  0.00  0.00    +0.044 C 
ATOM     21  H   UNL     1      -5.580  -2.242  -1.622  0.00  0.00    +0.152 HD
ATOM     22  H   UNL     1      -5.387  -0.259   1.566  0.00  0.00    +0.147 HD
ENDROOT
BRANCH   1  25
ATOM     23  C   UNL     1      -2.483   3.902   0.534  0.00  0.00    +0.170 A 
ATOM     24  C   UNL     1      -3.670   3.187   0.535  0.00  0.00    +0.055 A 
ATOM     25  C   UNL     1      -3.702   1.901   0.030  0.00  0.00    -0.017 A 
ATOM     26  C   UNL     1      -2.552   1.325  -0.477  0.00  0.00    +0.042 A 
ATOM     27  C   UNL     1      -1.365   2.033  -0.481  0.00  0.00    +0.177 A 
ATOM     28  C   UNL     1      -1.324   3.321   0.029  0.00  0.00    +0.250 A 
ATOM     29  O   UNL     1      -0.156   4.016   0.031  0.00  0.00    -0.282 OA
BRANCH  27  30
ATOM     30  N   UNL     1      -0.135   1.413  -1.024  0.00  0.00    +0.060 N 
ATOM     31  O   UNL     1      -0.170   0.279  -1.468  0.00  0.00    -0.126 OA
ATOM     32  O   UNL     1       0.910   2.038  -1.032  0.00  0.00    -0.126 OA
ENDBRANCH  27  30
BRANCH  23  33
ATOM     33  O   UNL     1      -2.449   5.168   1.031  0.00  0.00    -0.488 OA
BRANCH  33  35
ATOM     34  C   UNL     1      -3.442   7.121   2.050  0.00  0.00    +0.048 C 
ATOM     35  C   UNL     1      -3.675   5.698   1.539  0.00  0.00    +0.226 C 
ENDBRANCH  33  35
ENDBRANCH  23  33
ENDBRANCH   1  25
TORSDOF 4
