REMARK  Name = ZINC20528027
REMARK  8 active torsions:
REMARK  status: ('A' for Active; 'I' for Inactive)
REMARK    1  A    between atoms: C_1  and  C_2
REMARK    2  A    between atoms: C_6  and  N_8
REMARK    3  A    between atoms: C_9  and  C_11
REMARK    4  A    between atoms: C_11  and  S_12
REMARK    5  A    between atoms: S_12  and  C_13
REMARK    6  A    between atoms: N_17  and  N_18
REMARK    7  A    between atoms: N_19  and  N_20
REMARK    8  A    between atoms: C_21  and  C_22
REMARK                            x       y       z     vdW  Elec       q    Type
REMARK                         _______ _______ _______ _____ _____    ______ ____
ROOT
ATOM      1  C   UNL     1       2.558   9.806   0.488  0.00  0.00    +0.210 A 
ATOM      2  N   UNL     1       1.417  10.454   0.497  0.00  0.00    -0.119 NA
ATOM      3  N   UNL     1       1.696  11.821   0.622  0.00  0.00    -0.109 NA
ATOM      4  C   UNL     1       2.998  11.965   0.677  0.00  0.00    +0.254 A 
ATOM      5  N   UNL     1       3.565  10.723   0.596  0.00  0.00    -0.211 N 
ATOM      6  N   UNL     1       3.682  13.167   0.797  0.00  0.00    -0.204 N 
ATOM      7  H   UNL     1       4.781  13.173   0.834  0.00  0.00    +0.177 HD
ENDROOT
BRANCH   5   8
ATOM      8  N   UNL     1       4.902  10.448   0.619  0.00  0.00    -0.294 N 
ATOM      9  H   UNL     1       5.631  11.267   0.710  0.00  0.00    +0.163 HD
ATOM     10  H   UNL     1       5.251   9.407   0.547  0.00  0.00    +0.163 HD
ENDBRANCH   5   8
BRANCH   6  11
ATOM     11  N   UNL     1       2.971  14.372   0.871  0.00  0.00    -0.188 NA
ATOM     12  C   UNL     1       3.611  15.497   0.982  0.00  0.00    +0.138 C 
BRANCH  12  13
ATOM     13  C   UNL     1       2.863  16.765   1.060  0.00  0.00    -0.005 A 
ATOM     14  C   UNL     1       1.467  16.761   1.008  0.00  0.00    +0.012 A 
ATOM     15  C   UNL     1       0.773  17.950   1.087  0.00  0.00    +0.039 A 
ATOM     16  C   UNL     1       1.459  19.148   1.206  0.00  0.00    +0.123 A 
ATOM     17  C   UNL     1       2.844  19.160   1.253  0.00  0.00    +0.039 A 
ATOM     18  C   UNL     1       3.549  17.977   1.180  0.00  0.00    +0.012 A 
ATOM     19  F   UNL     1       0.774  20.311   1.277  0.00  0.00    -0.205 F 
ENDBRANCH  12  13
ENDBRANCH   6  11
BRANCH   1  20
ATOM     20  S   UNL     1       2.757   8.061   0.352  0.00  0.00    -0.075 S 
BRANCH  20  21
ATOM     21  C   UNL     1       1.058   7.433   0.245  0.00  0.00    +0.173 C 
BRANCH  21  23
ATOM     22  N   UNL     1      -0.069   5.242   0.029  0.00  0.00    -0.285 N 
ATOM     23  C   UNL     1       1.085   5.931   0.123  0.00  0.00    +0.227 C 
ATOM     24  O   UNL     1       2.146   5.342   0.111  0.00  0.00    -0.275 OA
ATOM     25  H   UNL     1      -1.026   5.779  -0.047  0.00  0.00    +0.155 HD
BRANCH  22  31
ATOM     26  C   UNL     1      -1.980   0.985  -1.521  0.00  0.00    +0.044 C 
ATOM     27  C   UNL     1      -0.966   1.754  -0.715  0.00  0.00    -0.049 A 
ATOM     28  C   UNL     1      -0.014   1.076   0.025  0.00  0.00    +0.003 A 
ATOM     29  C   UNL     1       0.922   1.777   0.762  0.00  0.00    +0.002 A 
ATOM     30  C   UNL     1       0.907   3.159   0.765  0.00  0.00    +0.023 A 
ATOM     31  C   UNL     1      -0.051   3.842   0.028  0.00  0.00    +0.034 A 
ATOM     32  C   UNL     1      -0.990   3.135  -0.711  0.00  0.00    +0.026 A 
ENDBRANCH  22  31
ENDBRANCH  21  23
ENDBRANCH  20  21
ENDBRANCH   1  20
TORSDOF 7
