REMARK  Name = ZINC59851560
REMARK  5 active torsions:
REMARK  status: ('A' for Active; 'I' for Inactive)
REMARK    1  A    between atoms: C_1  and  C_2
REMARK    2  A    between atoms: C_2  and  O_3
REMARK    3  A    between atoms: O_3  and  C_4
REMARK    4  A    between atoms: C_7  and  C_10
REMARK    5  A    between atoms: C_15  and  C_17
REMARK                            x       y       z     vdW  Elec       q    Type
REMARK                         _______ _______ _______ _____ _____    ______ ____
ROOT
ATOM      1  C   UNL     1       1.106  -5.997  -1.842  0.00  0.00    +0.043 C 
ATOM      2  C   UNL     1       1.652  -6.511  -2.999  0.00  0.00    +0.152 C 
ATOM      3  C   UNL     1       1.746  -7.929  -3.389  0.00  0.00    +0.364 C 
ATOM      4  O   UNL     1       1.358  -8.896  -2.759  0.00  0.00    -0.243 OA
ATOM      5  O   UNL     1       2.353  -7.927  -4.595  0.00  0.00    -0.402 OA
ATOM      6  C   UNL     1       2.619  -6.653  -4.941  0.00  0.00    +0.232 C 
ATOM      7  N   UNL     1       2.214  -5.814  -4.029  0.00  0.00    -0.205 NA
ENDROOT
BRANCH   6   8
ATOM      8  C   UNL     1       3.282  -6.255  -6.199  0.00  0.00    +0.040 A 
ATOM      9  C   UNL     1       3.522  -4.906  -6.469  0.00  0.00    +0.016 A 
ATOM     10  C   UNL     1       4.141  -4.540  -7.645  0.00  0.00    +0.042 A 
ATOM     11  C   UNL     1       4.526  -5.507  -8.560  0.00  0.00    +0.158 A 
ATOM     12  C   UNL     1       4.289  -6.850  -8.299  0.00  0.00    +0.159 A 
ATOM     13  C   UNL     1       3.675  -7.228  -7.122  0.00  0.00    +0.054 A 
ATOM     14  F   UNL     1       4.665  -7.788  -9.195  0.00  0.00    -0.202 F 
ATOM     15  F   UNL     1       5.132  -5.142  -9.711  0.00  0.00    -0.202 F 
ENDBRANCH   6   8
BRANCH   1  19
ATOM     16  C   UNL     1       0.764  -1.808  -1.342  0.00  0.00    +0.121 A 
ATOM     17  C   UNL     1       1.427  -2.322  -2.452  0.00  0.00    +0.046 A 
ATOM     18  C   UNL     1       1.541  -3.678  -2.619  0.00  0.00    +0.011 A 
ATOM     19  C   UNL     1       0.988  -4.548  -1.669  0.00  0.00    -0.023 A 
ATOM     20  C   UNL     1       0.321  -4.024  -0.552  0.00  0.00    +0.011 A 
ATOM     21  C   UNL     1       0.218  -2.666  -0.393  0.00  0.00    +0.046 A 
BRANCH  16  22
ATOM     22  O   UNL     1       0.654  -0.465  -1.182  0.00  0.00    -0.492 OA
BRANCH  22  24
ATOM     23  C   UNL     1       1.015   1.831  -1.843  0.00  0.00    +0.048 C 
ATOM     24  C   UNL     1       1.238   0.358  -2.193  0.00  0.00    +0.225 C 
ENDBRANCH  22  24
ENDBRANCH  16  22
ENDBRANCH   1  19
TORSDOF 4
