REMARK  Name = ZINC63373605
REMARK  6 active torsions:
REMARK  status: ('A' for Active; 'I' for Inactive)
REMARK    1  A    between atoms: C_1  and  O_2
REMARK    2  A    between atoms: O_2  and  C_3
REMARK    3  A    between atoms: C_10  and  C_18
REMARK    4  A    between atoms: C_20  and  O_40
REMARK    5  A    between atoms: N_22  and  C_34
REMARK    6  A    between atoms: N_25  and  C_28
REMARK                            x       y       z     vdW  Elec       q    Type
REMARK                         _______ _______ _______ _____ _____    ______ ____
ROOT
ATOM      1  C   UNL     1       4.280  -4.240  -4.260  0.00  0.00    +0.142 C 
ATOM      2  C   UNL     1       4.722  -5.585  -4.843  0.00  0.00    +0.224 C 
ATOM      3  N   UNL     1       6.122  -5.499  -5.263  0.00  0.00    -0.228 N 
ATOM      4  C   UNL     1       6.615  -4.368  -5.792  0.00  0.00    +0.322 C 
ATOM      5  O   UNL     1       7.751  -4.362  -6.226  0.00  0.00    -0.251 OA
ATOM      6  N   UNL     1       5.885  -3.242  -5.853  0.00  0.00    -0.193 N 
ATOM      7  C   UNL     1       4.725  -3.130  -5.178  0.00  0.00    +0.236 C 
ATOM      8  O   UNL     1       4.038  -2.139  -5.309  0.00  0.00    -0.274 OA
ENDROOT
BRANCH   1  15
ATOM      9  C   UNL     1       6.959   0.324   0.217  0.00  0.00    +0.121 A 
ATOM     10  C   UNL     1       7.026   0.950  -1.040  0.00  0.00    +0.047 A 
ATOM     11  C   UNL     1       6.451   0.424  -2.143  0.00  0.00    +0.029 A 
ATOM     12  C   UNL     1       5.725  -0.845  -2.054  0.00  0.00    +0.043 A 
ATOM     13  N   UNL     1       5.108  -1.568  -2.961  0.00  0.00    -0.376 N 
ATOM     14  C   UNL     1       4.476  -2.702  -2.295  0.00  0.00    +0.124 C 
ATOM     15  C   UNL     1       4.914  -4.048  -2.881  0.00  0.00    +0.096 C 
ATOM     16  N   UNL     1       4.464  -5.115  -1.974  0.00  0.00    -0.310 NA
ATOM     17  C   UNL     1       5.143  -5.095  -0.675  0.00  0.00    +0.085 C 
ATOM     18  C   UNL     1       4.775  -3.812   0.093  0.00  0.00    +0.048 C 
ATOM     19  C   UNL     1       4.975  -2.655  -0.859  0.00  0.00    -0.036 C 
ATOM     20  C   UNL     1       5.661  -1.513  -0.729  0.00  0.00    +0.003 A 
ATOM     21  C   UNL     1       6.322  -0.855   0.405  0.00  0.00    +0.055 A 
ATOM     22  H   UNL     1       3.462  -5.094  -1.858  0.00  0.00    +0.122 HD
ATOM     23  H   UNL     1       5.078  -1.379  -3.912  0.00  0.00    +0.160 HD
BRANCH   9  25
ATOM     24  C   UNL     1       8.222   2.165   1.036  0.00  0.00    +0.277 C 
ATOM     25  O   UNL     1       7.560   0.922   1.279  0.00  0.00    -0.495 OA
ENDBRANCH   9  25
ENDBRANCH   1  15
BRANCH   6  26
ATOM     26  C   UNL     1       6.337  -2.167  -6.631  0.00  0.00    +0.045 A 
ATOM     27  C   UNL     1       6.040  -2.117  -7.987  0.00  0.00    +0.024 A 
ATOM     28  C   UNL     1       6.486  -1.056  -8.751  0.00  0.00    +0.002 A 
ATOM     29  C   UNL     1       7.228  -0.045  -8.168  0.00  0.00    +0.000 A 
ATOM     30  C   UNL     1       7.525  -0.093  -6.818  0.00  0.00    +0.002 A 
ATOM     31  C   UNL     1       7.077  -1.148  -6.047  0.00  0.00    +0.024 A 
ENDBRANCH   6  26
BRANCH   3  32
ATOM     32  C   UNL     1       6.957  -6.611  -5.110  0.00  0.00    +0.040 A 
ATOM     33  C   UNL     1       6.928  -7.636  -6.047  0.00  0.00    +0.023 A 
ATOM     34  C   UNL     1       7.754  -8.733  -5.893  0.00  0.00    +0.002 A 
ATOM     35  C   UNL     1       8.608  -8.811  -4.809  0.00  0.00    +0.000 A 
ATOM     36  C   UNL     1       8.639  -7.792  -3.874  0.00  0.00    +0.002 A 
ATOM     37  C   UNL     1       7.821  -6.689  -4.026  0.00  0.00    +0.023 A 
ENDBRANCH   3  32
BRANCH   2  38
ATOM     38  O   UNL     1       4.585  -6.603  -3.849  0.00  0.00    -0.373 OA
ATOM     39  H   UNL     1       4.823  -7.488  -4.157  0.00  0.00    +0.212 HD
ENDBRANCH   2  38
TORSDOF 5
