REMARK  Name = ZINC43092650
REMARK  9 active torsions:
REMARK  status: ('A' for Active; 'I' for Inactive)
REMARK    1  A    between atoms: C_1  and  C_2
REMARK    2  A    between atoms: C_2  and  C_3
REMARK    3  A    between atoms: C_3  and  C_5
REMARK    4  A    between atoms: C_3  and  N_22
REMARK    5  A    between atoms: C_5  and  C_7
REMARK    6  A    between atoms: C_5  and  N_14
REMARK    7  A    between atoms: N_14  and  C_15
REMARK    8  A    between atoms: N_14  and  C_16
REMARK    9  A    between atoms: C_16  and  C_17
REMARK                            x       y       z     vdW  Elec       q    Type
REMARK                         _______ _______ _______ _____ _____    ______ ____
ROOT
ATOM      1  C   UNL     1      -1.514  -2.027   0.213  0.00  0.00    -0.051 C 
ENDROOT
BRANCH   1   2
ATOM      2  C   UNL     1      -1.106  -2.702  -1.071  0.00  0.00    -0.049 A 
ATOM      3  C   UNL     1       0.137  -3.298  -1.175  0.00  0.00    +0.003 A 
ATOM      4  C   UNL     1       0.511  -3.918  -2.352  0.00  0.00    +0.000 A 
ATOM      5  C   UNL     1      -0.358  -3.942  -3.427  0.00  0.00    +0.001 A 
ATOM      6  C   UNL     1      -1.601  -3.346  -3.325  0.00  0.00    +0.015 A 
ATOM      7  C   UNL     1      -1.978  -2.731  -2.145  0.00  0.00    +0.019 A 
ATOM      8 BR   UNL     1      -3.681  -1.921  -2.002  0.00  0.00    -0.050 Br
ENDBRANCH   1   2
BRANCH   1   9
ATOM      9  N   UNL     1      -0.895  -2.723   1.350  0.00  0.00    +0.384 N 
ATOM     10  C   UNL     1      -1.342  -4.122   1.369  0.00  0.00    -0.095 C 
ATOM     11  H   UNL     1       0.109  -2.691   1.257  0.00  0.00    -0.081 HD
BRANCH   9  12
ATOM     12  C   UNL     1      -1.293  -2.065   2.601  0.00  0.00    -0.039 C 
BRANCH  12  13
ATOM     13  C   UNL     1      -0.563  -2.700   3.757  0.00  0.00    -0.026 A 
ATOM     14  C   UNL     1      -0.998  -3.806   4.523  0.00  0.00    +0.043 A 
ATOM     15  C   UNL     1      -0.047  -4.040   5.445  0.00  0.00    +0.195 A 
ATOM     16  O   UNL     1       0.936  -3.140   5.278  0.00  0.00    -0.471 OA
ATOM     17  C   UNL     1       0.631  -2.328   4.253  0.00  0.00    +0.196 A 
ENDBRANCH  12  13
ENDBRANCH   9  12
ENDBRANCH   1   9
BRANCH   1  18
ATOM     18  C   UNL     1      -1.049  -0.570   0.193  0.00  0.00    -0.085 C 
BRANCH  18  19
ATOM     19  N   UNL     1      -1.623   0.111  -0.976  0.00  0.00    +0.379 N 
ATOM     20  H   UNL     1      -1.313  -0.349  -1.818  0.00  0.00    -0.090 HD
ATOM     21  H   UNL     1      -2.630   0.077  -0.924  0.00  0.00    -0.090 HD
ATOM     22  H   UNL     1      -1.319   1.073  -0.987  0.00  0.00    -0.090 HD
ENDBRANCH  18  19
BRANCH  18  24
ATOM     23  C   UNL     1       0.949   0.929   0.218  0.00  0.00    +0.002 C 
ATOM     24  C   UNL     1       0.478  -0.522   0.112  0.00  0.00    -0.021 C 
ENDBRANCH  18  24
ENDBRANCH   1  18
TORSDOF 7
