REMARK  Name = ZINC05160384
REMARK  8 active torsions:
REMARK  status: ('A' for Active; 'I' for Inactive)
REMARK    1  A    between atoms: C_1  and  C_2
REMARK    2  A    between atoms: C_6  and  C_22
REMARK    3  A    between atoms: C_10  and  C_12
REMARK    4  A    between atoms: C_12  and  C_13
REMARK    5  A    between atoms: C_12  and  C_17
REMARK    6  A    between atoms: C_12  and  O_21
REMARK    7  A    between atoms: C_22  and  C_23
REMARK    8  A    between atoms: C_22  and  C_24
REMARK                            x       y       z     vdW  Elec       q    Type
REMARK                         _______ _______ _______ _____ _____    ______ ____
ROOT
ATOM      1  C   UNL     1      -2.072  -0.278  -1.457  0.00  0.00    +0.008 C 
ATOM      2  C   UNL     1      -2.448   1.205  -1.435  0.00  0.00    -0.000 C 
ATOM      3  C   UNL     1      -1.255   2.040  -1.904  0.00  0.00    +0.005 C 
ATOM      4  C   UNL     1      -0.036   1.740  -1.031  0.00  0.00    +0.011 C 
ATOM      5  C   UNL     1      -0.323   2.171   0.411  0.00  0.00    +0.058 C 
ATOM      6  C   UNL     1      -1.599   1.497   0.868  0.00  0.00    +0.143 C 
ATOM      7  O   UNL     1      -1.635   0.880   1.906  0.00  0.00    -0.297 OA
ATOM      8  C   UNL     1      -2.826   1.615  -0.008  0.00  0.00    +0.108 C 
ENDROOT
BRANCH   5   9
ATOM      9  C   UNL     1      -0.495   3.690   0.469  0.00  0.00    -0.007 C 
ATOM     10  C   UNL     1      -0.782   4.115   1.911  0.00  0.00    +0.008 C 
ATOM     11  C   UNL     1       0.788   4.367  -0.017  0.00  0.00    +0.008 C 
ENDBRANCH   5   9
BRANCH   8  12
ATOM     12  C   UNL     1      -3.924   0.689   0.519  0.00  0.00    +0.266 C 
BRANCH  12  13
ATOM     13  C   UNL     1      -4.447   1.225   1.854  0.00  0.00    +0.427 C 
ATOM     14  F   UNL     1      -4.818   2.565   1.705  0.00  0.00    -0.167 F 
ATOM     15  F   UNL     1      -5.557   0.474   2.255  0.00  0.00    -0.167 F 
ATOM     16  F   UNL     1      -3.442   1.124   2.822  0.00  0.00    -0.167 F 
ENDBRANCH  12  13
BRANCH  12  17
ATOM     17  C   UNL     1      -5.072   0.632  -0.492  0.00  0.00    +0.427 C 
ATOM     18  F   UNL     1      -4.594   0.142  -1.712  0.00  0.00    -0.167 F 
ATOM     19  F   UNL     1      -6.076  -0.215  -0.010  0.00  0.00    -0.167 F 
ATOM     20  F   UNL     1      -5.594   1.916  -0.677  0.00  0.00    -0.167 F 
ENDBRANCH  12  17
BRANCH  12  21
ATOM     21  O   UNL     1      -3.391  -0.623   0.708  0.00  0.00    -0.373 OA
ATOM     22  H   UNL     1      -2.658  -0.662   1.338  0.00  0.00    +0.211 HD
ENDBRANCH  12  21
ENDBRANCH   8  12
TORSDOF 5
