REMARK  Name = ZINC51090946
REMARK  3 active torsions:
REMARK  status: ('A' for Active; 'I' for Inactive)
REMARK    1  A    between atoms: C_3  and  N_22
REMARK    2  A    between atoms: C_5  and  C_8
REMARK    3  A    between atoms: N_22  and  N_23
REMARK                            x       y       z     vdW  Elec       q    Type
REMARK                         _______ _______ _______ _____ _____    ______ ____
ROOT
ATOM      1  C   UNL     1      -0.003   1.389   0.059  0.00  0.00    +0.026 A 
ATOM      2  C   UNL     1       1.150   2.051  -0.319  0.00  0.00    +0.046 A 
ATOM      3  C   UNL     1       2.304   1.315  -0.588  0.00  0.00    +0.133 A 
ATOM      4  N   UNL     1       2.304  -0.001  -0.485  0.00  0.00    -0.225 NA
ATOM      5  C   UNL     1       1.214  -0.671  -0.124  0.00  0.00    +0.146 A 
ATOM      6  C   UNL     1       0.029   0.004   0.159  0.00  0.00    +0.072 A 
ATOM      7 CL   UNL     1      -1.392  -0.876   0.631  0.00  0.00    -0.081 Cl
ENDROOT
BRANCH   5   8
ATOM      8  C   UNL     1       1.260  -2.147  -0.021  0.00  0.00    +0.267 C 
ATOM      9  O   UNL     1       0.237  -2.775   0.168  0.00  0.00    -0.268 OA
ATOM     10  N   UNL     1       2.437  -2.794  -0.138  0.00  0.00    -0.293 N 
ATOM     11  C   UNL     1       3.708  -2.055  -0.142  0.00  0.00    +0.108 C 
ATOM     12  C   UNL     1       4.634  -2.643   0.927  0.00  0.00    +0.019 C 
ATOM     13  C   UNL     1       4.776  -4.153   0.713  0.00  0.00    +0.007 C 
ATOM     14  C   UNL     1       3.401  -4.809   0.832  0.00  0.00    +0.010 C 
ATOM     15  C   UNL     1       2.484  -4.255  -0.258  0.00  0.00    +0.079 C 
ATOM     16  C   UNL     1       1.089  -4.854  -0.085  0.00  0.00    +0.023 C 
ATOM     17  C   UNL     1       1.179  -6.377  -0.223  0.00  0.00    +0.002 C 
ATOM     18  C   UNL     1       2.121  -6.940   0.842  0.00  0.00    +0.000 C 
ATOM     19  C   UNL     1       3.509  -6.324   0.665  0.00  0.00    +0.005 C 
ENDBRANCH   5   8
BRANCH   3  20
ATOM     20  N   UNL     1       3.466   1.974  -0.970  0.00  0.00    -0.268 N 
ATOM     21  H   UNL     1       3.473   2.941  -1.048  0.00  0.00    +0.167 HD
BRANCH  20  22
ATOM     22  N   UNL     1       4.601   1.261  -1.236  0.00  0.00    -0.255 NA
ATOM     23  H   UNL     1       4.432   0.566  -1.948  0.00  0.00    +0.140 HD
ATOM     24  H   UNL     1       5.359   1.872  -1.499  0.00  0.00    +0.140 HD
ENDBRANCH  20  22
ENDBRANCH   3  20
TORSDOF 3
