REMARK  Name = ZINC40260024
REMARK  5 active torsions:
REMARK  status: ('A' for Active; 'I' for Inactive)
REMARK    1  A    between atoms: C_1  and  C_2
REMARK    2  A    between atoms: C_5  and  C_9
REMARK    3  A    between atoms: C_7  and  C_8
REMARK    4  A    between atoms: C_9  and  C_11
REMARK    5  A    between atoms: C_9  and  O_22
REMARK                            x       y       z     vdW  Elec       q    Type
REMARK                         _______ _______ _______ _____ _____    ______ ____
ROOT
ATOM      1  C   UNL     1       0.059  -4.275  -0.021  0.00  0.00    +0.176 C 
ENDROOT
BRANCH   1   2
ATOM      2  C   UNL     1       1.480  -4.759  -0.156  0.00  0.00    +0.007 A 
ATOM      3  C   UNL     1       1.989  -5.068  -1.403  0.00  0.00    +0.057 A 
ATOM      4  C   UNL     1       3.297  -5.512  -1.530  0.00  0.00    +0.163 A 
ATOM      5  C   UNL     1       4.095  -5.643  -0.400  0.00  0.00    +0.163 A 
ATOM      6  C   UNL     1       3.579  -5.333   0.849  0.00  0.00    +0.069 A 
ATOM      7  C   UNL     1       2.276  -4.886   0.969  0.00  0.00    +0.051 A 
ATOM      8 CL   UNL     1       1.635  -4.491   2.533  0.00  0.00    -0.083 Cl
ATOM      9  O   UNL     1       5.384  -6.070  -0.504  0.00  0.00    -0.485 OA
ATOM     10  C   UNL     1       5.749  -6.725  -1.723  0.00  0.00    +0.270 C 
ATOM     11  C   UNL     1       5.205  -5.897  -2.895  0.00  0.00    +0.270 C 
ATOM     12  O   UNL     1       3.782  -5.816  -2.765  0.00  0.00    -0.485 OA
ENDBRANCH   1   2
BRANCH   1  17
ATOM     13  C   UNL     1      -0.018   1.503   0.010  0.00  0.00    +0.044 C 
ATOM     14  C   UNL     1       0.002  -0.004   0.002  0.00  0.00    -0.048 A 
ATOM     15  C   UNL     1       0.006  -0.689  -1.199  0.00  0.00    +0.004 A 
ATOM     16  C   UNL     1       0.025  -2.071  -1.207  0.00  0.00    +0.007 A 
ATOM     17  C   UNL     1       0.040  -2.768  -0.013  0.00  0.00    -0.014 A 
ATOM     18  C   UNL     1       0.037  -2.084   1.188  0.00  0.00    +0.010 A 
ATOM     19  C   UNL     1       0.023  -0.702   1.195  0.00  0.00    -0.047 A 
ATOM     20  C   UNL     1       0.025   0.045   2.504  0.00  0.00    +0.044 C 
ENDBRANCH   1  17
BRANCH   1  21
ATOM     21  O   UNL     1      -0.713  -4.756  -1.123  0.00  0.00    -0.382 OA
ATOM     22  H   UNL     1      -0.392  -4.461  -1.987  0.00  0.00    +0.211 HD
ENDBRANCH   1  21
TORSDOF 3
