REMARK  Name = ZINC24088629
REMARK  11 active torsions:
REMARK  status: ('A' for Active; 'I' for Inactive)
REMARK    1  A    between atoms: C_1  and  C_2
REMARK    2  A    between atoms: C_2  and  C_3
REMARK    3  A    between atoms: C_3  and  C_31
REMARK    4  A    between atoms: N_6  and  C_10
REMARK    5  A    between atoms: C_10  and  C_11
REMARK    6  A    between atoms: C_11  and  C_13
REMARK    7  A    between atoms: C_11  and  O_30
REMARK    8  A    between atoms: C_13  and  O_14
REMARK    9  A    between atoms: O_14  and  C_15
REMARK   10  A    between atoms: C_15  and  C_16
REMARK   11  A    between atoms: C_15  and  C_23
REMARK                            x       y       z     vdW  Elec       q    Type
REMARK                         _______ _______ _______ _____ _____    ______ ____
ROOT
ATOM      1  C   UNL     1       4.896  -1.489  -2.782  0.00  0.00    +0.158 C 
ENDROOT
BRANCH   1   2
ATOM      2  O   UNL     1       5.250  -2.368  -1.712  0.00  0.00    -0.388 OA
ATOM      3  H   UNL     1       6.303  -2.645  -1.554  0.00  0.00    +0.210 HD
ENDBRANCH   1   2
BRANCH   1   4
ATOM      4  C   UNL     1       3.382  -1.268  -2.780  0.00  0.00    +0.151 C 
BRANCH   4   8
ATOM      5  C   UNL     1       2.490   1.046  -0.015  0.00  0.00    +0.138 C 
ATOM      6  C   UNL     1       2.934   0.777  -1.439  0.00  0.00    +0.251 C 
ATOM      7  O   UNL     1       3.184   1.598  -2.296  0.00  0.00    -0.272 OA
ATOM      8  N   UNL     1       2.993  -0.564  -1.555  0.00  0.00    -0.221 N 
ATOM      9  C   UNL     1       2.651  -1.173  -0.414  0.00  0.00    +0.310 C 
ATOM     10  O   UNL     1       2.629  -2.381  -0.273  0.00  0.00    -0.252 OA
ATOM     11  N   UNL     1       2.336  -0.301   0.560  0.00  0.00    -0.281 N 
ATOM     12  H   UNL     1       2.015  -0.419   1.606  0.00  0.00    +0.152 HD
BRANCH   5  13
ATOM     13  C   UNL     1       1.175   1.783   0.000  0.00  0.00    -0.015 A 
ATOM     14  C   UNL     1      -0.013   1.076   0.008  0.00  0.00    +0.009 A 
ATOM     15  C   UNL     1      -1.219   1.750   0.017  0.00  0.00    +0.039 A 
ATOM     16  C   UNL     1      -1.237   3.135   0.029  0.00  0.00    +0.123 A 
ATOM     17  C   UNL     1      -0.047   3.842   0.022  0.00  0.00    +0.039 A 
ATOM     18  C   UNL     1       1.158   3.165   0.007  0.00  0.00    +0.009 A 
ATOM     19  F   UNL     1      -2.416   3.795   0.043  0.00  0.00    -0.205 F 
ENDBRANCH   5  13
BRANCH   5  21
ATOM     20  C   UNL     1       4.881   1.071   0.710  0.00  0.00    +0.007 C 
ATOM     21  C   UNL     1       3.558   1.839   0.741  0.00  0.00    +0.037 C 
ENDBRANCH   5  21
ENDBRANCH   4   8
ENDBRANCH   1   4
BRANCH   1  22
ATOM     22  C   UNL     1       5.318  -2.111  -4.114  0.00  0.00    +0.194 C 
BRANCH  22  23
ATOM     23  O   UNL     1       6.743  -2.211  -4.163  0.00  0.00    -0.365 OA
BRANCH  23  24
ATOM     24  C   UNL     1       7.245  -2.782  -5.373  0.00  0.00    +0.178 C 
BRANCH  24  25
ATOM     25  C   UNL     1       8.607  -2.211  -5.671  0.00  0.00    -0.014 A 
ATOM     26  C   UNL     1       9.507  -1.999  -4.644  0.00  0.00    +0.009 A 
ATOM     27  C   UNL     1      10.758  -1.479  -4.917  0.00  0.00    +0.039 A 
ATOM     28  C   UNL     1      11.106  -1.160  -6.219  0.00  0.00    +0.123 A 
ATOM     29  C   UNL     1      10.201  -1.368  -7.247  0.00  0.00    +0.039 A 
ATOM     30  C   UNL     1       8.952  -1.893  -6.972  0.00  0.00    +0.009 A 
ATOM     31  F   UNL     1      12.327  -0.648  -6.487  0.00  0.00    -0.205 F 
ENDBRANCH  24  25
BRANCH  24  32
ATOM     32  C   UNL     1       7.351  -4.277  -5.216  0.00  0.00    -0.014 A 
ATOM     33  C   UNL     1       7.706  -4.820  -3.995  0.00  0.00    +0.009 A 
ATOM     34  C   UNL     1       7.799  -6.191  -3.849  0.00  0.00    +0.039 A 
ATOM     35  C   UNL     1       7.546  -7.021  -4.928  0.00  0.00    +0.123 A 
ATOM     36  C   UNL     1       7.196  -6.476  -6.152  0.00  0.00    +0.039 A 
ATOM     37  C   UNL     1       7.098  -5.105  -6.294  0.00  0.00    +0.009 A 
ATOM     38  F   UNL     1       7.642  -8.361  -4.787  0.00  0.00    -0.205 F 
ENDBRANCH  24  32
ENDBRANCH  23  24
ENDBRANCH  22  23
ENDBRANCH   1  22
TORSDOF 10
