REMARK  Name = ZINC13064259
REMARK  11 active torsions:
REMARK  status: ('A' for Active; 'I' for Inactive)
REMARK    1  A    between atoms: C_1  and  C_2
REMARK    2  A    between atoms: C_2  and  C_3
REMARK    3  A    between atoms: C_3  and  C_5
REMARK    4  A    between atoms: C_3  and  N_69
REMARK    5  A    between atoms: N_9  and  C_10
REMARK    6  A    between atoms: C_16  and  C_17
REMARK    7  A    between atoms: C_16  and  N_69
REMARK    8  A    between atoms: C_23  and  C_24
REMARK    9  A    between atoms: C_23  and  N_69
REMARK   10  A    between atoms: C_29  and  O_36
REMARK   11  A    between atoms: O_36  and  C_37
REMARK                            x       y       z     vdW  Elec       q    Type
REMARK                         _______ _______ _______ _____ _____    ______ ____
ROOT
ATOM      1  N   UNL     1      -8.599  -1.756   4.141  0.00  0.00    +0.392 N 
ATOM      2  H   UNL     1      -8.272  -2.010   5.081  0.00  0.00    -0.080 HD
ENDROOT
BRANCH   1   3
ATOM      3  C   UNL     1     -10.069  -1.605   4.169  0.00  0.00    +0.003 C 
BRANCH   3   4
ATOM      4  C   UNL     1     -10.466  -1.000   5.491  0.00  0.00    +0.138 A 
ATOM      5  N   UNL     1      -9.926   0.047   6.066  0.00  0.00    -0.115 NA
ATOM      6  N   UNL     1     -10.540   0.250   7.180  0.00  0.00    -0.023 NA
ATOM      7  N   UNL     1     -11.457  -0.641   7.332  0.00  0.00    -0.044 NA
ATOM      8  N   UNL     1     -11.446  -1.427   6.308  0.00  0.00    -0.228 N 
BRANCH   8   9
ATOM      9  C   UNL     1     -12.332  -2.571   6.080  0.00  0.00    +0.111 C 
ATOM     10  C   UNL     1     -13.772  -2.078   5.921  0.00  0.00    +0.027 C 
ATOM     11  C   UNL     1     -14.697  -3.273   5.683  0.00  0.00    +0.002 C 
ATOM     12  C   UNL     1     -14.615  -4.227   6.876  0.00  0.00    +0.000 C 
ATOM     13  C   UNL     1     -13.176  -4.721   7.036  0.00  0.00    +0.002 C 
ATOM     14  C   UNL     1     -12.250  -3.526   7.274  0.00  0.00    +0.027 C 
ENDBRANCH   8   9
ENDBRANCH   3   4
BRANCH   3  16
ATOM     15  C   UNL     1     -10.268  -1.378   1.689  0.00  0.00    +0.002 C 
ATOM     16  C   UNL     1     -10.534  -0.694   3.031  0.00  0.00    -0.011 C 
ENDBRANCH   3  16
ENDBRANCH   1   3
BRANCH   1  17
ATOM     17  C   UNL     1      -8.220  -2.828   3.196  0.00  0.00    -0.040 C 
BRANCH  17  18
ATOM     18  C   UNL     1      -8.541  -4.161   3.821  0.00  0.00    -0.046 A 
ATOM     19  C   UNL     1      -7.650  -4.758   4.699  0.00  0.00    +0.005 A 
ATOM     20  C   UNL     1      -7.990  -5.982   5.253  0.00  0.00    +0.020 A 
ATOM     21  C   UNL     1      -9.193  -6.567   4.907  0.00  0.00    +0.111 A 
ATOM     22  N   UNL     1     -10.014  -5.973   4.064  0.00  0.00    -0.263 NA
ATOM     23  C   UNL     1      -9.726  -4.806   3.521  0.00  0.00    +0.112 A 
ENDBRANCH  17  18
ENDBRANCH   1  17
BRANCH   1  24
ATOM     24  C   UNL     1      -7.968  -0.482   3.740  0.00  0.00    -0.036 C 
BRANCH  24  25
ATOM     25  C   UNL     1      -6.499  -0.544   4.072  0.00  0.00    +0.001 A 
ATOM     26  C   UNL     1      -5.605  -0.905   3.117  0.00  0.00    +0.017 A 
ATOM     27  C   UNL     1      -4.187  -0.955   3.471  0.00  0.00    -0.001 A 
ATOM     28  C   UNL     1      -3.219  -1.320   2.528  0.00  0.00    +0.013 A 
ATOM     29  C   UNL     1      -1.903  -1.354   2.885  0.00  0.00    +0.046 A 
ATOM     30  C   UNL     1      -1.514  -1.037   4.186  0.00  0.00    +0.122 A 
ATOM     31  C   UNL     1      -2.455  -0.673   5.133  0.00  0.00    +0.072 A 
ATOM     32  C   UNL     1      -3.799  -0.629   4.786  0.00  0.00    +0.053 A 
ATOM     33  N   UNL     1      -4.758  -0.269   5.709  0.00  0.00    -0.322 N 
ATOM     34  H   UNL     1      -4.491  -0.045   6.614  0.00  0.00    +0.169 HD
ATOM     35  C   UNL     1      -6.060  -0.227   5.374  0.00  0.00    +0.251 A 
ATOM     36  O   UNL     1      -6.880   0.094   6.216  0.00  0.00    -0.268 OA
BRANCH  30  37
ATOM     37  O   UNL     1      -0.200  -1.081   4.525  0.00  0.00    -0.495 OA
ATOM     38  C   UNL     1       0.722  -1.464   3.503  0.00  0.00    +0.277 C 
ENDBRANCH  30  37
ENDBRANCH  24  25
ENDBRANCH   1  24
TORSDOF 9
