REMARK  Name = ZINC05044487
REMARK  2 active torsions:
REMARK  status: ('A' for Active; 'I' for Inactive)
REMARK    1  A    between atoms: C_4  and  C_7
REMARK    2  A    between atoms: C_14  and  N_21
REMARK                            x       y       z     vdW  Elec       q    Type
REMARK                         _______ _______ _______ _____ _____    ______ ____
ROOT
ATOM      1  C   UNL     1      -2.279   5.285  -0.519  0.00  0.00    +0.124 C 
ATOM      2  N   UNL     1      -2.055   4.988   0.730  0.00  0.00    -0.178 NA
ATOM      3  N   UNL     1      -1.271   3.918   1.121  0.00  0.00    -0.239 N 
ATOM      4  C   UNL     1      -0.706   3.137   0.022  0.00  0.00    +0.203 C 
ATOM      5  S   UNL     1      -1.372   4.037  -1.424  0.00  0.00    -0.063 S 
ATOM      6  C   UNL     1       0.789   3.112   0.010  0.00  0.00    +0.020 A 
ATOM      7  C   UNL     1       1.764   4.085   0.007  0.00  0.00    +0.041 A 
ATOM      8  C   UNL     1       3.100   3.729  -0.007  0.00  0.00    +0.127 A 
ATOM      9  C   UNL     1       3.457   2.393  -0.017  0.00  0.00    +0.034 A 
ATOM     10  C   UNL     1       2.486   1.414  -0.014  0.00  0.00    +0.026 A 
ATOM     11  C   UNL     1       1.138   1.762   0.001  0.00  0.00    +0.040 A 
ATOM     12  N   UNL     1      -0.011   0.966   0.007  0.00  0.00    -0.282 N 
ATOM     13  C   UNL     1      -1.141   1.704   0.016  0.00  0.00    +0.257 C 
ATOM     14  O   UNL     1      -2.281   1.290   0.020  0.00  0.00    -0.272 OA
ATOM     15  H   UNL     1      -1.109   3.703   2.053  0.00  0.00    +0.170 HD
ATOM     16  H   UNL     1       0.002  -0.004   0.002  0.00  0.00    +0.155 HD
ENDROOT
BRANCH   1  20
ATOM     17  C   UNL     1      -4.616   8.472  -2.075  0.00  0.00    +0.000 A 
ATOM     18  C   UNL     1      -4.492   8.313  -0.707  0.00  0.00    +0.001 A 
ATOM     19  C   UNL     1      -3.735   7.280  -0.195  0.00  0.00    +0.010 A 
ATOM     20  C   UNL     1      -3.092   6.394  -1.061  0.00  0.00    +0.008 A 
ATOM     21  C   UNL     1      -3.216   6.563  -2.440  0.00  0.00    +0.010 A 
ATOM     22  C   UNL     1      -3.981   7.597  -2.939  0.00  0.00    +0.001 A 
ENDBRANCH   1  20
BRANCH   8  23
ATOM     23  N   UNL     1       4.146   4.776  -0.010  0.00  0.00    +0.056 N 
ATOM     24  O   UNL     1       3.831   5.952  -0.000  0.00  0.00    -0.126 OA
ATOM     25  O   UNL     1       5.323   4.461  -0.022  0.00  0.00    -0.126 OA
ENDBRANCH   8  23
TORSDOF 2
