REMARK  Name = ZINC25506160
REMARK  10 active torsions:
REMARK  status: ('A' for Active; 'I' for Inactive)
REMARK    1  A    between atoms: C_1  and  C_2
REMARK    2  A    between atoms: C_5  and  S_8
REMARK    3  A    between atoms: S_8  and  N_11
REMARK    4  A    between atoms: N_11  and  C_12
REMARK    5  A    between atoms: C_12  and  C_13
REMARK    6  A    between atoms: C_13  and  N_14
REMARK    7  A    between atoms: N_14  and  C_15
REMARK    8  A    between atoms: C_15  and  C_17
REMARK    9  A    between atoms: C_15  and  C_23
REMARK   10  A    between atoms: N_25  and  C_26
REMARK                            x       y       z     vdW  Elec       q    Type
REMARK                         _______ _______ _______ _____ _____    ______ ____
ROOT
ATOM      1  N   UNL     1       2.196   4.101  -0.888  0.00  0.00    +0.390 N 
ATOM      2  H   UNL     1       2.292   3.415  -1.742  0.00  0.00    -0.084 HD
ATOM      3  H   UNL     1       3.148   4.135  -0.337  0.00  0.00    -0.084 HD
ENDROOT
BRANCH   1   4
ATOM      4  C   UNL     1       1.864   5.446  -1.374  0.00  0.00    -0.064 C 
BRANCH   4   5
ATOM      5  C   UNL     1       2.974   5.941  -2.304  0.00  0.00    +0.087 C 
BRANCH   5   6
ATOM      6  N   UNL     1       2.642   7.283  -2.789  0.00  0.00    -0.192 NA
ATOM      7  H   UNL     1       1.592   7.609  -2.832  0.00  0.00    +0.148 HD
BRANCH   6   8
ATOM      8  S   UNL     1       3.808   8.217  -3.504  0.00  0.00    +0.058 S 
ATOM      9  O   UNL     1       3.178   9.432  -3.885  0.00  0.00    -0.153 OA
ATOM     10  O   UNL     1       4.939   8.182  -2.644  0.00  0.00    -0.153 OA
BRANCH   8  15
ATOM     11  C   UNL     1       5.436   5.444  -8.609  0.00  0.00    +0.044 C 
ATOM     12  C   UNL     1       5.030   6.136  -7.334  0.00  0.00    -0.050 A 
ATOM     13  C   UNL     1       3.996   7.054  -7.345  0.00  0.00    +0.005 A 
ATOM     14  C   UNL     1       3.623   7.690  -6.176  0.00  0.00    +0.029 A 
ATOM     15  C   UNL     1       4.284   7.407  -4.995  0.00  0.00    +0.105 A 
ATOM     16  C   UNL     1       5.320   6.492  -4.984  0.00  0.00    +0.029 A 
ATOM     17  C   UNL     1       5.690   5.854  -6.153  0.00  0.00    +0.005 A 
ENDBRANCH   8  15
ENDBRANCH   6   8
ENDBRANCH   5   6
ENDBRANCH   4   5
ENDBRANCH   1   4
BRANCH   1  18
ATOM     18  C   UNL     1       1.151   3.592   0.010  0.00  0.00    +0.047 C 
BRANCH  18  19
ATOM     19  C   UNL     1       1.171   2.086   0.002  0.00  0.00    -0.053 A 
ATOM     20  C   UNL     1      -0.017   1.378   0.010  0.00  0.00    +0.002 A 
ATOM     21  C   UNL     1       0.002  -0.004   0.002  0.00  0.00    +0.000 A 
ATOM     22  C   UNL     1       1.208  -0.679  -0.014  0.00  0.00    +0.000 A 
ATOM     23  C   UNL     1       2.396   0.029  -0.021  0.00  0.00    +0.000 A 
ATOM     24  C   UNL     1       2.377   1.411  -0.014  0.00  0.00    +0.002 A 
ENDBRANCH  18  19
BRANCH  18  25
ATOM     25  C   UNL     1       1.403   4.091   1.409  0.00  0.00    +0.203 C 
ATOM     26  O   UNL     1       2.361   4.800   1.637  0.00  0.00    -0.277 OA
ATOM     27  N   UNL     1       0.566   3.749   2.408  0.00  0.00    -0.314 N 
ATOM     28  H   UNL     1      -0.302   3.106   2.202  0.00  0.00    +0.149 HD
BRANCH  27  29
ATOM     29  C   UNL     1       0.812   4.233   3.769  0.00  0.00    +0.073 C 
ATOM     30  C   UNL     1       0.653   3.232   4.915  0.00  0.00    +0.024 C 
ATOM     31  C   UNL     1      -0.390   4.334   4.711  0.00  0.00    +0.024 C 
ENDBRANCH  27  29
ENDBRANCH  18  25
ENDBRANCH   1  18
TORSDOF 9
