REMARK  Name = ZINC41682660
REMARK  10 active torsions:
REMARK  status: ('A' for Active; 'I' for Inactive)
REMARK    1  A    between atoms: C_1  and  C_2
REMARK    2  A    between atoms: C_2  and  C_4
REMARK    3  A    between atoms: C_2  and  N_11
REMARK    4  A    between atoms: C_12  and  N_16
REMARK    5  A    between atoms: N_20  and  C_29
REMARK    6  A    between atoms: N_23  and  C_25
REMARK    7  A    between atoms: C_25  and  C_26
REMARK    8  A    between atoms: C_26  and  C_28
REMARK    9  A    between atoms: C_29  and  C_30
REMARK   10  A    between atoms: C_30  and  C_32
REMARK                            x       y       z     vdW  Elec       q    Type
REMARK                         _______ _______ _______ _____ _____    ______ ____
ROOT
ATOM      1  N   UNL     1       2.518  -1.718   0.074  0.00  0.00    -0.279 N 
ATOM      2  C   UNL     1       3.664  -2.498   0.232  0.00  0.00    +0.210 A 
ATOM      3  C   UNL     1       4.401  -2.990  -0.944  0.00  0.00    +0.297 A 
ATOM      4  O   UNL     1       4.020  -2.722  -2.068  0.00  0.00    -0.264 OA
ATOM      5  N   UNL     1       5.506  -3.743  -0.758  0.00  0.00    -0.253 N 
ATOM      6  C   UNL     1       5.921  -4.035   0.489  0.00  0.00    +0.349 A 
ATOM      7  O   UNL     1       6.918  -4.714   0.643  0.00  0.00    -0.245 OA
ATOM      8  N   UNL     1       5.252  -3.588   1.567  0.00  0.00    -0.209 N 
ATOM      9  N   UNL     1       4.104  -2.801   1.426  0.00  0.00    -0.146 NA
ATOM     10  H   UNL     1       2.200  -1.499  -0.815  0.00  0.00    +0.155 HD
ENDROOT
BRANCH   1  12
ATOM     11  N   UNL     1       0.711  -0.489   1.189  0.00  0.00    -0.266 N 
ATOM     12  C   UNL     1       1.833  -1.254   1.194  0.00  0.00    +0.121 A 
ATOM     13  C   UNL     1       2.166  -1.484   2.494  0.00  0.00    +0.062 A 
ATOM     14  C   UNL     1       1.220  -0.841   3.298  0.00  0.00    +0.105 A 
ATOM     15  N   UNL     1       0.354  -0.243   2.521  0.00  0.00    -0.303 N 
ATOM     16  H   UNL     1      -0.406   0.281   2.817  0.00  0.00    +0.186 HD
BRANCH  11  18
ATOM     17  C   UNL     1      -0.019   1.526   0.010  0.00  0.00    +0.038 C 
ATOM     18  C   UNL     1       0.002  -0.004   0.002  0.00  0.00    +0.134 C 
BRANCH  18  19
ATOM     19  C   UNL     1      -1.412  -0.526   0.013  0.00  0.00    -0.023 A 
ATOM     20  C   UNL     1      -2.259  -0.204   1.057  0.00  0.00    +0.007 A 
ATOM     21  C   UNL     1      -3.556  -0.682   1.067  0.00  0.00    +0.020 A 
ATOM     22  C   UNL     1      -4.006  -1.483   0.032  0.00  0.00    +0.041 A 
ATOM     23  C   UNL     1      -3.158  -1.804  -1.012  0.00  0.00    +0.020 A 
ATOM     24  C   UNL     1      -1.863  -1.321  -1.024  0.00  0.00    +0.007 A 
ATOM     25 CL   UNL     1      -5.634  -2.084   0.045  0.00  0.00    -0.084 Cl
ENDBRANCH  18  19
ENDBRANCH  11  18
ENDBRANCH   1  12
BRANCH   8  26
ATOM     26  C   UNL     1       5.736  -3.927   2.907  0.00  0.00    +0.179 C 
BRANCH  26  27
ATOM     27  C   UNL     1       6.701  -2.869   3.376  0.00  0.00    -0.058 C 
ATOM     28  C   UNL     1       6.275  -1.878   4.120  0.00  0.00    +0.009 C 
ATOM     29  C   UNL     1       8.155  -2.950   2.989  0.00  0.00    +0.040 C 
ENDBRANCH  26  27
ENDBRANCH   8  26
BRANCH   5  30
ATOM     30  C   UNL     1       6.254  -4.242  -1.914  0.00  0.00    +0.160 C 
BRANCH  30  31
ATOM     31  C   UNL     1       7.309  -3.239  -2.302  0.00  0.00    -0.060 C 
ATOM     32  C   UNL     1       8.532  -3.367  -1.850  0.00  0.00    +0.009 C 
ATOM     33  C   UNL     1       6.957  -2.088  -3.209  0.00  0.00    +0.040 C 
ENDBRANCH  30  31
ENDBRANCH   5  30
TORSDOF 7
