REMARK  Name = ZINC02655235
REMARK  3 active torsions:
REMARK  status: ('A' for Active; 'I' for Inactive)
REMARK    1  A    between atoms: C_1  and  C_2
REMARK    2  A    between atoms: N_8  and  C_9
REMARK    3  A    between atoms: C_16  and  C_18
REMARK                            x       y       z     vdW  Elec       q    Type
REMARK                         _______ _______ _______ _____ _____    ______ ____
ROOT
ATOM      1  C   UNL     1       1.665   5.710   3.503  0.00  0.00    +0.033 C 
ATOM      2  C   UNL     1       2.010   6.462   2.216  0.00  0.00    +0.115 C 
ATOM      3  C   UNL     1       2.594   7.843   2.587  0.00  0.00    +0.103 C 
ATOM      4  S   UNL     1       4.244   7.720   1.795  0.00  0.00    -0.088 S 
ATOM      5  C   UNL     1       4.102   6.082   1.109  0.00  0.00    +0.163 C 
ATOM      6  N   UNL     1       2.923   5.660   1.435  0.00  0.00    -0.259 NA
ATOM      7  N   UNL     1       5.056   5.401   0.373  0.00  0.00    -0.216 N 
ATOM      8  C   UNL     1       4.835   4.126  -0.002  0.00  0.00    +0.270 C 
ATOM      9  O   UNL     1       3.767   3.602   0.231  0.00  0.00    -0.271 OA
ENDROOT
BRANCH   8  10
ATOM     10  C   UNL     1       5.916   3.350  -0.710  0.00  0.00    +0.297 C 
ATOM     11  C   UNL     1       7.078   3.082   0.257  0.00  0.00    +0.283 C 
ATOM     12  O   UNL     1       8.078   2.333  -0.442  0.00  0.00    -0.484 OA
ATOM     13  C   UNL     1       7.645   1.273  -1.179  0.00  0.00    +0.162 A 
ATOM     14  C   UNL     1       8.554   0.305  -1.578  0.00  0.00    +0.049 A 
ATOM     15  C   UNL     1       8.131  -0.773  -2.332  0.00  0.00    +0.004 A 
ATOM     16  C   UNL     1       6.801  -0.890  -2.690  0.00  0.00    +0.004 A 
ATOM     17  C   UNL     1       5.889   0.071  -2.294  0.00  0.00    +0.049 A 
ATOM     18  C   UNL     1       6.307   1.155  -1.536  0.00  0.00    +0.163 A 
ATOM     19  O   UNL     1       5.397   2.089  -1.147  0.00  0.00    -0.472 OA
ENDBRANCH   8  10
BRANCH   7  20
ATOM     20  C   UNL     1       6.253   6.039   0.016  0.00  0.00    +0.043 A 
ATOM     21  C   UNL     1       7.181   6.371   0.993  0.00  0.00    +0.025 A 
ATOM     22  C   UNL     1       8.363   6.994   0.639  0.00  0.00    +0.022 A 
ATOM     23  C   UNL     1       8.615   7.297  -0.688  0.00  0.00    +0.041 A 
ATOM     24  C   UNL     1       7.688   6.973  -1.663  0.00  0.00    +0.022 A 
ATOM     25  C   UNL     1       6.508   6.344  -1.314  0.00  0.00    +0.025 A 
ATOM     26 CL   UNL     1      10.097   8.087  -1.129  0.00  0.00    -0.084 Cl
ENDBRANCH   7  20
TORSDOF 2
