REMARK  Name = ZINC13499139
REMARK  11 active torsions:
REMARK  status: ('A' for Active; 'I' for Inactive)
REMARK    1  A    between atoms: C_1  and  C_2
REMARK    2  A    between atoms: C_7  and  C_15
REMARK    3  A    between atoms: C_13  and  C_14
REMARK    4  A    between atoms: C_15  and  N_78
REMARK    5  A    between atoms: C_16  and  N_78
REMARK    6  A    between atoms: C_22  and  C_24
REMARK    7  A    between atoms: C_22  and  C_35
REMARK    8  A    between atoms: C_22  and  N_78
REMARK    9  A    between atoms: N_28  and  C_29
REMARK   10  A    between atoms: C_35  and  C_36
REMARK   11  A    between atoms: C_35  and  C_37
REMARK                            x       y       z     vdW  Elec       q    Type
REMARK                         _______ _______ _______ _____ _____    ______ ____
ROOT
ATOM      1  N   UNL     1       2.771  -4.549  -1.304  0.00  0.00    +0.391 N 
ATOM      2  H   UNL     1       2.092  -4.101  -1.931  0.00  0.00    -0.080 HD
ENDROOT
BRANCH   1   3
ATOM      3  C   UNL     1       4.135  -4.288  -1.808  0.00  0.00    -0.067 C 
ATOM      4  C   UNL     1       5.143  -5.222  -1.135  0.00  0.00    -0.015 C 
ATOM      5  C   UNL     1       6.545  -4.937  -1.678  0.00  0.00    -0.002 C 
ATOM      6  C   UNL     1       6.920  -3.483  -1.382  0.00  0.00    -0.000 C 
ATOM      7  C   UNL     1       5.913  -2.549  -2.055  0.00  0.00    -0.002 C 
ATOM      8  C   UNL     1       4.511  -2.834  -1.512  0.00  0.00    -0.015 C 
ENDBRANCH   1   3
BRANCH   1   9
ATOM      9  C   UNL     1       2.617  -3.984   0.053  0.00  0.00    -0.036 C 
BRANCH   9  16
ATOM     10  C   UNL     1       8.210  -6.800   4.994  0.00  0.00    +0.044 C 
ATOM     11  C   UNL     1       7.300  -6.089   4.025  0.00  0.00    -0.046 A 
ATOM     12  C   UNL     1       7.702  -4.887   3.460  0.00  0.00    +0.004 A 
ATOM     13  C   UNL     1       6.893  -4.227   2.579  0.00  0.00    +0.010 A 
ATOM     14  C   UNL     1       5.647  -4.768   2.244  0.00  0.00    -0.001 A 
ATOM     15  C   UNL     1       4.755  -4.087   1.304  0.00  0.00    +0.017 A 
ATOM     16  C   UNL     1       3.559  -4.659   1.017  0.00  0.00    +0.001 A 
ATOM     17  C   UNL     1       3.194  -5.883   1.617  0.00  0.00    +0.251 A 
ATOM     18  O   UNL     1       2.115  -6.380   1.344  0.00  0.00    -0.268 OA
ATOM     19  N   UNL     1       4.007  -6.515   2.481  0.00  0.00    -0.322 N 
ATOM     20  H   UNL     1       3.725  -7.356   2.875  0.00  0.00    +0.169 HD
ATOM     21  C   UNL     1       5.236  -5.987   2.815  0.00  0.00    +0.052 A 
ATOM     22  C   UNL     1       6.077  -6.641   3.709  0.00  0.00    -0.024 A 
ATOM     23  C   UNL     1       5.652  -7.946   4.330  0.00  0.00    +0.046 C 
ENDBRANCH   9  16
ENDBRANCH   1   9
BRANCH   1  24
ATOM     24  C   UNL     1       2.512  -6.004  -1.277  0.00  0.00    +0.006 C 
BRANCH  24  25
ATOM     25  C   UNL     1       3.263  -6.667  -2.403  0.00  0.00    +0.139 A 
ATOM     26  N   UNL     1       3.398  -6.216  -3.626  0.00  0.00    -0.115 NA
ATOM     27  N   UNL     1       4.107  -7.065  -4.288  0.00  0.00    -0.023 NA
ATOM     28  N   UNL     1       4.428  -8.046  -3.518  0.00  0.00    -0.044 NA
ATOM     29  N   UNL     1       3.930  -7.835  -2.346  0.00  0.00    -0.228 N 
BRANCH  29  30
ATOM     30  C   UNL     1       4.064  -8.704  -1.175  0.00  0.00    +0.111 C 
ATOM     31  C   UNL     1       5.544  -8.859  -0.821  0.00  0.00    +0.027 C 
ATOM     32  C   UNL     1       5.684  -9.767   0.402  0.00  0.00    +0.002 C 
ATOM     33  C   UNL     1       5.088 -11.141   0.088  0.00  0.00    +0.000 C 
ATOM     34  C   UNL     1       3.608 -10.986  -0.266  0.00  0.00    +0.002 C 
ATOM     35  C   UNL     1       3.468 -10.078  -1.489  0.00  0.00    +0.027 C 
ENDBRANCH  29  30
ENDBRANCH  24  25
BRANCH  24  36
ATOM     36  C   UNL     1       1.011  -6.236  -1.460  0.00  0.00    -0.024 C 
ATOM     37  C   UNL     1       0.696  -7.719  -1.259  0.00  0.00    +0.006 C 
ATOM     38  C   UNL     1       0.238  -5.407  -0.432  0.00  0.00    +0.006 C 
ENDBRANCH  24  36
ENDBRANCH   1  24
TORSDOF 7
