REMARK  Name = ZINC19298502
REMARK  8 active torsions:
REMARK  status: ('A' for Active; 'I' for Inactive)
REMARK    1  A    between atoms: C_1  and  C_2
REMARK    2  A    between atoms: C_2  and  C_4
REMARK    3  A    between atoms: C_9  and  N_10
REMARK    4  A    between atoms: C_11  and  C_13
REMARK    5  A    between atoms: C_13  and  O_14
REMARK    6  A    between atoms: O_14  and  C_15
REMARK    7  A    between atoms: C_15  and  C_17
REMARK    8  A    between atoms: C_18  and  C_19
REMARK                            x       y       z     vdW  Elec       q    Type
REMARK                         _______ _______ _______ _____ _____    ______ ____
ROOT
ATOM      1  N   UNL     1       6.868  12.209  -0.008  0.00  0.00    -0.282 N 
ATOM      2  C   UNL     1       6.366  10.958  -0.008  0.00  0.00    +0.255 C 
ATOM      3  O   UNL     1       7.115  10.004  -0.006  0.00  0.00    -0.272 OA
ATOM      4  H   UNL     1       6.191  13.073  -0.085  0.00  0.00    +0.155 HD
ENDROOT
BRANCH   1  10
ATOM      5  C   UNL     1       8.748  13.516   0.793  0.00  0.00    +0.042 A 
ATOM      6  C   UNL     1      10.135  13.703   0.890  0.00  0.00    +0.062 A 
ATOM      7  C   UNL     1      10.994  12.811   0.286  0.00  0.00    +0.167 A 
ATOM      8  C   UNL     1      10.487  11.714  -0.418  0.00  0.00    +0.168 A 
ATOM      9  C   UNL     1       9.118  11.518  -0.513  0.00  0.00    +0.073 A 
ATOM     10  C   UNL     1       8.243  12.408   0.089  0.00  0.00    +0.048 A 
ATOM     11  O   UNL     1      11.534  10.995  -0.913  0.00  0.00    -0.453 OA
ATOM     12  C   UNL     1      12.686  11.426  -0.165  0.00  0.00    +0.466 C 
ATOM     13  O   UNL     1      12.358  12.771   0.227  0.00  0.00    -0.453 OA
BRANCH   5  15
ATOM     14  C   UNL     1       8.370  15.712   2.079  0.00  0.00    +0.091 C 
ATOM     15  C   UNL     1       7.831  14.465   1.427  0.00  0.00    +0.162 C 
ATOM     16  O   UNL     1       6.637  14.248   1.426  0.00  0.00    -0.292 OA
ENDBRANCH   5  15
ENDBRANCH   1  10
BRANCH   2  17
ATOM     17  C   UNL     1       4.874  10.745  -0.009  0.00  0.00    +0.328 C 
BRANCH  17  18
ATOM     18  O   UNL     1       4.593   9.343  -0.009  0.00  0.00    -0.452 OA
BRANCH  18  19
ATOM     19  C   UNL     1       3.294   8.979  -0.010  0.00  0.00    +0.332 C 
ATOM     20  O   UNL     1       2.423   9.829  -0.012  0.00  0.00    -0.246 OA
BRANCH  19  21
ATOM     21  C   UNL     1       2.944   7.609  -0.009  0.00  0.00    +0.093 C 
ATOM     22  C   UNL     1       1.638   7.242  -0.011  0.00  0.00    +0.023 C 
BRANCH  22  23
ATOM     23  C   UNL     1       1.287   5.869  -0.010  0.00  0.00    +0.032 A 
ATOM     24  C   UNL     1       0.034   5.304  -0.011  0.00  0.00    +0.063 A 
ATOM     25  C   UNL     1      -0.096   3.903  -0.011  0.00  0.00    +0.008 A 
ATOM     26  C   UNL     1      -1.288   3.134  -0.011  0.00  0.00    +0.010 A 
ATOM     27  C   UNL     1      -1.240   1.777  -0.017  0.00  0.00    +0.001 A 
ATOM     28  C   UNL     1      -0.031   1.091  -0.010  0.00  0.00    +0.001 A 
ATOM     29  C   UNL     1       1.153   1.801  -0.009  0.00  0.00    +0.016 A 
ATOM     30  C   UNL     1       1.120   3.179  -0.009  0.00  0.00    +0.021 A 
ATOM     31  S   UNL     1       2.364   4.446  -0.008  0.00  0.00    -0.087 S 
ATOM     32 CL   UNL     1      -1.380   6.312  -0.013  0.00  0.00    -0.082 Cl
ENDBRANCH  22  23
ENDBRANCH  19  21
ENDBRANCH  18  19
ENDBRANCH  17  18
ENDBRANCH   2  17
TORSDOF 7
