REMARK  Name = ZINC39507095
REMARK  4 active torsions:
REMARK  status: ('A' for Active; 'I' for Inactive)
REMARK    1  A    between atoms: C_4  and  O_26
REMARK    2  A    between atoms: C_5  and  C_7
REMARK    3  A    between atoms: C_14  and  C_19
REMARK    4  A    between atoms: C_24  and  O_25
REMARK                            x       y       z     vdW  Elec       q    Type
REMARK                         _______ _______ _______ _____ _____    ______ ____
ROOT
ATOM      1  C   UNL     1       1.227  -2.187  -0.022  0.00  0.00    +0.024 C 
ATOM      2  C   UNL     1       0.438  -2.753   1.186  0.00  0.00    +0.010 C 
ATOM      3  C   UNL     1       0.019  -4.168   0.734  0.00  0.00    +0.024 C 
ATOM      4  C   UNL     1       0.019  -4.152  -0.799  0.00  0.00    +0.032 C 
ATOM      5  C   UNL     1       0.443  -2.739  -1.240  0.00  0.00    +0.031 C 
ATOM      6  C   UNL     1       1.013  -5.191  -1.344  0.00  0.00    +0.032 C 
ATOM      7  C   UNL     1       0.096  -6.391  -1.704  0.00  0.00    +0.039 C 
ATOM      8  C   UNL     1      -1.184  -5.670  -2.199  0.00  0.00    +0.104 C 
ATOM      9  N   UNL     1      -1.312  -4.482  -1.325  0.00  0.00    -0.240 NA
ATOM     10  I   UNL     1      -2.110  -2.898  -2.352  0.00  0.00    +0.021 I 
ENDROOT
BRANCH   1  15
ATOM     11  C   UNL     1      -0.017   1.378   0.010  0.00  0.00    +0.001 A 
ATOM     12  C   UNL     1       1.170   2.088   0.002  0.00  0.00    +0.004 A 
ATOM     13  C   UNL     1       2.377   1.417  -0.013  0.00  0.00    +0.046 A 
ATOM     14  C   UNL     1       2.399   0.030  -0.021  0.00  0.00    +0.120 A 
ATOM     15  C   UNL     1       1.207  -0.680  -0.013  0.00  0.00    -0.003 A 
ATOM     16  C   UNL     1       0.002  -0.004   0.002  0.00  0.00    +0.007 A 
BRANCH  14  17
ATOM     17  O   UNL     1       3.586  -0.632  -0.037  0.00  0.00    -0.506 OA
ATOM     18  H   UNL     1       3.938  -0.829   0.842  0.00  0.00    +0.292 HD
ENDBRANCH  14  17
ENDBRANCH   1  15
BRANCH   7  19
ATOM     19  C   UNL     1       0.705  -7.225  -2.801  0.00  0.00    -0.002 A 
ATOM     20  C   UNL     1       0.979  -6.657  -4.031  0.00  0.00    +0.007 A 
ATOM     21  C   UNL     1       1.537  -7.422  -5.038  0.00  0.00    +0.001 A 
ATOM     22  C   UNL     1       1.823  -8.757  -4.818  0.00  0.00    +0.004 A 
ATOM     23  C   UNL     1       1.551  -9.329  -3.591  0.00  0.00    +0.046 A 
ATOM     24  C   UNL     1       0.996  -8.562  -2.576  0.00  0.00    +0.120 A 
BRANCH  24  25
ATOM     25  O   UNL     1       0.733  -9.122  -1.366  0.00  0.00    -0.506 OA
ATOM     26  H   UNL     1      -0.152  -9.507  -1.294  0.00  0.00    +0.292 HD
ENDBRANCH  24  25
ENDBRANCH   7  19
TORSDOF 4
