REMARK  Name = ZINC60339773
REMARK  12 active torsions:
REMARK  status: ('A' for Active; 'I' for Inactive)
REMARK    1  A    between atoms: C_1  and  C_2
REMARK    2  A    between atoms: C_2  and  C_3
REMARK    3  A    between atoms: C_2  and  C_4
REMARK    4  A    between atoms: C_2  and  O_5
REMARK    5  A    between atoms: O_5  and  C_6
REMARK    6  A    between atoms: N_8  and  C_9
REMARK    7  A    between atoms: N_8  and  C_10
REMARK    8  A    between atoms: C_10  and  C_11
REMARK    9  A    between atoms: N_16  and  C_18
REMARK   10  A    between atoms: C_18  and  C_19
REMARK   11  A    between atoms: N_21  and  C_22
REMARK   12  A    between atoms: C_22  and  C_27
REMARK                            x       y       z     vdW  Elec       q    Type
REMARK                         _______ _______ _______ _____ _____    ______ ____
ROOT
ATOM      1  C   UNL     1       9.905  -1.819  -1.105  0.00  0.00    +0.197 C 
ATOM      2  O   UNL     1       9.241  -2.770  -0.753  0.00  0.00    -0.278 OA
ATOM      3  N   UNL     1      11.180  -1.695  -0.686  0.00  0.00    -0.307 N 
ATOM      4  H   UNL     1      11.734  -0.974  -1.024  0.00  0.00    +0.149 HD
ENDROOT
BRANCH   3   5
ATOM      5  C   UNL     1      11.729  -2.649   0.281  0.00  0.00    +0.060 C 
ATOM      6  C   UNL     1      13.123  -2.183   0.750  0.00  0.00    +0.030 C 
ATOM      7  C   UNL     1      12.844  -1.420   2.070  0.00  0.00    +0.002 C 
ATOM      8  C   UNL     1      11.721  -2.264   2.722  0.00  0.00    +0.002 C 
ATOM      9  C   UNL     1      10.838  -2.701   1.535  0.00  0.00    +0.030 C 
BRANCH   5  10
ATOM     10  C   UNL     1      11.824  -4.018  -0.342  0.00  0.00    -0.020 A 
ATOM     11  C   UNL     1      11.906  -5.138   0.464  0.00  0.00    +0.009 A 
ATOM     12  C   UNL     1      11.995  -6.395  -0.103  0.00  0.00    +0.050 A 
ATOM     13  C   UNL     1      12.001  -6.536  -1.483  0.00  0.00    +0.162 A 
ATOM     14  C   UNL     1      11.917  -5.410  -2.293  0.00  0.00    +0.162 A 
ATOM     15  C   UNL     1      11.824  -4.152  -1.717  0.00  0.00    +0.055 A 
ATOM     16  O   UNL     1      11.914  -5.526  -3.649  0.00  0.00    -0.485 OA
ATOM     17  C   UNL     1      12.377  -6.768  -4.190  0.00  0.00    +0.270 C 
ATOM     18  C   UNL     1      11.719  -7.910  -3.403  0.00  0.00    +0.270 C 
ATOM     19  O   UNL     1      12.093  -7.780  -2.027  0.00  0.00    -0.485 OA
ENDBRANCH   5  10
ENDBRANCH   3   5
BRANCH   1  20
ATOM     20  C   UNL     1       9.306  -0.775  -2.012  0.00  0.00    +0.019 C 
BRANCH  20  25
ATOM     21  C   UNL     1       5.823  -0.393  -3.357  0.00  0.00    -0.010 C 
ATOM     22  C   UNL     1       5.734  -1.706  -4.141  0.00  0.00    +0.001 C 
ATOM     23  C   UNL     1       6.451  -2.808  -3.356  0.00  0.00    -0.018 C 
ATOM     24  C   UNL     1       7.899  -2.383  -3.099  0.00  0.00    -0.078 C 
ATOM     25  N   UNL     1       7.917  -1.137  -2.323  0.00  0.00    +0.386 N 
ATOM     26  C   UNL     1       7.294  -0.058  -3.099  0.00  0.00    -0.073 C 
ATOM     27  H   UNL     1       7.405  -1.270  -1.464  0.00  0.00    -0.081 HD
BRANCH  21  28
ATOM     28  C   UNL     1       5.178   0.732  -4.169  0.00  0.00    +0.112 C 
BRANCH  28  31
ATOM     29  C   UNL     1       2.875   0.936  -3.398  0.00  0.00    +0.403 C 
ATOM     30  O   UNL     1       3.280   1.577  -2.449  0.00  0.00    -0.226 OA
ATOM     31  N   UNL     1       3.744   0.467  -4.316  0.00  0.00    -0.270 N 
ATOM     32  C   UNL     1       3.255  -0.307  -5.460  0.00  0.00    +0.135 C 
BRANCH  29  33
ATOM     33  O   UNL     1       1.558   0.693  -3.533  0.00  0.00    -0.445 OA
BRANCH  33  35
ATOM     34  C   UNL     1       0.829   2.743  -2.481  0.00  0.00    +0.055 C 
ATOM     35  C   UNL     1       0.694   1.219  -2.524  0.00  0.00    +0.107 C 
ATOM     36  C   UNL     1       1.083   0.635  -1.164  0.00  0.00    +0.055 C 
ATOM     37  C   UNL     1      -0.754   0.844  -2.845  0.00  0.00    +0.055 C 
ENDBRANCH  33  35
ENDBRANCH  29  33
ENDBRANCH  28  31
ENDBRANCH  21  28
ENDBRANCH  20  25
ENDBRANCH   1  20
TORSDOF 8
