REMARK  Name = ZINC37581564
REMARK  9 active torsions:
REMARK  status: ('A' for Active; 'I' for Inactive)
REMARK    1  A    between atoms: C_1  and  C_2
REMARK    2  A    between atoms: C_2  and  C_4
REMARK    3  A    between atoms: C_2  and  N_7
REMARK    4  A    between atoms: N_7  and  C_8
REMARK    5  A    between atoms: N_7  and  S_9
REMARK    6  A    between atoms: S_9  and  C_12
REMARK    7  A    between atoms: C_15  and  C_19
REMARK    8  A    between atoms: C_20  and  C_21
REMARK    9  A    between atoms: C_21  and  N_22
REMARK                            x       y       z     vdW  Elec       q    Type
REMARK                         _______ _______ _______ _____ _____    ______ ____
ROOT
ATOM      1  C   UNL     1       3.449  -0.328   0.964  0.00  0.00    +0.124 A 
ATOM      2  C   UNL     1       4.396  -0.363   1.972  0.00  0.00    +0.031 A 
ATOM      3  C   UNL     1       5.479   0.491   1.934  0.00  0.00    +0.019 A 
ATOM      4  C   UNL     1       5.618   1.391   0.877  0.00  0.00    +0.026 A 
ATOM      5  C   UNL     1       4.660   1.423  -0.136  0.00  0.00    +0.038 A 
ATOM      6  C   UNL     1       3.583   0.559  -0.090  0.00  0.00    +0.068 A 
ATOM      7 CL   UNL     1       2.393   0.590  -1.354  0.00  0.00    -0.081 Cl
ENDROOT
BRANCH   1   8
ATOM      8  S   UNL     1       2.068  -1.422   1.019  0.00  0.00    +0.062 S 
ATOM      9  O   UNL     1       2.195  -2.176   2.217  0.00  0.00    -0.153 OA
ATOM     10  O   UNL     1       1.983  -2.034  -0.261  0.00  0.00    -0.153 OA
BRANCH   8  11
ATOM     11  N   UNL     1       0.711  -0.489   1.189  0.00  0.00    -0.177 NA
ATOM     12  C   UNL     1       0.218  -0.149   2.526  0.00  0.00    +0.132 C 
BRANCH  11  14
ATOM     13  C   UNL     1      -0.019   1.526   0.010  0.00  0.00    +0.026 C 
ATOM     14  C   UNL     1       0.002  -0.004   0.002  0.00  0.00    +0.080 C 
BRANCH  14  15
ATOM     15  C   UNL     1      -1.433  -0.534   0.013  0.00  0.00    +0.008 C 
ATOM     16  C   UNL     1      -1.813  -1.567  -1.049  0.00  0.00    +0.005 C 
ATOM     17  C   UNL     1      -2.342  -0.135  -1.152  0.00  0.00    +0.005 C 
ENDBRANCH  14  15
ENDBRANCH  11  14
ENDBRANCH   8  11
ENDBRANCH   1   8
BRANCH   4  18
ATOM     18  C   UNL     1       6.740   2.280   0.834  0.00  0.00    -0.068 C 
ATOM     19  C   UNL     1       7.660   3.009   0.798  0.00  0.00    -0.117 C 
BRANCH  19  20
ATOM     20  C   UNL     1       8.813   3.923   0.753  0.00  0.00    +0.005 C 
BRANCH  20  21
ATOM     21  N   UNL     1       8.727   4.762  -0.450  0.00  0.00    +0.385 N 
ATOM     22  H   UNL     1       8.731   4.174  -1.270  0.00  0.00    -0.089 HD
ATOM     23  H   UNL     1       7.873   5.298  -0.425  0.00  0.00    -0.089 HD
ATOM     24  H   UNL     1       9.517   5.388  -0.481  0.00  0.00    -0.089 HD
ENDBRANCH  20  21
ENDBRANCH  19  20
ENDBRANCH   4  18
TORSDOF 7
