REMARK  Name = ZINC04172415
REMARK  14 active torsions:
REMARK  status: ('A' for Active; 'I' for Inactive)
REMARK    1  A    between atoms: C_1  and  C_2
REMARK    2  A    between atoms: C_9  and  C_16
REMARK    3  A    between atoms: C_10  and  N_11
REMARK    4  A    between atoms: N_11  and  C_12
REMARK    5  A    between atoms: C_12  and  C_13
REMARK    6  A    between atoms: C_12  and  C_14
REMARK    7  A    between atoms: C_12  and  C_15
REMARK    8  A    between atoms: C_20  and  O_22
REMARK    9  A    between atoms: O_22  and  S_23
REMARK   10  A    between atoms: S_23  and  C_26
REMARK   11  A    between atoms: C_29  and  C_32
REMARK   12  A    between atoms: C_32  and  C_33
REMARK   13  A    between atoms: C_32  and  C_34
REMARK   14  A    between atoms: C_32  and  C_35
REMARK                            x       y       z     vdW  Elec       q    Type
REMARK                         _______ _______ _______ _____ _____    ______ ____
ROOT
ATOM      1  C   UNL     1       0.326  -3.257   2.083  0.00  0.00    +0.005 A 
ATOM      2  C   UNL     1       1.094  -4.413   2.227  0.00  0.00    +0.010 A 
ATOM      3  C   UNL     1       1.076  -5.109   3.418  0.00  0.00    +0.004 A 
ATOM      4  C   UNL     1       0.297  -4.665   4.471  0.00  0.00    +0.048 A 
ATOM      5  C   UNL     1      -0.471  -3.516   4.336  0.00  0.00    +0.157 A 
ATOM      6  C   UNL     1      -0.454  -2.807   3.146  0.00  0.00    +0.058 A 
ENDROOT
BRANCH   1  15
ATOM      7  C   UNL     1       0.552   1.727  -3.370  0.00  0.00    +0.044 C 
ATOM      8  C   UNL     1       0.467   0.411  -2.639  0.00  0.00    -0.046 A 
ATOM      9  C   UNL     1       0.340  -0.789  -3.360  0.00  0.00    +0.021 A 
ATOM     10  C   UNL     1       0.263  -1.968  -2.712  0.00  0.00    +0.094 A 
ATOM     11  N   UNL     1       0.308  -2.016  -1.345  0.00  0.00    -0.289 N 
ATOM     12  C   UNL     1       0.433  -0.858  -0.612  0.00  0.00    +0.117 A 
ATOM     13  C   UNL     1       0.519   0.381  -1.281  0.00  0.00    +0.048 A 
ATOM     14  N   UNL     1       0.452  -1.173   0.673  0.00  0.00    -0.338 N 
ATOM     15  C   UNL     1       0.344  -2.507   0.805  0.00  0.00    +0.087 A 
ATOM     16  C   UNL     1       0.252  -3.055  -0.458  0.00  0.00    +0.129 A 
ATOM     17  H   UNL     1       0.532  -0.541   1.404  0.00  0.00    +0.167 HD
BRANCH  16  18
ATOM     18  N   UNL     1       0.126  -4.409  -0.769  0.00  0.00    -0.324 N 
ATOM     19  H   UNL     1       0.158  -5.074  -0.064  0.00  0.00    +0.148 HD
BRANCH  18  20
ATOM     20  C   UNL     1      -0.054  -4.826  -2.162  0.00  0.00    +0.025 C 
ATOM     21  C   UNL     1       1.194  -4.464  -2.969  0.00  0.00    +0.031 C 
ATOM     22  C   UNL     1      -0.275  -6.339  -2.216  0.00  0.00    +0.031 C 
ATOM     23  C   UNL     1      -1.270  -4.112  -2.755  0.00  0.00    +0.031 C 
ENDBRANCH  18  20
ENDBRANCH  16  18
ENDBRANCH   1  15
BRANCH   5  24
ATOM     24  O   UNL     1      -1.235  -3.085   5.373  0.00  0.00    -0.342 OA
BRANCH  24  25
ATOM     25  S   UNL     1      -0.520  -2.122   6.311  0.00  0.00    +0.151 S 
ATOM     26  O   UNL     1      -1.373  -1.938   7.432  0.00  0.00    -0.131 OA
ATOM     27  O   UNL     1       0.814  -2.595   6.438  0.00  0.00    -0.131 OA
BRANCH  25  28
ATOM     28  C   UNL     1      -0.427  -0.567   5.488  0.00  0.00    +0.128 A 
ATOM     29  C   UNL     1       0.658  -0.274   4.683  0.00  0.00    +0.031 A 
ATOM     30  C   UNL     1       0.731   0.946   4.038  0.00  0.00    +0.006 A 
ATOM     31  C   UNL     1      -0.281   1.874   4.197  0.00  0.00    -0.042 A 
ATOM     32  C   UNL     1      -1.367   1.581   5.002  0.00  0.00    +0.006 A 
ATOM     33  C   UNL     1      -1.442   0.359   5.644  0.00  0.00    +0.031 A 
BRANCH  31  34
ATOM     34  C   UNL     1      -0.201   3.205   3.495  0.00  0.00    -0.013 C 
ATOM     35  C   UNL     1      -0.140   2.980   1.983  0.00  0.00    +0.015 C 
ATOM     36  C   UNL     1      -1.438   4.038   3.837  0.00  0.00    +0.015 C 
ATOM     37  C   UNL     1       1.057   3.947   3.951  0.00  0.00    +0.015 C 
ENDBRANCH  31  34
ENDBRANCH  25  28
ENDBRANCH  24  25
ENDBRANCH   5  24
TORSDOF 7
