REMARK  Name = ZINC19353249
REMARK  7 active torsions:
REMARK  status: ('A' for Active; 'I' for Inactive)
REMARK    1  A    between atoms: C_7  and  N_12
REMARK    2  A    between atoms: C_13  and  C_15
REMARK    3  A    between atoms: C_15  and  S_16
REMARK    4  A    between atoms: S_16  and  C_17
REMARK    5  A    between atoms: N_22  and  C_23
REMARK    6  A    between atoms: C_26  and  O_29
REMARK    7  A    between atoms: O_29  and  C_30
REMARK                            x       y       z     vdW  Elec       q    Type
REMARK                         _______ _______ _______ _____ _____    ______ ____
ROOT
ATOM      1  C   UNL     1       3.726   2.501  -0.448  0.00  0.00    +0.160 A 
ATOM      2  N   UNL     1       2.720   3.344  -0.586  0.00  0.00    -0.133 NA
ATOM      3  N   UNL     1       1.427   2.893  -0.451  0.00  0.00    -0.125 NA
ATOM      4  C   UNL     1       1.200   1.624  -0.174  0.00  0.00    +0.187 A 
ATOM      5  S   UNL     1       2.863   0.976  -0.101  0.00  0.00    -0.024 S 
ATOM      6  N   UNL     1      -0.011   0.966   0.007  0.00  0.00    -0.292 N 
ATOM      7  H   UNL     1      -0.022  -0.085   0.333  0.00  0.00    +0.154 HD
ENDROOT
BRANCH   6   8
ATOM      8  C   UNL     1      -1.216   1.639  -0.225  0.00  0.00    +0.033 A 
ATOM      9  C   UNL     1      -2.374   1.237   0.427  0.00  0.00    +0.027 A 
ATOM     10  C   UNL     1      -3.561   1.905   0.201  0.00  0.00    +0.048 A 
ATOM     11  C   UNL     1      -3.599   2.972  -0.685  0.00  0.00    +0.130 A 
ATOM     12  C   UNL     1      -2.444   3.371  -1.341  0.00  0.00    +0.048 A 
ATOM     13  C   UNL     1      -1.255   2.707  -1.112  0.00  0.00    +0.027 A 
BRANCH  11  14
ATOM     14  O   UNL     1      -4.769   3.626  -0.911  0.00  0.00    -0.406 OA
BRANCH  14  15
ATOM     15  C   UNL     1      -5.920   3.162  -0.201  0.00  0.00    +0.575 C 
ATOM     16  F   UNL     1      -5.691   3.264   1.175  0.00  0.00    -0.133 F 
ATOM     17  F   UNL     1      -7.028   3.941  -0.549  0.00  0.00    -0.133 F 
ATOM     18  F   UNL     1      -6.166   1.826  -0.536  0.00  0.00    -0.133 F 
ENDBRANCH  14  15
ENDBRANCH  11  14
ENDBRANCH   6   8
BRANCH   1  19
ATOM     19  S   UNL     1       5.458   2.800  -0.573  0.00  0.00    -0.088 S 
BRANCH  19  20
ATOM     20  C   UNL     1       5.572   4.571  -0.945  0.00  0.00    +0.172 C 
BRANCH  20  22
ATOM     21  N   UNL     1       7.350   6.242  -1.356  0.00  0.00    -0.308 N 
ATOM     22  C   UNL     1       7.021   4.964  -1.079  0.00  0.00    +0.224 C 
ATOM     23  O   UNL     1       7.891   4.131  -0.938  0.00  0.00    -0.275 OA
ATOM     24  H   UNL     1       6.561   6.997  -1.484  0.00  0.00    +0.149 HD
BRANCH  21  31
ATOM     25  C   UNL     1       9.499   6.338   2.198  0.00  0.00    +0.001 A 
ATOM     26  C   UNL     1      10.336   7.418   2.411  0.00  0.00    +0.004 A 
ATOM     27  C   UNL     1      10.666   8.251   1.362  0.00  0.00    +0.046 A 
ATOM     28  C   UNL     1      10.159   8.008   0.089  0.00  0.00    +0.125 A 
ATOM     29  C   UNL     1       9.325   6.925  -0.122  0.00  0.00    +0.014 A 
ATOM     30  C   UNL     1       8.996   6.093   0.935  0.00  0.00    +0.009 A 
ATOM     31  C   UNL     1       8.758   6.623  -1.486  0.00  0.00    +0.110 C 
ATOM     32  C   UNL     1       8.870   7.864  -2.377  0.00  0.00    +0.068 C 
ATOM     33  C   UNL     1      10.297   8.414  -2.260  0.00  0.00    +0.231 C 
ATOM     34  O   UNL     1      10.500   8.856  -0.917  0.00  0.00    -0.492 OA
ENDBRANCH  21  31
ENDBRANCH  20  22
ENDBRANCH  19  20
ENDBRANCH   1  19
TORSDOF 7
