REMARK  Name = ZINC08798057
REMARK  7 active torsions:
REMARK  status: ('A' for Active; 'I' for Inactive)
REMARK    1  A    between atoms: C_1  and  C_2
REMARK    2  A    between atoms: C_3  and  C_8
REMARK    3  A    between atoms: N_10  and  N_11
REMARK    4  A    between atoms: C_12  and  C_13
REMARK    5  A    between atoms: C_18  and  O_19
REMARK    6  A    between atoms: O_19  and  C_20
REMARK    7  A    between atoms: C_20  and  C_21
REMARK                            x       y       z     vdW  Elec       q    Type
REMARK                         _______ _______ _______ _____ _____    ______ ____
ROOT
ATOM      1  N   UNL     1      -2.536   5.164   0.054  0.00  0.00    -0.187 NA
ATOM      2  C   UNL     1      -2.522   3.865   0.047  0.00  0.00    +0.142 C 
ENDROOT
BRANCH   2   3
ATOM      3  C   UNL     1      -1.237   3.143   0.031  0.00  0.00    +0.036 A 
ATOM      4  C   UNL     1      -1.218   1.746   0.017  0.00  0.00    +0.013 A 
ATOM      5  C   UNL     1      -0.013   1.076   0.008  0.00  0.00    +0.001 A 
ATOM      6  C   UNL     1       1.179   1.781   0.000  0.00  0.00    +0.004 A 
ATOM      7  C   UNL     1       1.172   3.163   0.008  0.00  0.00    +0.046 A 
ATOM      8  C   UNL     1      -0.029   3.853   0.024  0.00  0.00    +0.130 A 
BRANCH   8   9
ATOM      9  O   UNL     1      -0.036   5.211   0.032  0.00  0.00    -0.487 OA
BRANCH   9  10
ATOM     10  C   UNL     1       1.234   5.866   0.024  0.00  0.00    +0.264 C 
BRANCH  10  11
ATOM     11  C   UNL     1       1.028   7.359   0.035  0.00  0.00    -0.010 A 
ATOM     12  C   UNL     1       0.929   8.052  -1.158  0.00  0.00    +0.008 A 
ATOM     13  C   UNL     1       0.736   9.420  -1.148  0.00  0.00    +0.015 A 
ATOM     14  C   UNL     1       0.653  10.098   0.055  0.00  0.00    +0.018 A 
ATOM     15  C   UNL     1       0.758   9.406   1.247  0.00  0.00    +0.015 A 
ATOM     16  C   UNL     1       0.946   8.037   1.237  0.00  0.00    +0.008 A 
ATOM     17 BR   UNL     1       0.395  11.972   0.068  0.00  0.00    -0.050 Br
ENDBRANCH  10  11
ENDBRANCH   9  10
ENDBRANCH   8   9
ENDBRANCH   2   3
BRANCH   1  20
ATOM     18  C   UNL     1      -3.771   7.198   0.077  0.00  0.00    +0.272 C 
ATOM     19  O   UNL     1      -2.723   7.819   0.071  0.00  0.00    -0.268 OA
ATOM     20  N   UNL     1      -3.757   5.851   0.070  0.00  0.00    -0.202 N 
ATOM     21  H   UNL     1      -4.591   5.357   0.075  0.00  0.00    +0.178 HD
BRANCH  18  24
ATOM     22  C   UNL     1      -4.164  10.278   0.111  0.00  0.00    +0.067 C 
ATOM     23  C   UNL     1      -5.294   9.281   0.109  0.00  0.00    +0.060 A 
ATOM     24  C   UNL     1      -5.045   7.915   0.093  0.00  0.00    +0.100 A 
ATOM     25  S   UNL     1      -6.714   7.277   0.106  0.00  0.00    -0.048 S 
ATOM     26  C   UNL     1      -7.541   8.804   0.122  0.00  0.00    +0.156 A 
ATOM     27  N   UNL     1      -6.541   9.673   0.117  0.00  0.00    -0.230 NA
ATOM     28  N   UNL     1      -8.898   9.050   0.137  0.00  0.00    -0.337 N 
ATOM     29  H   UNL     1      -9.525   8.310   0.139  0.00  0.00    +0.144 HD
ATOM     30  H   UNL     1      -9.225   9.963   0.145  0.00  0.00    +0.144 HD
ENDBRANCH  18  24
ENDBRANCH   1  20
TORSDOF 6
