REMARK  Name = ZINC63270701
REMARK  6 active torsions:
REMARK  status: ('A' for Active; 'I' for Inactive)
REMARK    1  A    between atoms: C_1  and  O_2
REMARK    2  A    between atoms: O_2  and  C_3
REMARK    3  A    between atoms: C_3  and  C_5
REMARK    4  A    between atoms: C_5  and  C_7
REMARK    5  A    between atoms: C_5  and  N_14
REMARK    6  A    between atoms: C_7  and  C_8
REMARK                            x       y       z     vdW  Elec       q    Type
REMARK                         _______ _______ _______ _____ _____    ______ ____
ROOT
ATOM      1  N   UNL     1      -2.644  -2.565   0.013  0.00  0.00    -0.286 N 
ATOM      2  C   UNL     1      -3.306  -2.679   1.182  0.00  0.00    +0.303 C 
ATOM      3  O   UNL     1      -2.717  -2.510   2.233  0.00  0.00    -0.253 OA
ATOM      4  N   UNL     1      -4.619  -2.981   1.186  0.00  0.00    -0.283 N 
ATOM      5  C   UNL     1      -5.294  -3.302  -0.075  0.00  0.00    +0.114 C 
ATOM      6  C   UNL     1      -5.924  -4.704   0.023  0.00  0.00    +0.052 C 
ATOM      7  C   UNL     1      -6.626  -4.769   1.357  0.00  0.00    -0.036 C 
ATOM      8  C   UNL     1      -7.868  -5.110   1.680  0.00  0.00    -0.001 A 
ATOM      9  C   UNL     1      -8.976  -5.651   0.876  0.00  0.00    +0.010 A 
ATOM     10  C   UNL     1     -10.143  -5.872   1.537  0.00  0.00    +0.001 A 
ATOM     11  C   UNL     1     -10.317  -5.612   2.900  0.00  0.00    +0.002 A 
ATOM     12  C   UNL     1      -9.351  -5.122   3.716  0.00  0.00    +0.026 A 
ATOM     13  C   UNL     1      -8.075  -4.857   3.139  0.00  0.00    +0.043 A 
ATOM     14  N   UNL     1      -6.981  -4.415   3.683  0.00  0.00    -0.376 N 
ATOM     15  C   UNL     1      -5.934  -4.390   2.661  0.00  0.00    +0.124 C 
ATOM     16  C   UNL     1      -5.360  -2.989   2.458  0.00  0.00    +0.138 C 
ATOM     17  H   UNL     1      -3.095  -2.771  -0.821  0.00  0.00    +0.151 HD
ATOM     18  H   UNL     1      -6.876  -4.146   4.610  0.00  0.00    +0.160 HD
ENDROOT
BRANCH   1  19
ATOM     19  C   UNL     1      -1.245  -2.130   0.003  0.00  0.00    +0.187 C 
BRANCH  19  20
ATOM     20  C   UNL     1      -1.187  -0.624   0.017  0.00  0.00    +0.328 C 
ATOM     21  O   UNL     1      -2.209   0.020   0.034  0.00  0.00    -0.249 OA
BRANCH  20  23
ATOM     22  C   UNL     1      -0.019   1.430   0.025  0.00  0.00    +0.280 C 
ATOM     23  O   UNL     1       0.001   0.001   0.010  0.00  0.00    -0.467 OA
ENDBRANCH  20  23
ENDBRANCH  19  20
BRANCH  19  24
ATOM     24  C   UNL     1      -0.557  -2.655  -1.259  0.00  0.00    +0.069 C 
BRANCH  24  25
ATOM     25  C   UNL     1      -0.507  -4.161  -1.214  0.00  0.00    -0.045 A 
ATOM     26  C   UNL     1       0.573  -4.799  -0.632  0.00  0.00    +0.004 A 
ATOM     27  C   UNL     1       0.619  -6.180  -0.591  0.00  0.00    +0.000 A 
ATOM     28  C   UNL     1      -0.414  -6.923  -1.131  0.00  0.00    +0.000 A 
ATOM     29  C   UNL     1      -1.494  -6.285  -1.711  0.00  0.00    +0.000 A 
ATOM     30  C   UNL     1      -1.543  -4.904  -1.749  0.00  0.00    +0.004 A 
ENDBRANCH  24  25
ENDBRANCH  19  24
ENDBRANCH   1  19
TORSDOF 5
