REMARK  Name = ZINC35723435
REMARK  6 active torsions:
REMARK  status: ('A' for Active; 'I' for Inactive)
REMARK    1  A    between atoms: C_4  and  C_7
REMARK    2  A    between atoms: C_7  and  C_8
REMARK    3  A    between atoms: C_8  and  C_10
REMARK    4  A    between atoms: C_8  and  N_24
REMARK    5  A    between atoms: C_16  and  C_18
REMARK    6  A    between atoms: C_25  and  C_27
REMARK                            x       y       z     vdW  Elec       q    Type
REMARK                         _______ _______ _______ _____ _____    ______ ____
ROOT
ATOM      1  C   UNL     1       4.171  -0.963   1.399  0.00  0.00    +0.163 C 
ENDROOT
BRANCH   1   2
ATOM      2  C   UNL     1       5.422  -1.804   1.383  0.00  0.00    +0.239 C 
ATOM      3  O   UNL     1       6.446  -1.378   1.874  0.00  0.00    -0.273 OA
ATOM      4  N   UNL     1       5.402  -3.031   0.824  0.00  0.00    -0.262 N 
ATOM      5  C   UNL     1       6.555  -3.806   0.810  0.00  0.00    +0.188 A 
ATOM      6  N   UNL     1       7.751  -3.526   1.292  0.00  0.00    -0.125 NA
ATOM      7  N   UNL     1       8.714  -4.339   1.205  0.00  0.00    -0.140 NA
ATOM      8  C   UNL     1       8.513  -5.509   0.611  0.00  0.00    +0.134 A 
ATOM      9  S   UNL     1       6.786  -5.353   0.179  0.00  0.00    -0.030 S 
ATOM     10  H   UNL     1       4.583  -3.372   0.432  0.00  0.00    +0.157 HD
BRANCH   8  11
ATOM     11  C   UNL     1       9.451  -6.627   0.378  0.00  0.00    +0.009 A 
ATOM     12  C   UNL     1       9.019  -7.778  -0.283  0.00  0.00    +0.010 A 
ATOM     13  C   UNL     1       9.900  -8.818  -0.497  0.00  0.00    +0.001 A 
ATOM     14  C   UNL     1      11.209  -8.722  -0.060  0.00  0.00    +0.000 A 
ATOM     15  C   UNL     1      11.643  -7.584   0.596  0.00  0.00    +0.001 A 
ATOM     16  C   UNL     1      10.774  -6.534   0.812  0.00  0.00    +0.010 A 
ENDBRANCH   8  11
ENDBRANCH   1   2
BRANCH   1  17
ATOM     17  N   UNL     1       4.451   0.315   2.057  0.00  0.00    -0.303 N 
ATOM     18  C   UNL     1       3.451   1.007   2.638  0.00  0.00    +0.220 C 
ATOM     19  O   UNL     1       2.319   0.571   2.616  0.00  0.00    -0.275 OA
ATOM     20  H   UNL     1       5.356   0.664   2.075  0.00  0.00    +0.149 HD
BRANCH  18  21
ATOM     21  C   UNL     1       3.739   2.322   3.316  0.00  0.00    +0.048 C 
ATOM     22  C   UNL     1       4.324   3.303   2.297  0.00  0.00    +0.019 C 
ATOM     23  C   UNL     1       4.616   4.638   2.985  0.00  0.00    -0.009 C 
ATOM     24  C   UNL     1       3.318   5.211   3.558  0.00  0.00    +0.007 C 
ATOM     25  C   UNL     1       2.733   4.231   4.576  0.00  0.00    -0.009 C 
ATOM     26  C   UNL     1       2.441   2.896   3.888  0.00  0.00    +0.019 C 
ATOM     27  C   UNL     1       3.738   4.012   5.709  0.00  0.00    +0.007 C 
ATOM     28  C   UNL     1       5.035   3.438   5.136  0.00  0.00    -0.009 C 
ATOM     29  C   UNL     1       5.621   4.419   4.118  0.00  0.00    +0.007 C 
ATOM     30  C   UNL     1       4.743   2.103   4.449  0.00  0.00    +0.019 C 
ENDBRANCH  18  21
ENDBRANCH   1  17
BRANCH   1  31
ATOM     31  C   UNL     1       3.711  -0.707  -0.038  0.00  0.00    +0.067 C 
BRANCH  31  35
ATOM     32  C   UNL     1      -0.017   1.378   0.010  0.00  0.00    +0.000 A 
ATOM     33  C   UNL     1       1.171   2.086   0.002  0.00  0.00    +0.000 A 
ATOM     34  C   UNL     1       2.377   1.411  -0.013  0.00  0.00    +0.004 A 
ATOM     35  C   UNL     1       2.396   0.029  -0.020  0.00  0.00    -0.045 A 
ATOM     36  C   UNL     1       1.208  -0.679  -0.012  0.00  0.00    +0.004 A 
ATOM     37  C   UNL     1       0.002  -0.004   0.002  0.00  0.00    +0.000 A 
ENDBRANCH  31  35
ENDBRANCH   1  31
TORSDOF 6
