REMARK  Name = ZINC35991191
REMARK  11 active torsions:
REMARK  status: ('A' for Active; 'I' for Inactive)
REMARK    1  A    between atoms: C_1  and  C_2
REMARK    2  A    between atoms: C_2  and  N_3
REMARK    3  A    between atoms: N_6  and  C_9
REMARK    4  A    between atoms: C_9  and  C_10
REMARK    5  A    between atoms: C_11  and  C_29
REMARK    6  A    between atoms: C_12  and  C_21
REMARK    7  A    between atoms: N_17  and  C_18
REMARK    8  A    between atoms: C_18  and  C_19
REMARK    9  A    between atoms: C_29  and  O_31
REMARK   10  A    between atoms: O_31  and  C_32
REMARK   11  A    between atoms: C_32  and  C_33
REMARK                            x       y       z     vdW  Elec       q    Type
REMARK                         _______ _______ _______ _____ _____    ______ ____
ROOT
ATOM      1  C   UNL     1       3.936  -4.241  -3.442  0.00  0.00    +0.041 C 
ATOM      2  C   UNL     1       3.119  -4.763  -4.381  0.00  0.00    +0.080 C 
ATOM      3  C   UNL     1       2.871  -6.258  -4.349  0.00  0.00    +0.145 C 
ATOM      4  N   UNL     1       3.547  -7.024  -3.289  0.00  0.00    -0.288 N 
ATOM      5  C   UNL     1       4.335  -6.359  -2.421  0.00  0.00    +0.307 C 
ATOM      6  O   UNL     1       4.898  -6.982  -1.542  0.00  0.00    -0.252 OA
ATOM      7  N   UNL     1       4.524  -5.036  -2.499  0.00  0.00    -0.254 N 
ATOM      8  H   UNL     1       3.427  -7.983  -3.216  0.00  0.00    +0.151 HD
ENDROOT
BRANCH   3   9
ATOM      9  C   UNL     1       3.298  -6.828  -5.678  0.00  0.00    -0.004 A 
ATOM     10  C   UNL     1       4.585  -7.303  -5.844  0.00  0.00    +0.008 A 
ATOM     11  C   UNL     1       4.978  -7.826  -7.061  0.00  0.00    +0.020 A 
ATOM     12  C   UNL     1       4.082  -7.875  -8.115  0.00  0.00    +0.042 A 
ATOM     13  C   UNL     1       2.793  -7.400  -7.949  0.00  0.00    +0.040 A 
ATOM     14  C   UNL     1       2.400  -6.881  -6.728  0.00  0.00    +0.048 A 
ATOM     15 CL   UNL     1       0.781  -6.290  -6.518  0.00  0.00    -0.083 Cl
ATOM     16 CL   UNL     1       4.575  -8.532  -9.644  0.00  0.00    -0.083 Cl
ENDBRANCH   3   9
BRANCH   2  17
ATOM     17  C   UNL     1       2.514  -3.942  -5.362  0.00  0.00    +0.339 C 
ATOM     18  O   UNL     1       1.368  -3.560  -5.213  0.00  0.00    -0.245 OA
BRANCH  17  19
ATOM     19  O   UNL     1       3.207  -3.583  -6.462  0.00  0.00    -0.462 OA
BRANCH  19  20
ATOM     20  C   UNL     1       2.502  -2.841  -7.460  0.00  0.00    +0.229 C 
ATOM     21  C   UNL     1       3.407  -2.633  -8.675  0.00  0.00    +0.048 C 
ENDBRANCH  19  20
ENDBRANCH  17  19
ENDBRANCH   2  17
BRANCH   1  22
ATOM     22  C   UNL     1       4.210  -2.759  -3.438  0.00  0.00    +0.136 C 
BRANCH  22  26
ATOM     23  N   UNL     1       2.041  -0.260  -0.808  0.00  0.00    +0.381 N 
ATOM     24  C   UNL     1       3.508  -0.199  -0.765  0.00  0.00    -0.063 C 
ATOM     25  C   UNL     1       4.080  -0.767  -2.066  0.00  0.00    +0.066 C 
ATOM     26  N   UNL     1       3.634  -2.159  -2.227  0.00  0.00    -0.300 NA
ATOM     27  C   UNL     1       2.167  -2.238  -2.246  0.00  0.00    +0.066 C 
ATOM     28  C   UNL     1       1.611  -1.657  -0.944  0.00  0.00    -0.063 C 
ATOM     29  H   UNL     1       1.705   0.274  -1.596  0.00  0.00    -0.082 HD
BRANCH  23  31
ATOM     30  C   UNL     1       1.835   1.792   0.514  0.00  0.00    -0.017 C 
ATOM     31  C   UNL     1       1.492   0.303   0.433  0.00  0.00    -0.082 C 
ENDBRANCH  23  31
ENDBRANCH  22  26
ENDBRANCH   1  22
BRANCH   7  32
ATOM     32  C   UNL     1       5.404  -4.403  -1.514  0.00  0.00    +0.141 C 
BRANCH  32  33
ATOM     33  C   UNL     1       4.596  -3.984  -0.313  0.00  0.00    -0.015 C 
ATOM     34  C   UNL     1       4.937  -4.396   0.883  0.00  0.00    +0.005 C 
ENDBRANCH  32  33
ENDBRANCH   7  32
TORSDOF 9
