REMARK  Name = ZINC08834031
REMARK  4 active torsions:
REMARK  status: ('A' for Active; 'I' for Inactive)
REMARK    1  A    between atoms: C_4  and  C_7
REMARK    2  A    between atoms: C_7  and  C_8
REMARK    3  A    between atoms: C_16  and  C_17
REMARK    4  A    between atoms: C_20  and  C_22
REMARK                            x       y       z     vdW  Elec       q    Type
REMARK                         _______ _______ _______ _____ _____    ______ ____
ROOT
ATOM      1  C   UNL     1      -6.113  -5.471   0.031  0.00  0.00    +0.157 A 
ATOM      2  N   UNL     1      -5.498  -4.288   0.031  0.00  0.00    -0.204 NA
ATOM      3  C   UNL     1      -4.208  -4.472   0.018  0.00  0.00    +0.200 A 
ATOM      4  N   UNL     1      -3.938  -5.812   0.009  0.00  0.00    -0.169 N 
ATOM      5  N   UNL     1      -5.222  -6.422   0.018  0.00  0.00    -0.146 NA
ATOM      6  C   UNL     1      -2.659  -6.205  -0.004  0.00  0.00    +0.288 A 
ATOM      7  O   UNL     1      -2.377  -7.390  -0.012  0.00  0.00    -0.265 OA
ATOM      8  C   UNL     1      -1.634  -5.221  -0.009  0.00  0.00    +0.085 A 
ATOM      9  C   UNL     1      -0.267  -5.382  -0.023  0.00  0.00    +0.067 C 
ATOM     10  S   UNL     1      -2.599  -3.717   0.015  0.00  0.00    -0.044 S 
ENDROOT
BRANCH   9  11
ATOM     11  C   UNL     1       0.576  -4.252  -0.025  0.00  0.00    +0.130 A 
ATOM     12  C   UNL     1       1.960  -4.272  -0.038  0.00  0.00    +0.050 A 
ATOM     13  C   UNL     1       2.383  -2.941  -0.041  0.00  0.00    +0.050 A 
ATOM     14  C   UNL     1       1.251  -2.158  -0.021  0.00  0.00    +0.136 A 
ATOM     15  O   UNL     1       0.173  -2.964  -0.015  0.00  0.00    -0.455 OA
BRANCH  14  16
ATOM     16  C   UNL     1       1.223  -0.683  -0.013  0.00  0.00    +0.020 A 
ATOM     17  C   UNL     1       0.002  -0.004   0.002  0.00  0.00    +0.031 A 
ATOM     18  C   UNL     1      -0.017   1.376   0.010  0.00  0.00    +0.043 A 
ATOM     19  C   UNL     1       1.171   2.088   0.002  0.00  0.00    +0.040 A 
ATOM     20  C   UNL     1       2.385   1.421  -0.013  0.00  0.00    +0.043 A 
ATOM     21  C   UNL     1       2.418   0.041  -0.021  0.00  0.00    +0.031 A 
ATOM     22 CL   UNL     1       3.868   2.323  -0.022  0.00  0.00    -0.083 Cl
ATOM     23 CL   UNL     1      -1.533   2.222   0.021  0.00  0.00    -0.083 Cl
ENDBRANCH  14  16
ENDBRANCH   9  11
BRANCH   1  24
ATOM     24  C   UNL     1      -7.606  -5.677   0.044  0.00  0.00    +0.113 C 
BRANCH  24  28
ATOM     25  C   UNL     1      -8.467  -9.861   0.033  0.00  0.00    +0.000 A 
ATOM     26  C   UNL     1      -8.317  -9.189   1.232  0.00  0.00    +0.000 A 
ATOM     27  C   UNL     1      -8.038  -7.835   1.235  0.00  0.00    +0.004 A 
ATOM     28  C   UNL     1      -7.909  -7.153   0.040  0.00  0.00    -0.040 A 
ATOM     29  C   UNL     1      -8.065  -7.823  -1.159  0.00  0.00    +0.004 A 
ATOM     30  C   UNL     1      -8.339  -9.178  -1.163  0.00  0.00    +0.000 A 
ENDBRANCH  24  28
ENDBRANCH   1  24
TORSDOF 4
