REMARK  Name = ZINC23833614
REMARK  5 active torsions:
REMARK  status: ('A' for Active; 'I' for Inactive)
REMARK    1  A    between atoms: C_1  and  C_2
REMARK    2  A    between atoms: C_5  and  C_34
REMARK    3  A    between atoms: C_17  and  O_20
REMARK    4  A    between atoms: O_20  and  C_21
REMARK    5  A    between atoms: C_21  and  C_22
REMARK                            x       y       z     vdW  Elec       q    Type
REMARK                         _______ _______ _______ _____ _____    ______ ____
ROOT
ATOM      1  C   UNL     1      10.008   1.386  -1.229  0.00  0.00    +0.009 C 
ATOM      2  C   UNL     1      10.360   2.795  -1.710  0.00  0.00    +0.004 C 
ATOM      3  C   UNL     1      11.476   3.371  -0.834  0.00  0.00    +0.009 C 
ATOM      4  C   UNL     1      11.780   4.803  -1.285  0.00  0.00    +0.004 C 
ATOM      5  C   UNL     1      10.503   5.642  -1.196  0.00  0.00    +0.109 C 
ATOM      6  N   UNL     1       9.466   5.050  -2.051  0.00  0.00    -0.315 N 
ATOM      7  C   UNL     1       9.124   3.693  -1.609  0.00  0.00    +0.109 C 
ATOM      8  C   UNL     1       8.339   5.858  -2.097  0.00  0.00    +0.122 A 
ATOM      9  C   UNL     1       8.469   7.195  -2.499  0.00  0.00    +0.044 A 
ATOM     10  C   UNL     1       7.371   7.999  -2.548  0.00  0.00    +0.013 A 
ATOM     11  C   UNL     1       6.124   7.449  -2.188  0.00  0.00    +0.004 A 
ATOM     12  C   UNL     1       4.952   8.222  -2.216  0.00  0.00    +0.010 A 
ATOM     13  C   UNL     1       3.763   7.660  -1.861  0.00  0.00    +0.004 A 
ATOM     14  C   UNL     1       3.691   6.325  -1.470  0.00  0.00    +0.048 A 
ATOM     15  C   UNL     1       4.810   5.544  -1.430  0.00  0.00    +0.147 A 
ATOM     16  C   UNL     1       6.059   6.094  -1.785  0.00  0.00    +0.115 A 
ATOM     17  N   UNL     1       7.171   5.351  -1.762  0.00  0.00    -0.228 NA
ATOM     18  C   UNL     1      12.853   5.407  -0.377  0.00  0.00    +0.009 C 
ENDROOT
BRANCH  15  19
ATOM     19  O   UNL     1       4.722   4.244  -1.045  0.00  0.00    -0.481 OA
BRANCH  19  20
ATOM     20  C   UNL     1       3.425   3.758  -0.693  0.00  0.00    +0.325 C 
BRANCH  20  21
ATOM     21  C   UNL     1       3.522   2.308  -0.296  0.00  0.00    +0.257 C 
ATOM     22  O   UNL     1       4.607   1.771  -0.220  0.00  0.00    -0.272 OA
ATOM     23  N   UNL     1       2.403   1.607  -0.024  0.00  0.00    -0.268 N 
ATOM     24  C   UNL     1       1.095   2.275   0.018  0.00  0.00    +0.114 C 
ATOM     25  C   UNL     1       0.349   1.765   1.258  0.00  0.00    +0.024 C 
ATOM     26  C   UNL     1       0.104   0.264   1.106  0.00  0.00    +0.038 C 
ATOM     27  C   UNL     1       1.387  -0.448   0.766  0.00  0.00    -0.026 A 
ATOM     28  C   UNL     1       2.468   0.228   0.222  0.00  0.00    +0.040 A 
ATOM     29  C   UNL     1       3.636  -0.460  -0.085  0.00  0.00    +0.024 A 
ATOM     30  C   UNL     1       3.721  -1.817   0.155  0.00  0.00    +0.002 A 
ATOM     31  C   UNL     1       2.644  -2.490   0.701  0.00  0.00    +0.000 A 
ATOM     32  C   UNL     1       1.480  -1.809   1.000  0.00  0.00    +0.005 A 
ENDBRANCH  20  21
ENDBRANCH  19  20
ENDBRANCH  15  19
TORSDOF 3
