REMARK  Name = ZINC42874502
REMARK  7 active torsions:
REMARK  status: ('A' for Active; 'I' for Inactive)
REMARK    1  A    between atoms: C_1  and  C_2
REMARK    2  A    between atoms: C_2  and  N_3
REMARK    3  A    between atoms: N_3  and  C_4
REMARK    4  A    between atoms: C_4  and  C_5
REMARK    5  A    between atoms: C_10  and  O_11
REMARK    6  A    between atoms: O_11  and  C_12
REMARK    7  A    between atoms: C_18  and  O_20
REMARK                            x       y       z     vdW  Elec       q    Type
REMARK                         _______ _______ _______ _____ _____    ______ ____
ROOT
ATOM      1  C   UNL     1       1.432  -2.233  -2.546  0.00  0.00    -0.019 A 
ATOM      2  C   UNL     1       0.715  -2.452  -3.707  0.00  0.00    +0.055 A 
ATOM      3  C   UNL     1       1.379  -2.690  -4.899  0.00  0.00    +0.167 A 
ATOM      4  C   UNL     1       2.771  -2.709  -4.927  0.00  0.00    +0.170 A 
ATOM      5  C   UNL     1       3.488  -2.488  -3.763  0.00  0.00    +0.095 A 
ATOM      6  C   UNL     1       2.818  -2.245  -2.572  0.00  0.00    +0.126 A 
ATOM      7  O   UNL     1       3.179  -2.962  -6.205  0.00  0.00    -0.452 OA
ATOM      8  C   UNL     1       2.025  -3.502  -6.877  0.00  0.00    +0.466 C 
ATOM      9  O   UNL     1       0.914  -2.931  -6.161  0.00  0.00    -0.453 OA
ENDROOT
BRANCH   1  10
ATOM     10  C   UNL     1       0.706  -1.974  -1.251  0.00  0.00    -0.043 C 
BRANCH  10  11
ATOM     11  N   UNL     1       0.689  -0.530  -0.980  0.00  0.00    +0.382 N 
ATOM     12  H   UNL     1       0.215  -0.052  -1.732  0.00  0.00    -0.085 HD
ATOM     13  H   UNL     1       1.636  -0.189  -0.909  0.00  0.00    -0.085 HD
BRANCH  11  15
ATOM     14  C   UNL     1      -0.037   1.226   0.565  0.00  0.00    -0.017 C 
ATOM     15  C   UNL     1      -0.019  -0.277   0.283  0.00  0.00    -0.086 C 
ENDBRANCH  11  15
ENDBRANCH  10  11
ENDBRANCH   1  10
BRANCH   6  16
ATOM     16  O   UNL     1       3.522  -2.024  -1.430  0.00  0.00    -0.486 OA
BRANCH  16  17
ATOM     17  C   UNL     1       4.941  -2.174  -1.503  0.00  0.00    +0.202 C 
ATOM     18  C   UNL     1       5.566  -0.870  -2.003  0.00  0.00    +0.047 C 
ATOM     19  C   UNL     1       7.086  -1.030  -2.081  0.00  0.00    +0.004 C 
ATOM     20  C   UNL     1       7.636  -1.359  -0.692  0.00  0.00    +0.003 C 
ATOM     21  C   UNL     1       7.011  -2.663  -0.192  0.00  0.00    +0.035 C 
ATOM     22  C   UNL     1       5.491  -2.503  -0.114  0.00  0.00    +0.155 C 
BRANCH  22  23
ATOM     23  O   UNL     1       4.907  -3.721   0.353  0.00  0.00    -0.388 OA
ATOM     24  H   UNL     1       5.211  -3.992   1.231  0.00  0.00    +0.210 HD
ENDBRANCH  22  23
ENDBRANCH  16  17
ENDBRANCH   6  16
TORSDOF 6
