REMARK  Name = ZINC59350359
REMARK  8 active torsions:
REMARK  status: ('A' for Active; 'I' for Inactive)
REMARK    1  A    between atoms: C_1  and  C_2
REMARK    2  A    between atoms: C_7  and  S_29
REMARK    3  A    between atoms: C_12  and  C_14
REMARK    4  A    between atoms: C_14  and  N_15
REMARK    5  A    between atoms: N_15  and  C_16
REMARK    6  A    between atoms: N_15  and  C_23
REMARK    7  A    between atoms: C_16  and  C_17
REMARK    8  A    between atoms: S_29  and  N_32
REMARK                            x       y       z     vdW  Elec       q    Type
REMARK                         _______ _______ _______ _____ _____    ______ ____
ROOT
ATOM      1  C   UNL     1       0.628   2.458   0.340  0.00  0.00    +0.029 C 
ATOM      2  C   UNL     1       0.199   1.001   0.158  0.00  0.00    +0.083 C 
ATOM      3  C   UNL     1       0.745   0.445  -1.168  0.00  0.00    +0.059 C 
ATOM      4  C   UNL     1       1.638  -0.705  -0.759  0.00  0.00    -0.022 A 
ATOM      5  C   UNL     1       2.395  -1.577  -1.517  0.00  0.00    +0.034 A 
ATOM      6  C   UNL     1       3.142  -2.564  -0.901  0.00  0.00    +0.105 A 
ATOM      7  C   UNL     1       3.128  -2.678   0.477  0.00  0.00    +0.030 A 
ATOM      8  C   UNL     1       2.374  -1.810   1.237  0.00  0.00    +0.026 A 
ATOM      9  C   UNL     1       1.618  -0.810   0.622  0.00  0.00    +0.040 A 
ATOM     10  N   UNL     1       0.792   0.161   1.202  0.00  0.00    -0.270 N 
ATOM     11  C   UNL     1       0.576   0.305   2.525  0.00  0.00    +0.203 C 
ATOM     12  O   UNL     1      -0.158   1.183   2.927  0.00  0.00    -0.277 OA
ENDROOT
BRANCH   6  13
ATOM     13  S   UNL     1       4.107  -3.676  -1.869  0.00  0.00    +0.056 S 
ATOM     14  O   UNL     1       4.282  -4.849  -1.087  0.00  0.00    -0.153 OA
ATOM     15  O   UNL     1       3.518  -3.704  -3.163  0.00  0.00    -0.153 OA
BRANCH  13  16
ATOM     16  N   UNL     1       5.606  -2.996  -2.046  0.00  0.00    -0.204 NA
ATOM     17  H   UNL     1       6.388  -3.563  -2.143  0.00  0.00    +0.144 HD
ATOM     18  H   UNL     1       5.704  -2.031  -2.054  0.00  0.00    +0.144 HD
ENDBRANCH  13  16
ENDBRANCH   6  13
BRANCH  11  19
ATOM     19  C   UNL     1       1.247  -0.624   3.503  0.00  0.00    +0.020 C 
BRANCH  19  20
ATOM     20  N   UNL     1       0.733  -0.366   4.855  0.00  0.00    +0.390 N 
ATOM     21  H   UNL     1       0.575   0.624   4.972  0.00  0.00    -0.080 HD
BRANCH  20  22
ATOM     22  C   UNL     1      -0.532  -1.089   5.043  0.00  0.00    -0.067 C 
ATOM     23  C   UNL     1      -1.553  -0.609   4.010  0.00  0.00    -0.015 C 
ATOM     24  C   UNL     1      -2.870  -1.362   4.206  0.00  0.00    -0.002 C 
ATOM     25  C   UNL     1      -2.631  -2.863   4.028  0.00  0.00    -0.000 C 
ATOM     26  C   UNL     1      -1.611  -3.343   5.062  0.00  0.00    -0.002 C 
ATOM     27  C   UNL     1      -0.293  -2.590   4.866  0.00  0.00    -0.015 C 
ENDBRANCH  20  22
BRANCH  20  28
ATOM     28  C   UNL     1       1.713  -0.827   5.848  0.00  0.00    -0.042 C 
BRANCH  28  29
ATOM     29  C   UNL     1       1.255  -0.428   7.227  0.00  0.00    -0.064 A 
ATOM     30  C   UNL     1       1.530   0.839   7.708  0.00  0.00    +0.002 A 
ATOM     31  C   UNL     1       1.110   1.204   8.973  0.00  0.00    +0.000 A 
ATOM     32  C   UNL     1       0.415   0.303   9.758  0.00  0.00    +0.000 A 
ATOM     33  C   UNL     1       0.139  -0.963   9.277  0.00  0.00    +0.000 A 
ATOM     34  C   UNL     1       0.555  -1.327   8.010  0.00  0.00    +0.002 A 
ENDBRANCH  28  29
ENDBRANCH  20  28
ENDBRANCH  19  20
ENDBRANCH  11  19
TORSDOF 7
