REMARK  Name = ZINC15947282
REMARK  8 active torsions:
REMARK  status: ('A' for Active; 'I' for Inactive)
REMARK    1  A    between atoms: C_1  and  C_2
REMARK    2  A    between atoms: C_2  and  C_3
REMARK    3  A    between atoms: C_3  and  N_4
REMARK    4  A    between atoms: C_13  and  C_15
REMARK    5  A    between atoms: N_17  and  N_18
REMARK    6  A    between atoms: C_19  and  C_21
REMARK    7  A    between atoms: N_24  and  S_27
REMARK    8  A    between atoms: S_27  and  C_30
REMARK                            x       y       z     vdW  Elec       q    Type
REMARK                         _______ _______ _______ _____ _____    ______ ____
ROOT
ATOM      1  N   UNL     1       3.578  -5.042  -0.061  0.00  0.00    -0.234 N 
ATOM      2  C   UNL     1       3.527  -6.388  -0.068  0.00  0.00    +0.232 C 
ATOM      3  O   UNL     1       2.455  -6.955  -0.061  0.00  0.00    -0.274 OA
ATOM      4  H   UNL     1       4.435  -4.588  -0.067  0.00  0.00    +0.173 HD
ENDROOT
BRANCH   2   5
ATOM      5  C   UNL     1       4.803  -7.190  -0.085  0.00  0.00    +0.079 C 
ATOM      6  C   UNL     1       5.607  -6.842  -1.340  0.00  0.00    +0.030 C 
ATOM      7  C   UNL     1       6.919  -7.633  -1.337  0.00  0.00    +0.110 C 
ATOM      8  N   UNL     1       6.610  -9.062  -1.196  0.00  0.00    -0.177 NA
ATOM      9  C   UNL     1       5.766  -9.495  -0.073  0.00  0.00    +0.110 C 
ATOM     10  C   UNL     1       4.467  -8.683  -0.091  0.00  0.00    +0.030 C 
BRANCH   8  11
ATOM     11  S   UNL     1       7.200 -10.165  -2.281  0.00  0.00    +0.061 S 
ATOM     12  O   UNL     1       8.362  -9.584  -2.858  0.00  0.00    -0.153 OA
ATOM     13  O   UNL     1       7.226 -11.418  -1.613  0.00  0.00    -0.153 OA
BRANCH  11  14
ATOM     14  C   UNL     1       6.013 -10.308  -3.575  0.00  0.00    +0.105 A 
ATOM     15  C   UNL     1       5.005 -11.250  -3.487  0.00  0.00    +0.028 A 
ATOM     16  C   UNL     1       4.071 -11.360  -4.501  0.00  0.00    +0.002 A 
ATOM     17  C   UNL     1       4.151 -10.534  -5.607  0.00  0.00    +0.000 A 
ATOM     18  C   UNL     1       5.163  -9.596  -5.697  0.00  0.00    +0.002 A 
ATOM     19  C   UNL     1       6.093  -9.483  -4.682  0.00  0.00    +0.028 A 
ENDBRANCH  11  14
ENDBRANCH   8  11
ENDBRANCH   2   5
BRANCH   1  22
ATOM     20  C   UNL     1       2.442  -2.949  -0.038  0.00  0.00    +0.281 C 
ATOM     21  O   UNL     1       3.517  -2.381  -0.045  0.00  0.00    -0.267 OA
ATOM     22  N   UNL     1       2.392  -4.296  -0.045  0.00  0.00    -0.229 N 
ATOM     23  H   UNL     1       1.534  -4.749  -0.040  0.00  0.00    +0.173 HD
BRANCH  20  33
ATOM     24  N   UNL     1      -1.098  -2.162   0.000  0.00  0.00    -0.228 N 
ATOM     25  C   UNL     1      -1.221  -0.819   0.009  0.00  0.00    +0.275 A 
ATOM     26  O   UNL     1      -2.319  -0.294   0.022  0.00  0.00    -0.266 OA
ATOM     27  C   UNL     1       0.002  -0.004   0.002  0.00  0.00    +0.050 A 
ATOM     28  C   UNL     1      -0.017   1.387   0.010  0.00  0.00    +0.014 A 
ATOM     29  C   UNL     1       1.176   2.079   0.002  0.00  0.00    +0.001 A 
ATOM     30  C   UNL     1       2.389   1.403  -0.013  0.00  0.00    +0.001 A 
ATOM     31  C   UNL     1       2.428   0.025  -0.021  0.00  0.00    +0.011 A 
ATOM     32  C   UNL     1       1.237  -0.693  -0.013  0.00  0.00    +0.020 A 
ATOM     33  C   UNL     1       1.192  -2.164  -0.021  0.00  0.00    +0.155 A 
ATOM     34  N   UNL     1       0.029  -2.768  -0.014  0.00  0.00    -0.163 NA
BRANCH  24  35
ATOM     35  C   UNL     1      -2.320  -2.970   0.007  0.00  0.00    +0.147 C 
BRANCH  35  37
ATOM     36  C   UNL     1      -4.035  -4.088  -1.425  0.00  0.00    +0.005 C 
ATOM     37  C   UNL     1      -2.759  -3.244  -1.433  0.00  0.00    +0.020 C 
ENDBRANCH  35  37
ENDBRANCH  24  35
ENDBRANCH  20  33
ENDBRANCH   1  22
TORSDOF 7
