REMARK  Name = ZINC62652325
REMARK  6 active torsions:
REMARK  status: ('A' for Active; 'I' for Inactive)
REMARK    1  A    between atoms: C_1  and  C_2
REMARK    2  A    between atoms: C_2  and  N_3
REMARK    3  A    between atoms: C_7  and  N_9
REMARK    4  A    between atoms: N_12  and  N_13
REMARK    5  A    between atoms: C_14  and  C_16
REMARK    6  A    between atoms: C_23  and  C_25
REMARK                            x       y       z     vdW  Elec       q    Type
REMARK                         _______ _______ _______ _____ _____    ______ ____
ROOT
ATOM      1  N   UNL     1      -2.771  -3.962  -0.313  0.00  0.00    -0.297 N 
ATOM      2  C   UNL     1      -3.812  -4.605  -0.879  0.00  0.00    +0.316 C 
ATOM      3  O   UNL     1      -4.769  -3.973  -1.284  0.00  0.00    -0.251 OA
ATOM      4  N   UNL     1      -3.792  -5.947  -0.995  0.00  0.00    -0.218 N 
ATOM      5  H   UNL     1      -2.007  -4.465   0.010  0.00  0.00    +0.150 HD
ATOM      6  H   UNL     1      -4.541  -6.410  -1.401  0.00  0.00    +0.174 HD
ENDROOT
BRANCH   1  11
ATOM      7  N   UNL     1      -1.376  -0.512   0.012  0.00  0.00    +0.381 N 
ATOM      8  C   UNL     1      -2.027  -0.132   1.272  0.00  0.00    -0.079 C 
ATOM      9  C   UNL     1      -3.487  -0.588   1.254  0.00  0.00    -0.017 C 
ATOM     10  C   UNL     1      -3.538  -2.110   1.091  0.00  0.00    +0.018 C 
ATOM     11  C   UNL     1      -2.792  -2.502  -0.187  0.00  0.00    +0.058 C 
ATOM     12  C   UNL     1      -1.358  -1.975  -0.116  0.00  0.00    -0.056 C 
ATOM     13  H   UNL     1      -1.886  -0.114  -0.762  0.00  0.00    -0.082 HD
BRANCH   7  15
ATOM     14  C   UNL     1      -0.019   1.526   0.010  0.00  0.00    -0.017 C 
ATOM     15  C   UNL     1       0.002  -0.004   0.002  0.00  0.00    -0.082 C 
ENDBRANCH   7  15
ENDBRANCH   1  11
BRANCH   4  16
ATOM     16  N   UNL     1      -2.690  -6.675  -0.527  0.00  0.00    -0.229 N 
ATOM     17  C   UNL     1      -2.670  -8.017  -0.643  0.00  0.00    +0.267 C 
ATOM     18  O   UNL     1      -3.610  -8.598  -1.154  0.00  0.00    -0.268 OA
ATOM     19  H   UNL     1      -1.940  -6.212  -0.121  0.00  0.00    +0.173 HD
BRANCH  17  20
ATOM     20  C   UNL     1      -1.517  -8.778  -0.155  0.00  0.00    +0.076 A 
ATOM     21  C   UNL     1      -1.297 -10.143  -0.182  0.00  0.00    +0.024 A 
ATOM     22  C   UNL     1      -0.103 -10.597   0.357  0.00  0.00    -0.036 A 
ATOM     23  C   UNL     1       0.739  -9.650   0.863  0.00  0.00    -0.006 A 
ATOM     24  S   UNL     1      -0.026  -8.185   0.624  0.00  0.00    -0.088 S 
ATOM     25  C   UNL     1       2.079  -9.886   1.496  0.00  0.00    +0.043 C 
ATOM     26  C   UNL     1       2.200 -11.379   1.834  0.00  0.00    +0.009 C 
ATOM     27  C   UNL     1       1.782 -12.196   0.608  0.00  0.00    -0.009 C 
ATOM     28  C   UNL     1       0.272 -12.076   0.394  0.00  0.00    +0.039 C 
ATOM     29  C   UNL     1       2.148 -13.666   0.828  0.00  0.00    +0.008 C 
ENDBRANCH  17  20
ENDBRANCH   4  16
TORSDOF 4
