REMARK  Name = ZINC21267063
REMARK  10 active torsions:
REMARK  status: ('A' for Active; 'I' for Inactive)
REMARK    1  A    between atoms: C_1  and  C_2
REMARK    2  A    between atoms: C_2  and  O_3
REMARK    3  A    between atoms: O_3  and  C_4
REMARK    4  A    between atoms: C_9  and  N_10
REMARK    5  A    between atoms: C_11  and  C_13
REMARK    6  A    between atoms: C_13  and  C_14
REMARK    7  A    between atoms: C_28  and  C_30
REMARK    8  A    between atoms: C_31  and  C_32
REMARK    9  A    between atoms: C_35  and  O_38
REMARK   10  A    between atoms: O_38  and  C_39
REMARK                            x       y       z     vdW  Elec       q    Type
REMARK                         _______ _______ _______ _____ _____    ______ ____
ROOT
ATOM      1  C   UNL     1      -0.209   1.431  -0.186  0.00  0.00    +0.171 C 
ATOM      2  C   UNL     1       1.292   1.492  -0.111  0.00  0.00    +0.234 C 
ATOM      3  O   UNL     1       1.860   0.803   0.709  0.00  0.00    -0.274 OA
ATOM      4  N   UNL     1       2.027   2.273  -0.909  0.00  0.00    -0.309 N 
ATOM      5  C   UNL     1       1.469   3.213  -1.864  0.00  0.00    +0.093 C 
ATOM      6  C   UNL     1       2.353   3.352  -3.096  0.00  0.00    +0.024 C 
ATOM      7  C   UNL     1       2.351   2.048  -3.896  0.00  0.00    +0.002 C 
ATOM      8  C   UNL     1       0.915   1.727  -4.322  0.00  0.00    +0.002 C 
ATOM      9  C   UNL     1       0.052   1.540  -3.074  0.00  0.00    +0.024 C 
ATOM     10  C   UNL     1       0.050   2.818  -2.265  0.00  0.00    +0.097 C 
ATOM     11  N   UNL     1      -0.699   2.536  -1.023  0.00  0.00    -0.281 N 
ATOM     12  C   UNL     1      -1.780   3.260  -0.673  0.00  0.00    +0.240 C 
ATOM     13  O   UNL     1      -2.316   3.071   0.403  0.00  0.00    -0.271 OA
ATOM     14  H   UNL     1       3.118   2.171  -0.810  0.00  0.00    +0.149 HD
ENDROOT
BRANCH  12  15
ATOM     15  C   UNL     1      -2.311   4.271  -1.587  0.00  0.00    +0.068 C 
ATOM     16  C   UNL     1      -3.323   5.072  -1.194  0.00  0.00    +0.013 C 
BRANCH  16  17
ATOM     17  C   UNL     1      -3.782   6.161  -2.068  0.00  0.00    -0.025 A 
ATOM     18  C   UNL     1      -3.242   6.305  -3.352  0.00  0.00    +0.011 A 
ATOM     19  C   UNL     1      -3.680   7.323  -4.169  0.00  0.00    +0.046 A 
ATOM     20  C   UNL     1      -4.646   8.214  -3.717  0.00  0.00    +0.120 A 
ATOM     21  C   UNL     1      -5.181   8.079  -2.441  0.00  0.00    +0.046 A 
ATOM     22  C   UNL     1      -4.755   7.061  -1.618  0.00  0.00    +0.011 A 
BRANCH  20  23
ATOM     23  O   UNL     1      -5.070   9.219  -4.525  0.00  0.00    -0.495 OA
ATOM     24  C   UNL     1      -4.562   9.236  -5.861  0.00  0.00    +0.277 C 
ENDBRANCH  20  23
ENDBRANCH  16  17
ENDBRANCH  12  15
BRANCH   1  25
ATOM     25  C   UNL     1      -0.797   1.556   1.221  0.00  0.00    +0.128 C 
BRANCH  25  27
ATOM     26  N   UNL     1      -2.973   1.165   2.331  0.00  0.00    -0.283 N 
ATOM     27  C   UNL     1      -2.220   1.059   1.218  0.00  0.00    +0.220 C 
ATOM     28  O   UNL     1      -2.687   0.565   0.214  0.00  0.00    -0.275 OA
ATOM     29  H   UNL     1      -2.582   1.695   3.211  0.00  0.00    +0.155 HD
BRANCH  26  35
ATOM     30  C   UNL     1      -5.188   1.041   3.299  0.00  0.00    +0.142 A 
ATOM     31  C   UNL     1      -6.454   0.477   3.329  0.00  0.00    +0.047 A 
ATOM     32  C   UNL     1      -6.786  -0.523   2.434  0.00  0.00    +0.004 A 
ATOM     33  C   UNL     1      -5.859  -0.964   1.508  0.00  0.00    +0.002 A 
ATOM     34  C   UNL     1      -4.597  -0.402   1.468  0.00  0.00    +0.027 A 
ATOM     35  C   UNL     1      -4.254   0.598   2.366  0.00  0.00    +0.076 A 
BRANCH  30  36
ATOM     36  O   UNL     1      -4.860   2.026   4.178  0.00  0.00    -0.490 OA
BRANCH  36  38
ATOM     37  C   UNL     1      -5.235   3.382   6.142  0.00  0.00    +0.048 C 
ATOM     38  C   UNL     1      -5.825   2.349   5.180  0.00  0.00    +0.226 C 
ENDBRANCH  36  38
ENDBRANCH  30  36
ENDBRANCH  26  35
ENDBRANCH  25  27
ENDBRANCH   1  25
TORSDOF 8
