REMARK  Name = ZINC01129363
REMARK  8 active torsions:
REMARK  status: ('A' for Active; 'I' for Inactive)
REMARK    1  A    between atoms: C_1  and  C_2
REMARK    2  A    between atoms: C_2  and  C_4
REMARK    3  A    between atoms: C_2  and  N_10
REMARK    4  A    between atoms: N_10  and  C_11
REMARK    5  A    between atoms: C_11  and  N_13
REMARK    6  A    between atoms: C_14  and  C_16
REMARK    7  A    between atoms: C_21  and  O_25
REMARK    8  A    between atoms: O_25  and  C_26
REMARK                            x       y       z     vdW  Elec       q    Type
REMARK                         _______ _______ _______ _____ _____    ______ ____
ROOT
ATOM      1  N   UNL     1       0.979  -2.009  -0.688  0.00  0.00    -0.263 N 
ATOM      2  C   UNL     1       1.938  -2.666  -1.370  0.00  0.00    +0.258 C 
ATOM      3  O   UNL     1       2.787  -2.043  -1.979  0.00  0.00    -0.269 OA
ATOM      4  H   UNL     1       0.302  -2.506  -0.202  0.00  0.00    +0.157 HD
ENDROOT
BRANCH   2   5
ATOM      5  C   UNL     1       1.958  -4.132  -1.378  0.00  0.00    +0.094 A 
ATOM      6  C   UNL     1       2.833  -4.965  -2.006  0.00  0.00    +0.068 A 
ATOM      7  C   UNL     1       2.682  -6.359  -1.887  0.00  0.00    +0.008 A 
ATOM      8  C   UNL     1       3.486  -7.380  -2.457  0.00  0.00    +0.014 A 
ATOM      9  C   UNL     1       3.200  -8.689  -2.248  0.00  0.00    +0.046 A 
ATOM     10  C   UNL     1       2.111  -9.083  -1.469  0.00  0.00    +0.121 A 
ATOM     11  C   UNL     1       1.302  -8.117  -0.894  0.00  0.00    +0.061 A 
ATOM     12  C   UNL     1       1.584  -6.785  -1.101  0.00  0.00    +0.025 A 
ATOM     13  S   UNL     1       0.837  -5.263  -0.573  0.00  0.00    -0.082 S 
ATOM     14 CL   UNL     1       4.134  -4.309  -2.949  0.00  0.00    -0.082 Cl
BRANCH  10  15
ATOM     15  O   UNL     1       1.847 -10.402  -1.277  0.00  0.00    -0.495 OA
ATOM     16  C   UNL     1       2.727 -11.338  -1.903  0.00  0.00    +0.277 C 
ENDBRANCH  10  15
ENDBRANCH   2   5
BRANCH   1  17
ATOM     17  C   UNL     1       0.961  -0.661  -0.680  0.00  0.00    +0.137 C 
ATOM     18  S   UNL     1       2.155   0.216  -1.537  0.00  0.00    -0.018 S 
BRANCH  17  19
ATOM     19  N   UNL     1       0.002  -0.004   0.002  0.00  0.00    -0.320 N 
ATOM     20  H   UNL     1      -0.675  -0.501   0.488  0.00  0.00    +0.148 HD
BRANCH  19  22
ATOM     21  C   UNL     1      -0.758   1.968  -1.230  0.00  0.00    +0.033 C 
ATOM     22  C   UNL     1      -0.018   1.461   0.010  0.00  0.00    +0.099 C 
BRANCH  22  23
ATOM     23  C   UNL     1      -0.723   1.947   1.250  0.00  0.00    -0.028 A 
ATOM     24  C   UNL     1      -1.859   1.298   1.698  0.00  0.00    +0.005 A 
ATOM     25  C   UNL     1      -2.503   1.741   2.838  0.00  0.00    +0.000 A 
ATOM     26  C   UNL     1      -2.018   2.839   3.524  0.00  0.00    +0.000 A 
ATOM     27  C   UNL     1      -0.885   3.490   3.073  0.00  0.00    +0.000 A 
ATOM     28  C   UNL     1      -0.238   3.045   1.936  0.00  0.00    +0.005 A 
ENDBRANCH  22  23
ENDBRANCH  19  22
ENDBRANCH  17  19
ENDBRANCH   1  17
TORSDOF 6
