REMARK  Name = ZINC04686183
REMARK  10 active torsions:
REMARK  status: ('A' for Active; 'I' for Inactive)
REMARK    1  A    between atoms: C_1  and  C_2
REMARK    2  A    between atoms: C_2  and  N_3
REMARK    3  A    between atoms: N_3  and  C_4
REMARK    4  A    between atoms: C_4  and  C_5
REMARK    5  A    between atoms: C_6  and  C_8
REMARK    6  A    between atoms: C_8  and  S_9
REMARK    7  A    between atoms: S_9  and  C_10
REMARK    8  A    between atoms: C_14  and  C_18
REMARK    9  A    between atoms: N_21  and  C_22
REMARK   10  A    between atoms: C_27  and  C_28
REMARK                            x       y       z     vdW  Elec       q    Type
REMARK                         _______ _______ _______ _____ _____    ______ ____
ROOT
ATOM      1  C   UNL     1      -0.747   3.828   1.256  0.00  0.00    +0.177 A 
ATOM      2  N   UNL     1      -0.144   4.272   0.181  0.00  0.00    -0.201 NA
ATOM      3  C   UNL     1      -0.011   5.581  -0.079  0.00  0.00    +0.187 A 
ATOM      4  C   UNL     1      -0.528   6.523   0.821  0.00  0.00    +0.082 A 
ATOM      5  C   UNL     1      -0.248   7.799   0.301  0.00  0.00    +0.046 A 
ATOM      6  N   UNL     1       0.390   7.651  -0.828  0.00  0.00    -0.279 N 
ATOM      7  N   UNL     1       0.555   6.287  -1.096  0.00  0.00    -0.153 NA
ATOM      8  H   UNL     1       0.705   8.536  -1.401  0.00  0.00    +0.189 HD
ATOM      9  C   UNL     1      -0.622   9.112   0.938  0.00  0.00    +0.066 C 
ATOM     10  C   UNL     1      -1.205   6.033   2.029  0.00  0.00    +0.124 A 
ATOM     11  N   UNL     1      -1.712   6.861   2.910  0.00  0.00    -0.384 N 
ATOM     12  N   UNL     1      -1.292   4.660   2.196  0.00  0.00    -0.274 N 
ATOM     13  H   UNL     1      -2.214   6.469   3.807  0.00  0.00    +0.157 HD
ATOM     14  H   UNL     1      -1.635   7.947   2.752  0.00  0.00    +0.157 HD
ENDROOT
BRANCH  12  15
ATOM     15  C   UNL     1      -1.930   4.127   3.324  0.00  0.00    +0.055 A 
ATOM     16  C   UNL     1      -1.203   3.873   4.479  0.00  0.00    +0.046 A 
ATOM     17  C   UNL     1      -1.835   3.347   5.590  0.00  0.00    +0.043 A 
ATOM     18  C   UNL     1      -3.191   3.073   5.550  0.00  0.00    +0.020 A 
ATOM     19  C   UNL     1      -3.917   3.325   4.401  0.00  0.00    +0.007 A 
ATOM     20  C   UNL     1      -3.291   3.856   3.290  0.00  0.00    -0.026 A 
ATOM     21  C   UNL     1      -4.085   4.135   2.039  0.00  0.00    +0.046 C 
ATOM     22 CL   UNL     1      -0.927   3.029   7.035  0.00  0.00    -0.083 Cl
ENDBRANCH  12  15
BRANCH   1  23
ATOM     23  S   UNL     1      -0.866   2.087   1.499  0.00  0.00    -0.078 S 
BRANCH  23  24
ATOM     24  C   UNL     1      -0.019   1.503   0.010  0.00  0.00    +0.173 C 
BRANCH  24  26
ATOM     25  N   UNL     1       0.584  -0.664  -1.019  0.00  0.00    -0.301 N 
ATOM     26  C   UNL     1       0.001  -0.004   0.001  0.00  0.00    +0.226 C 
ATOM     27  O   UNL     1      -0.507  -0.622   0.913  0.00  0.00    -0.275 OA
BRANCH  25  29
ATOM     28  C   UNL     1       2.667   0.355  -1.794  0.00  0.00    +0.024 C 
ATOM     29  C   UNL     1       1.197   0.083  -2.119  0.00  0.00    +0.104 C 
ENDBRANCH  25  29
BRANCH  25  30
ATOM     30  C   UNL     1       0.603  -2.129  -1.027  0.00  0.00    +0.104 C 
ATOM     31  C   UNL     1      -0.646  -2.652  -1.739  0.00  0.00    +0.024 C 
ENDBRANCH  25  30
ENDBRANCH  24  26
ENDBRANCH  23  24
ENDBRANCH   1  23
TORSDOF 6
