REMARK  Name = ZINC36546084
REMARK  13 active torsions:
REMARK  status: ('A' for Active; 'I' for Inactive)
REMARK    1  A    between atoms: C_1  and  C_2
REMARK    2  A    between atoms: C_2  and  C_4
REMARK    3  A    between atoms: C_2  and  C_31
REMARK    4  A    between atoms: C_4  and  C_5
REMARK    5  A    between atoms: N_7  and  C_8
REMARK    6  A    between atoms: N_7  and  C_15
REMARK    7  A    between atoms: C_15  and  C_17
REMARK    8  A    between atoms: C_15  and  C_24
REMARK    9  A    between atoms: C_22  and  O_23
REMARK   10  A    between atoms: N_26  and  C_27
REMARK   11  A    between atoms: C_27  and  C_28
REMARK   12  A    between atoms: C_27  and  C_29
REMARK   13  A    between atoms: C_27  and  C_30
REMARK                            x       y       z     vdW  Elec       q    Type
REMARK                         _______ _______ _______ _____ _____    ______ ____
ROOT
ATOM      1  C   UNL     1      -0.118  -0.257   2.486  0.00  0.00    +0.221 C 
ATOM      2  O   UNL     1      -1.247   0.176   2.401  0.00  0.00    -0.275 OA
ATOM      3  N   UNL     1       0.430  -0.477   3.698  0.00  0.00    -0.254 N 
ENDROOT
BRANCH   3   4
ATOM      4  C   UNL     1       1.701  -1.056   3.797  0.00  0.00    +0.056 A 
ATOM      5  C   UNL     1       2.832  -0.251   3.823  0.00  0.00    +0.025 A 
ATOM      6  C   UNL     1       4.085  -0.825   3.921  0.00  0.00    +0.002 A 
ATOM      7  C   UNL     1       4.213  -2.200   3.993  0.00  0.00    +0.002 A 
ATOM      8  C   UNL     1       3.090  -3.005   3.968  0.00  0.00    +0.022 A 
ATOM      9  C   UNL     1       1.833  -2.437   3.875  0.00  0.00    +0.062 A 
ATOM     10 CL   UNL     1       0.422  -3.447   3.851  0.00  0.00    -0.082 Cl
ENDBRANCH   3   4
BRANCH   1  11
ATOM     11  C   UNL     1       0.673  -0.550   1.237  0.00  0.00    +0.104 C 
BRANCH  11  13
ATOM     12  C   UNL     1      -0.447   1.288  -0.030  0.00  0.00    +0.013 C 
ATOM     13  C   UNL     1      -0.173  -0.216   0.007  0.00  0.00    +0.025 C 
BRANCH  13  14
ATOM     14  C   UNL     1       0.569  -0.624  -1.239  0.00  0.00    -0.044 A 
ATOM     15  C   UNL     1       1.805  -0.072  -1.519  0.00  0.00    +0.004 A 
ATOM     16  C   UNL     1       2.486  -0.445  -2.663  0.00  0.00    +0.000 A 
ATOM     17  C   UNL     1       1.931  -1.371  -3.526  0.00  0.00    +0.000 A 
ATOM     18  C   UNL     1       0.696  -1.924  -3.246  0.00  0.00    +0.000 A 
ATOM     19  C   UNL     1       0.017  -1.554  -2.100  0.00  0.00    +0.004 A 
ENDBRANCH  13  14
ENDBRANCH  11  13
ENDBRANCH   1  11
BRANCH   3  20
ATOM     20  C   UNL     1      -0.304  -0.110   4.911  0.00  0.00    +0.201 C 
BRANCH  20  21
ATOM     21  C   UNL     1      -0.424   1.391   4.991  0.00  0.00    +0.024 A 
ATOM     22  C   UNL     1      -0.267   2.158   3.853  0.00  0.00    +0.009 A 
ATOM     23  C   UNL     1      -0.377   3.534   3.926  0.00  0.00    +0.001 A 
ATOM     24  C   UNL     1      -0.644   4.146   5.137  0.00  0.00    +0.004 A 
ATOM     25  C   UNL     1      -0.801   3.383   6.277  0.00  0.00    +0.046 A 
ATOM     26  C   UNL     1      -0.697   2.001   6.206  0.00  0.00    +0.122 A 
BRANCH  26  27
ATOM     27  O   UNL     1      -0.858   1.248   7.326  0.00  0.00    -0.506 OA
ATOM     28  H   UNL     1      -0.038   1.090   7.814  0.00  0.00    +0.292 HD
ENDBRANCH  26  27
ENDBRANCH  20  21
BRANCH  20  29
ATOM     29  C   UNL     1      -1.680  -0.722   4.870  0.00  0.00    +0.239 C 
ATOM     30  O   UNL     1      -2.015  -1.399   3.921  0.00  0.00    -0.273 OA
ATOM     31  N   UNL     1      -2.539  -0.518   5.888  0.00  0.00    -0.309 N 
ATOM     32  H   UNL     1      -2.272   0.023   6.647  0.00  0.00    +0.149 HD
BRANCH  31  33
ATOM     33  C   UNL     1      -3.877  -1.113   5.848  0.00  0.00    +0.026 C 
ATOM     34  C   UNL     1      -3.755  -2.636   5.767  0.00  0.00    +0.031 C 
ATOM     35  C   UNL     1      -4.644  -0.730   7.116  0.00  0.00    +0.031 C 
ATOM     36  C   UNL     1      -4.629  -0.596   4.621  0.00  0.00    +0.031 C 
ENDBRANCH  31  33
ENDBRANCH  20  29
ENDBRANCH   3  20
TORSDOF 9
