REMARK  Name = ZINC40729283
REMARK  5 active torsions:
REMARK  status: ('A' for Active; 'I' for Inactive)
REMARK    1  A    between atoms: C_4  and  C_7
REMARK    2  A    between atoms: C_7  and  C_8
REMARK    3  A    between atoms: C_15  and  N_28
REMARK    4  A    between atoms: C_16  and  N_20
REMARK    5  A    between atoms: N_20  and  C_21
REMARK                            x       y       z     vdW  Elec       q    Type
REMARK                         _______ _______ _______ _____ _____    ______ ____
ROOT
ATOM      1  C   UNL     1       4.264  -0.947   1.383  0.00  0.00    -0.004 C 
ATOM      2  C   UNL     1       3.261  -1.876   2.069  0.00  0.00    +0.023 C 
ATOM      3  C   UNL     1       3.695  -2.107   3.520  0.00  0.00    +0.107 C 
ATOM      4  N   UNL     1       5.078  -2.601   3.527  0.00  0.00    -0.314 N 
ATOM      5  C   UNL     1       6.108  -1.829   2.817  0.00  0.00    +0.107 C 
ATOM      6  C   UNL     1       5.647  -1.602   1.374  0.00  0.00    +0.023 C 
ATOM      7  C   UNL     1       5.407  -3.777   4.192  0.00  0.00    +0.147 A 
ATOM      8  C   UNL     1       5.893  -3.739   5.500  0.00  0.00    +0.106 A 
ATOM      9  C   UNL     1       6.208  -4.948   6.122  0.00  0.00    +0.149 A 
ATOM     10  N   UNL     1       6.033  -6.083   5.449  0.00  0.00    -0.219 NA
ATOM     11  C   UNL     1       5.572  -6.075   4.215  0.00  0.00    +0.225 A 
ATOM     12  N   UNL     1       5.258  -4.956   3.593  0.00  0.00    -0.219 NA
ENDROOT
BRANCH   8  13
ATOM     13  N   UNL     1       6.062  -2.517   6.172  0.00  0.00    -0.353 N 
ATOM     14  H   UNL     1       5.772  -1.691   5.756  0.00  0.00    +0.143 HD
ATOM     15  H   UNL     1       6.468  -2.500   7.053  0.00  0.00    +0.143 HD
ENDBRANCH   8  13
BRANCH   9  16
ATOM     16  N   UNL     1       6.696  -4.967   7.423  0.00  0.00    -0.297 N 
ATOM     17  H   UNL     1       6.739  -4.146   7.937  0.00  0.00    +0.154 HD
BRANCH  16  18
ATOM     18  C   UNL     1       7.125  -6.170   7.992  0.00  0.00    +0.051 A 
ATOM     19  C   UNL     1       7.552  -7.211   7.178  0.00  0.00    +0.025 A 
ATOM     20  C   UNL     1       7.976  -8.398   7.742  0.00  0.00    +0.002 A 
ATOM     21  C   UNL     1       7.975  -8.552   9.117  0.00  0.00    +0.002 A 
ATOM     22  C   UNL     1       7.550  -7.518   9.931  0.00  0.00    +0.022 A 
ATOM     23  C   UNL     1       7.130  -6.325   9.373  0.00  0.00    +0.062 A 
ATOM     24 CL   UNL     1       6.604  -5.025  10.396  0.00  0.00    -0.082 Cl
ENDBRANCH  16  18
ENDBRANCH   9  16
BRANCH   1  25
ATOM     25  C   UNL     1       3.814  -0.686  -0.057  0.00  0.00    +0.038 C 
BRANCH  25  29
ATOM     26  C   UNL     1       0.118   1.454  -0.032  0.00  0.00    +0.000 A 
ATOM     27  C   UNL     1       1.316   2.144  -0.035  0.00  0.00    +0.000 A 
ATOM     28  C   UNL     1       2.512   1.451  -0.043  0.00  0.00    +0.003 A 
ATOM     29  C   UNL     1       2.510   0.069  -0.047  0.00  0.00    -0.047 A 
ATOM     30  C   UNL     1       1.312  -0.621  -0.044  0.00  0.00    +0.003 A 
ATOM     31  C   UNL     1       0.116   0.072  -0.037  0.00  0.00    +0.000 A 
ENDBRANCH  25  29
ENDBRANCH   1  25
TORSDOF 5
