REMARK  Name = ZINC01084384
REMARK  5 active torsions:
REMARK  status: ('A' for Active; 'I' for Inactive)
REMARK    1  A    between atoms: C_1  and  C_2
REMARK    2  A    between atoms: C_14  and  C_16
REMARK    3  A    between atoms: C_19  and  C_21
REMARK    4  A    between atoms: C_31  and  C_33
REMARK    5  A    between atoms: C_31  and  C_34
REMARK                            x       y       z     vdW  Elec       q    Type
REMARK                         _______ _______ _______ _____ _____    ______ ____
ROOT
ATOM      1  C   UNL     1      -2.858   7.230  -2.913  0.00  0.00    +0.110 C 
ATOM      2  C   UNL     1      -1.760   7.468  -1.909  0.00  0.00    +0.218 C 
ATOM      3  O   UNL     1      -1.067   8.461  -1.991  0.00  0.00    -0.276 OA
ATOM      4  N   UNL     1      -1.547   6.579  -0.918  0.00  0.00    -0.255 N 
ATOM      5  C   UNL     1      -2.349   5.442  -0.832  0.00  0.00    +0.058 A 
ATOM      6  C   UNL     1      -2.297   4.448  -1.798  0.00  0.00    +0.025 A 
ATOM      7  C   UNL     1      -3.049   3.299  -1.633  0.00  0.00    +0.002 A 
ATOM      8  C   UNL     1      -3.848   3.138  -0.516  0.00  0.00    +0.002 A 
ATOM      9  C   UNL     1      -3.922   4.138   0.439  0.00  0.00    +0.025 A 
ATOM     10  C   UNL     1      -3.185   5.296   0.264  0.00  0.00    +0.053 A 
ATOM     11  N   UNL     1      -3.249   6.362   1.155  0.00  0.00    -0.316 N 
ATOM     12  C   UNL     1      -2.213   6.808   1.911  0.00  0.00    +0.017 C 
ATOM     13  C   UNL     1      -0.969   7.034   1.457  0.00  0.00    +0.040 C 
ATOM     14  C   UNL     1      -0.490   6.818   0.041  0.00  0.00    +0.182 C 
ATOM     15  C   UNL     1       0.034   7.516   2.332  0.00  0.00    +0.163 C 
ATOM     16  O   UNL     1       1.145   7.732   1.889  0.00  0.00    -0.292 OA
ATOM     17  C   UNL     1      -0.228   7.769   3.786  0.00  0.00    +0.086 C 
ATOM     18  C   UNL     1      -1.341   6.821   4.251  0.00  0.00    -0.023 C 
ATOM     19  C   UNL     1      -2.561   7.070   3.367  0.00  0.00    +0.058 C 
ATOM     20  C   UNL     1      -0.881   5.370   4.104  0.00  0.00    +0.011 C 
ATOM     21  C   UNL     1      -1.690   7.109   5.713  0.00  0.00    +0.011 C 
ATOM     22  H   UNL     1      -4.099   6.822   1.242  0.00  0.00    +0.152 HD
ENDROOT
BRANCH  14  23
ATOM     23  C   UNL     1       0.445   5.636   0.027  0.00  0.00    +0.131 A 
ATOM     24  C   UNL     1       1.790   5.699   0.015  0.00  0.00    +0.047 A 
ATOM     25  C   UNL     1       2.265   4.372   0.003  0.00  0.00    +0.050 A 
ATOM     26  C   UNL     1       1.171   3.564   0.009  0.00  0.00    +0.135 A 
ATOM     27  O   UNL     1       0.074   4.345   0.018  0.00  0.00    -0.457 OA
BRANCH  26  28
ATOM     28  C   UNL     1       1.184   2.087   0.002  0.00  0.00    +0.017 A 
ATOM     29  C   UNL     1      -0.017   1.375   0.010  0.00  0.00    +0.012 A 
ATOM     30  C   UNL     1       0.002  -0.004   0.002  0.00  0.00    +0.016 A 
ATOM     31  C   UNL     1       1.209  -0.683  -0.013  0.00  0.00    +0.018 A 
ATOM     32  C   UNL     1       2.403   0.017  -0.021  0.00  0.00    +0.016 A 
ATOM     33  C   UNL     1       2.398   1.396  -0.013  0.00  0.00    +0.012 A 
ATOM     34 BR   UNL     1       1.225  -2.574  -0.024  0.00  0.00    -0.050 Br
ENDBRANCH  26  28
ENDBRANCH  14  23
TORSDOF 2
