REMARK  Name = ZINC16655153
REMARK  5 active torsions:
REMARK  status: ('A' for Active; 'I' for Inactive)
REMARK    1  A    between atoms: C_3  and  O_9
REMARK    2  A    between atoms: O_9  and  C_10
REMARK    3  A    between atoms: C_10  and  C_11
REMARK    4  A    between atoms: N_13  and  C_14
REMARK    5  A    between atoms: C_15  and  C_23
REMARK                            x       y       z     vdW  Elec       q    Type
REMARK                         _______ _______ _______ _____ _____    ______ ____
ROOT
ATOM      1  C   UNL     1       3.712  -0.861  -0.038  0.00  0.00    +0.255 C 
ATOM      2  O   UNL     1       4.663  -0.108  -0.043  0.00  0.00    -0.272 OA
ATOM      3  N   UNL     1       3.909  -2.194  -0.047  0.00  0.00    -0.277 N 
ATOM      4  H   UNL     1       3.148  -2.796  -0.043  0.00  0.00    +0.155 HD
ENDROOT
BRANCH   3   5
ATOM      5  C   UNL     1       5.197  -2.705  -0.062  0.00  0.00    +0.084 A 
ATOM      6  C   UNL     1       5.598  -4.034  -0.067  0.00  0.00    +0.068 A 
ATOM      7  C   UNL     1       7.026  -4.304  -0.088  0.00  0.00    -0.023 A 
ATOM      8  C   UNL     1       7.819  -3.211  -0.089  0.00  0.00    -0.004 A 
ATOM      9  S   UNL     1       6.699  -1.840  -0.071  0.00  0.00    -0.077 S 
ATOM     10  C   UNL     1       9.316  -3.181  -0.102  0.00  0.00    +0.043 C 
ATOM     11  C   UNL     1       9.831  -4.581   0.263  0.00  0.00    +0.005 C 
ATOM     12  C   UNL     1       9.075  -5.618  -0.573  0.00  0.00    +0.005 C 
ATOM     13  C   UNL     1       7.622  -5.706  -0.103  0.00  0.00    +0.037 C 
BRANCH   6  14
ATOM     14  C   UNL     1       4.618  -5.123  -0.057  0.00  0.00    +0.244 C 
ATOM     15  O   UNL     1       4.199  -5.576  -1.106  0.00  0.00    -0.270 OA
ATOM     16  N   UNL     1       4.180  -5.625   1.116  0.00  0.00    -0.325 N 
ATOM     17  H   UNL     1       4.514  -5.264   1.952  0.00  0.00    +0.145 HD
ATOM     18  H   UNL     1       3.531  -6.346   1.123  0.00  0.00    +0.145 HD
ENDBRANCH   6  14
ENDBRANCH   3   5
BRANCH   1  19
ATOM     19  C   UNL     1       2.312  -0.305  -0.022  0.00  0.00    +0.325 C 
BRANCH  19  20
ATOM     20  O   UNL     1       2.365   1.123  -0.015  0.00  0.00    -0.480 OA
BRANCH  20  23
ATOM     21  C   UNL     1      -1.219   1.751   0.017  0.00  0.00    +0.019 A 
ATOM     22  C   UNL     1      -0.013   1.076   0.008  0.00  0.00    +0.050 A 
ATOM     23  C   UNL     1       1.178   1.785   0.000  0.00  0.00    +0.156 A 
ATOM     24  C   UNL     1       1.157   3.175   0.008  0.00  0.00    +0.166 A 
ATOM     25  C   UNL     1      -0.053   3.845   0.022  0.00  0.00    +0.057 A 
ATOM     26  C   UNL     1      -1.239   3.134   0.029  0.00  0.00    +0.021 A 
ATOM     27 BR   UNL     1      -2.892   4.053   0.049  0.00  0.00    -0.050 Br
ATOM     28  F   UNL     1       2.315   3.869   0.001  0.00  0.00    -0.202 F 
ENDBRANCH  20  23
ENDBRANCH  19  20
ENDBRANCH   1  19
TORSDOF 5
