REMARK  Name = ZINC64491192
REMARK  8 active torsions:
REMARK  status: ('A' for Active; 'I' for Inactive)
REMARK    1  A    between atoms: C_1  and  C_2
REMARK    2  A    between atoms: C_7  and  C_8
REMARK    3  A    between atoms: N_9  and  C_15
REMARK    4  A    between atoms: C_12  and  C_14
REMARK    5  A    between atoms: C_15  and  C_16
REMARK    6  A    between atoms: N_18  and  C_19
REMARK    7  A    between atoms: C_19  and  C_20
REMARK    8  A    between atoms: C_20  and  C_21
REMARK                            x       y       z     vdW  Elec       q    Type
REMARK                         _______ _______ _______ _____ _____    ______ ____
ROOT
ATOM      1  C   UNL     1      -1.339  -5.178   1.719  0.00  0.00    +0.233 C 
ATOM      2  O   UNL     1      -2.270  -4.791   1.045  0.00  0.00    -0.274 OA
ATOM      3  N   UNL     1      -1.571  -5.854   2.862  0.00  0.00    -0.314 N 
ATOM      4  H   UNL     1      -0.826  -6.164   3.401  0.00  0.00    +0.149 HD
ENDROOT
BRANCH   1   5
ATOM      5  C   UNL     1       0.076  -4.903   1.279  0.00  0.00    +0.221 C 
BRANCH   5  14
ATOM      6  C   UNL     1      -0.018   1.503   0.010  0.00  0.00    +0.044 C 
ATOM      7  C   UNL     1       0.002  -0.004   0.002  0.00  0.00    -0.045 A 
ATOM      8  C   UNL     1       0.005  -0.673  -1.187  0.00  0.00    +0.033 A 
ATOM      9  C   UNL     1       0.025  -2.076  -1.202  0.00  0.00    +0.088 A 
ATOM     10  C   UNL     1       0.040  -2.779   0.017  0.00  0.00    +0.071 A 
ATOM     11  C   UNL     1       0.036  -2.076   1.218  0.00  0.00    +0.031 A 
ATOM     12  C   UNL     1       0.023  -0.698   1.205  0.00  0.00    -0.045 A 
ATOM     13  C   UNL     1       0.025   0.062   2.506  0.00  0.00    +0.044 C 
ATOM     14  N   UNL     1       0.059  -4.159   0.017  0.00  0.00    -0.296 N 
ATOM     15  C   UNL     1       0.063  -4.814  -1.165  0.00  0.00    +0.273 A 
ATOM     16  O   UNL     1       0.079  -6.031  -1.196  0.00  0.00    -0.266 OA
ATOM     17  C   UNL     1       0.046  -4.040  -2.411  0.00  0.00    +0.103 A 
ATOM     18  N   UNL     1       0.028  -2.738  -2.375  0.00  0.00    -0.245 NA
ATOM     19  C   UNL     1       0.051  -4.754  -3.738  0.00  0.00    +0.071 C 
ENDBRANCH   5  14
ENDBRANCH   1   5
BRANCH   3  20
ATOM     20  C   UNL     1      -2.946  -6.121   3.289  0.00  0.00    +0.108 C 
BRANCH  20  21
ATOM     21  C   UNL     1      -2.929  -6.898   4.607  0.00  0.00    +0.052 C 
BRANCH  21  22
ATOM     22  C   UNL     1      -4.344  -7.173   5.047  0.00  0.00    -0.040 C 
ATOM     23  C   UNL     1      -5.063  -8.295   4.819  0.00  0.00    -0.001 A 
ATOM     24  C   UNL     1      -4.755  -9.548   4.118  0.00  0.00    +0.010 A 
ATOM     25  C   UNL     1      -5.701 -10.512   4.053  0.00  0.00    +0.001 A 
ATOM     26  C   UNL     1      -6.965 -10.346   4.635  0.00  0.00    +0.002 A 
ATOM     27  C   UNL     1      -7.322  -9.223   5.295  0.00  0.00    +0.026 A 
ATOM     28  C   UNL     1      -6.405  -8.144   5.426  0.00  0.00    +0.043 A 
ATOM     29  N   UNL     1      -6.511  -6.974   6.006  0.00  0.00    -0.380 N 
ATOM     30  C   UNL     1      -5.245  -6.252   5.839  0.00  0.00    +0.144 C 
ATOM     31  H   UNL     1      -7.294  -6.642   6.473  0.00  0.00    +0.160 HD
ENDBRANCH  21  22
ENDBRANCH  20  21
ENDBRANCH   3  20
TORSDOF 5
