REMARK  Name = ZINC38701419
REMARK  11 active torsions:
REMARK  status: ('A' for Active; 'I' for Inactive)
REMARK    1  A    between atoms: C_1  and  C_2
REMARK    2  A    between atoms: C_2  and  O_3
REMARK    3  A    between atoms: O_3  and  C_4
REMARK    4  A    between atoms: C_7  and  C_10
REMARK    5  A    between atoms: C_15  and  O_24
REMARK    6  A    between atoms: C_19  and  N_23
REMARK    7  A    between atoms: C_20  and  C_21
REMARK    8  A    between atoms: O_24  and  C_25
REMARK    9  A    between atoms: C_25  and  C_27
REMARK   10  A    between atoms: C_30  and  O_34
REMARK   11  A    between atoms: O_34  and  C_35
REMARK                            x       y       z     vdW  Elec       q    Type
REMARK                         _______ _______ _______ _____ _____    ______ ____
ROOT
ATOM      1  C   UNL     1       1.100  -6.071  -1.902  0.00  0.00    +0.098 C 
ATOM      2  C   UNL     1       2.557  -6.447  -1.940  0.00  0.00    +0.008 A 
ATOM      3  C   UNL     1       3.305  -6.390  -0.777  0.00  0.00    +0.012 A 
ATOM      4  C   UNL     1       4.643  -6.732  -0.793  0.00  0.00    +0.047 A 
ATOM      5  C   UNL     1       5.242  -7.133  -1.979  0.00  0.00    +0.135 A 
ATOM      6  C   UNL     1       4.497  -7.191  -3.145  0.00  0.00    +0.093 A 
ATOM      7  C   UNL     1       3.151  -6.847  -3.127  0.00  0.00    +0.138 A 
ATOM      8  O   UNL     1       2.434  -6.909  -4.277  0.00  0.00    -0.441 OA
ATOM      9  C   UNL     1       1.093  -6.964  -4.228  0.00  0.00    +0.199 C 
ATOM     10  C   UNL     1       0.403  -6.581  -3.132  0.00  0.00    +0.098 C 
ENDROOT
BRANCH   1  14
ATOM     11  C   UNL     1       0.739  -1.816  -1.731  0.00  0.00    +0.121 A 
ATOM     12  C   UNL     1       0.222  -2.599  -0.709  0.00  0.00    +0.046 A 
ATOM     13  C   UNL     1       0.340  -3.974  -0.767  0.00  0.00    +0.008 A 
ATOM     14  C   UNL     1       0.972  -4.571  -1.842  0.00  0.00    -0.034 A 
ATOM     15  C   UNL     1       1.489  -3.793  -2.862  0.00  0.00    +0.008 A 
ATOM     16  C   UNL     1       1.369  -2.417  -2.812  0.00  0.00    +0.046 A 
BRANCH  11  17
ATOM     17  O   UNL     1       0.624  -0.463  -1.677  0.00  0.00    -0.492 OA
BRANCH  17  19
ATOM     18  C   UNL     1      -0.069   1.612  -0.650  0.00  0.00    +0.048 C 
ATOM     19  C   UNL     1      -0.036   0.086  -0.535  0.00  0.00    +0.225 C 
ENDBRANCH  17  19
ENDBRANCH  11  17
ENDBRANCH   1  14
BRANCH   9  20
ATOM     20  N   UNL     1       0.405  -7.423  -5.324  0.00  0.00    -0.328 N 
ATOM     21  H   UNL     1       0.888  -7.701  -6.118  0.00  0.00    +0.145 HD
ATOM     22  H   UNL     1      -0.563  -7.469  -5.304  0.00  0.00    +0.145 HD
ENDBRANCH   9  20
BRANCH  10  23
ATOM     23  C   UNL     1      -1.027  -6.664  -3.145  0.00  0.00    +0.101 C 
ATOM     24  N   UNL     1      -2.161  -6.730  -3.155  0.00  0.00    -0.191 NA
ENDBRANCH  10  23
BRANCH   5  25
ATOM     25  O   UNL     1       6.559  -7.471  -1.996  0.00  0.00    -0.422 OA
BRANCH  25  26
ATOM     26  C   UNL     1       7.414  -6.651  -2.639  0.00  0.00    +0.344 C 
ATOM     27  O   UNL     1       7.019  -5.594  -3.090  0.00  0.00    -0.245 OA
BRANCH  26  28
ATOM     28  C   UNL     1       8.829  -7.036  -2.794  0.00  0.00    +0.061 A 
ATOM     29  C   UNL     1       9.284  -8.254  -2.281  0.00  0.00    +0.018 A 
ATOM     30  C   UNL     1      10.605  -8.611  -2.429  0.00  0.00    +0.048 A 
ATOM     31  C   UNL     1      11.487  -7.762  -3.087  0.00  0.00    +0.138 A 
ATOM     32  C   UNL     1      11.039  -6.549  -3.599  0.00  0.00    +0.083 A 
ATOM     33  C   UNL     1       9.717  -6.187  -3.461  0.00  0.00    +0.038 A 
ATOM     34 CL   UNL     1      12.146  -5.493  -4.421  0.00  0.00    -0.080 Cl
BRANCH  31  35
ATOM     35  O   UNL     1      12.790  -8.117  -3.230  0.00  0.00    -0.494 OA
ATOM     36  C   UNL     1      13.182  -9.376  -2.679  0.00  0.00    +0.277 C 
ENDBRANCH  31  35
ENDBRANCH  26  28
ENDBRANCH  25  26
ENDBRANCH   5  25
TORSDOF 9
