REMARK  Name = ZINC01436629
REMARK  13 active torsions:
REMARK  status: ('A' for Active; 'I' for Inactive)
REMARK    1  A    between atoms: C_1  and  O_2
REMARK    2  A    between atoms: O_2  and  C_3
REMARK    3  A    between atoms: C_8  and  C_9
REMARK    4  A    between atoms: C_15  and  C_33
REMARK    5  A    between atoms: C_16  and  C_25
REMARK    6  A    between atoms: C_18  and  C_21
REMARK    7  A    between atoms: C_19  and  N_20
REMARK    8  A    between atoms: C_21  and  O_23
REMARK    9  A    between atoms: O_23  and  C_24
REMARK   10  A    between atoms: C_30  and  O_31
REMARK   11  A    between atoms: O_31  and  C_32
REMARK   12  A    between atoms: C_33  and  O_35
REMARK   13  A    between atoms: O_35  and  C_36
REMARK                            x       y       z     vdW  Elec       q    Type
REMARK                         _______ _______ _______ _____ _____    ______ ____
ROOT
ATOM      1  C   UNL     1      -4.367   6.487  -1.225  0.00  0.00    +0.032 C 
ATOM      2  C   UNL     1      -3.316   5.664  -0.972  0.00  0.00    +0.080 A 
ATOM      3  C   UNL     1      -2.849   5.117   0.305  0.00  0.00    +0.271 A 
ATOM      4  O   UNL     1      -3.422   5.385   1.345  0.00  0.00    -0.266 OA
ATOM      5  N   UNL     1      -1.769   4.309   0.302  0.00  0.00    -0.257 N 
ATOM      6  C   UNL     1      -1.169   4.048  -0.913  0.00  0.00    +0.100 A 
ATOM      7  C   UNL     1      -0.068   3.249  -1.073  0.00  0.00    +0.079 C 
ATOM      8  C   UNL     1       0.536   2.607   0.161  0.00  0.00    +0.102 C 
ATOM      9  C   UNL     1      -0.156   2.922   1.472  0.00  0.00    +0.087 C 
ATOM     10  C   UNL     1      -1.239   3.735   1.460  0.00  0.00    +0.115 C 
ATOM     11  S   UNL     1      -2.134   4.954  -2.106  0.00  0.00    -0.065 S 
ENDROOT
BRANCH   1  17
ATOM     12  C   UNL     1      -6.512   7.209  -0.188  0.00  0.00    +0.127 A 
ATOM     13  C   UNL     1      -7.208   7.774   0.869  0.00  0.00    +0.046 A 
ATOM     14  C   UNL     1      -6.529   8.215   1.989  0.00  0.00    +0.004 A 
ATOM     15  C   UNL     1      -5.151   8.094   2.068  0.00  0.00    +0.001 A 
ATOM     16  C   UNL     1      -4.442   7.529   1.031  0.00  0.00    +0.011 A 
ATOM     17  C   UNL     1      -5.115   7.085  -0.113  0.00  0.00    +0.018 A 
BRANCH  12  19
ATOM     18  C   UNL     1      -8.598   6.936  -1.292  0.00  0.00    +0.277 C 
ATOM     19  O   UNL     1      -7.178   6.777  -1.289  0.00  0.00    -0.495 OA
ENDBRANCH  12  19
ENDBRANCH   1  17
BRANCH   8  20
ATOM     20  C   UNL     1       0.523   1.112  -0.031  0.00  0.00    +0.007 A 
ATOM     21  C   UNL     1      -0.674   0.450  -0.222  0.00  0.00    +0.008 A 
ATOM     22  C   UNL     1      -0.686  -0.921  -0.399  0.00  0.00    +0.001 A 
ATOM     23  C   UNL     1       0.499  -1.633  -0.386  0.00  0.00    +0.004 A 
ATOM     24  C   UNL     1       1.699  -0.976  -0.196  0.00  0.00    +0.046 A 
ATOM     25  C   UNL     1       1.714   0.400  -0.018  0.00  0.00    +0.124 A 
BRANCH  25  26
ATOM     26  O   UNL     1       2.893   1.050   0.170  0.00  0.00    -0.495 OA
ATOM     27  C   UNL     1       4.079   0.253   0.172  0.00  0.00    +0.277 C 
ENDBRANCH  25  26
ENDBRANCH   8  20
BRANCH  10  28
ATOM     28  N   UNL     1      -1.852   4.009   2.655  0.00  0.00    -0.344 N 
ATOM     29  H   UNL     1      -1.989   3.301   3.304  0.00  0.00    +0.144 HD
ATOM     30  H   UNL     1      -2.148   4.911   2.852  0.00  0.00    +0.144 HD
ENDBRANCH  10  28
BRANCH   9  31
ATOM     31  C   UNL     1       0.317   2.381   2.676  0.00  0.00    +0.339 C 
ATOM     32  O   UNL     1      -0.282   2.592   3.716  0.00  0.00    -0.245 OA
BRANCH  31  33
ATOM     33  O   UNL     1       1.438   1.627   2.684  0.00  0.00    -0.465 OA
ATOM     34  C   UNL     1       1.862   1.109   3.946  0.00  0.00    +0.280 C 
ENDBRANCH  31  33
ENDBRANCH   9  31
BRANCH   7  35
ATOM     35  C   UNL     1       0.486   3.031  -2.341  0.00  0.00    +0.338 C 
ATOM     36  O   UNL     1      -0.013   3.556  -3.322  0.00  0.00    -0.245 OA
BRANCH  35  37
ATOM     37  O   UNL     1       1.572   2.240  -2.478  0.00  0.00    -0.465 OA
ATOM     38  C   UNL     1       2.083   2.062  -3.800  0.00  0.00    +0.280 C 
ENDBRANCH  35  37
ENDBRANCH   7  35
TORSDOF 9
