REMARK  Name = ZINC13155015
REMARK  10 active torsions:
REMARK  status: ('A' for Active; 'I' for Inactive)
REMARK    1  A    between atoms: C_1  and  O_2
REMARK    2  A    between atoms: O_2  and  C_3
REMARK    3  A    between atoms: C_5  and  C_13
REMARK    4  A    between atoms: C_6  and  O_11
REMARK    5  A    between atoms: C_8  and  O_9
REMARK    6  A    between atoms: O_9  and  C_10
REMARK    7  A    between atoms: O_11  and  C_12
REMARK    8  A    between atoms: N_14  and  C_15
REMARK    9  A    between atoms: C_15  and  C_16
REMARK   10  A    between atoms: C_16  and  C_21
REMARK                            x       y       z     vdW  Elec       q    Type
REMARK                         _______ _______ _______ _____ _____    ______ ____
ROOT
ATOM      1  C   UNL     1       3.869   0.629  -4.734  0.00  0.00    +0.090 C 
ATOM      2  N   UNL     1       2.995  -0.170  -5.258  0.00  0.00    -0.389 N 
ATOM      3  H   UNL     1       2.121   0.166  -5.512  0.00  0.00    +0.159 HD
ENDROOT
BRANCH   1   6
ATOM      4  C   UNL     1       6.272  -1.716  -3.061  0.00  0.00    +0.162 A 
ATOM      5  C   UNL     1       5.114  -1.211  -3.615  0.00  0.00    +0.062 A 
ATOM      6  C   UNL     1       5.101   0.086  -4.141  0.00  0.00    +0.036 A 
ATOM      7  C   UNL     1       6.266   0.865  -4.100  0.00  0.00    +0.132 A 
ATOM      8  C   UNL     1       7.422   0.348  -3.541  0.00  0.00    +0.095 A 
ATOM      9  C   UNL     1       7.427  -0.936  -3.017  0.00  0.00    +0.165 A 
BRANCH   4  11
ATOM     10  C   UNL     1       5.069  -3.722  -2.627  0.00  0.00    +0.277 C 
ATOM     11  O   UNL     1       6.286  -2.977  -2.549  0.00  0.00    -0.491 OA
ENDBRANCH   4  11
BRANCH   9  12
ATOM     12  O   UNL     1       8.562  -1.437  -2.465  0.00  0.00    -0.491 OA
ATOM     13  C   UNL     1       9.709  -0.584  -2.453  0.00  0.00    +0.277 C 
ENDBRANCH   9  12
BRANCH   7  14
ATOM     14  O   UNL     1       6.261   2.124  -4.609  0.00  0.00    -0.494 OA
ATOM     15  C   UNL     1       7.509   2.819  -4.634  0.00  0.00    +0.277 C 
ENDBRANCH   7  14
ENDBRANCH   1   6
BRANCH   2  16
ATOM     16  C   UNL     1       3.326  -1.582  -5.468  0.00  0.00    +0.123 C 
BRANCH  16  17
ATOM     17  C   UNL     1       2.756  -2.045  -6.809  0.00  0.00    +0.013 C 
ATOM     18  C   UNL     1       1.234  -1.822  -6.841  0.00  0.00    +0.013 C 
ATOM     19  C   UNL     1       0.588  -3.209  -7.034  0.00  0.00    +0.001 C 
ATOM     20  C   UNL     1       1.655  -4.201  -6.506  0.00  0.00    +0.001 C 
ATOM     21  C   UNL     1       2.982  -3.561  -6.984  0.00  0.00    +0.013 C 
BRANCH  17  22
ATOM     22  C   UNL     1       3.413  -1.292  -7.937  0.00  0.00    -0.040 A 
ATOM     23  C   UNL     1       4.485  -0.458  -7.679  0.00  0.00    +0.004 A 
ATOM     24  C   UNL     1       5.088   0.233  -8.713  0.00  0.00    +0.000 A 
ATOM     25  C   UNL     1       4.619   0.089 -10.006  0.00  0.00    +0.000 A 
ATOM     26  C   UNL     1       3.548  -0.746 -10.264  0.00  0.00    +0.000 A 
ATOM     27  C   UNL     1       2.948  -1.440  -9.230  0.00  0.00    +0.004 A 
ENDBRANCH  17  22
ENDBRANCH  16  17
ENDBRANCH   2  16
TORSDOF 7
