REMARK  Name = ZINC06824359
REMARK  5 active torsions:
REMARK  status: ('A' for Active; 'I' for Inactive)
REMARK    1  A    between atoms: C_1  and  C_2
REMARK    2  A    between atoms: C_4  and  C_13
REMARK    3  A    between atoms: C_14  and  C_15
REMARK    4  A    between atoms: N_17  and  C_18
REMARK    5  A    between atoms: C_19  and  C_27
REMARK                            x       y       z     vdW  Elec       q    Type
REMARK                         _______ _______ _______ _____ _____    ______ ____
ROOT
ATOM      1  C   UNL     1       2.800  -2.411  -0.036  0.00  0.00    +0.241 C 
ATOM      2  O   UNL     1       3.710  -1.602  -0.040  0.00  0.00    -0.270 OA
ATOM      3  N   UNL     1       1.520  -1.986  -0.022  0.00  0.00    -0.275 N 
ATOM      4  H   UNL     1       0.796  -2.631  -0.018  0.00  0.00    +0.156 HD
ENDROOT
BRANCH   3   5
ATOM      5  C   UNL     1       1.241  -0.629  -0.013  0.00  0.00    +0.090 A 
ATOM      6  C   UNL     1       0.002  -0.004   0.002  0.00  0.00    +0.084 A 
ATOM      7  C   UNL     1      -0.018   1.448   0.010  0.00  0.00    -0.018 A 
ATOM      8  C   UNL     1       1.197   2.040   0.002  0.00  0.00    -0.004 A 
ATOM      9  S   UNL     1       2.353   0.699  -0.016  0.00  0.00    -0.077 S 
ATOM     10  C   UNL     1       1.486   3.510   0.005  0.00  0.00    +0.043 C 
ATOM     11  C   UNL     1       0.194   4.257  -0.357  0.00  0.00    +0.005 C 
ATOM     12  C   UNL     1      -0.953   3.697   0.488  0.00  0.00    +0.005 C 
ATOM     13  C   UNL     1      -1.295   2.279   0.033  0.00  0.00    +0.037 C 
BRANCH   6  14
ATOM     14  C   UNL     1      -1.212  -0.763   0.009  0.00  0.00    +0.102 C 
ATOM     15  N   UNL     1      -2.175  -1.365   0.015  0.00  0.00    -0.191 NA
ENDBRANCH   6  14
ENDBRANCH   3   5
BRANCH   1  17
ATOM     16  C   UNL     1       4.374  -4.224  -0.059  0.00  0.00    +0.012 C 
ATOM     17  C   UNL     1       3.085  -3.796  -0.045  0.00  0.00    +0.068 C 
BRANCH  16  20
ATOM     18  C   UNL     1       3.195  -6.980   1.382  0.00  0.00    +0.057 C 
ATOM     19  C   UNL     1       3.536  -6.610  -0.063  0.00  0.00    +0.201 C 
ATOM     20  C   UNL     1       4.659  -5.605  -0.069  0.00  0.00    -0.007 C 
ATOM     21  C   UNL     1       5.949  -6.037  -0.088  0.00  0.00    +0.018 C 
ATOM     22  C   UNL     1       6.186  -7.488  -0.112  0.00  0.00    +0.017 A 
ATOM     23  C   UNL     1       7.433  -8.028   0.203  0.00  0.00    +0.011 A 
ATOM     24  C   UNL     1       7.610  -9.396   0.165  0.00  0.00    +0.001 A 
ATOM     25  C   UNL     1       6.559 -10.228  -0.184  0.00  0.00    +0.004 A 
ATOM     26  C   UNL     1       5.319  -9.704  -0.499  0.00  0.00    +0.046 A 
ATOM     27  C   UNL     1       5.121  -8.335  -0.467  0.00  0.00    +0.128 A 
ATOM     28  O   UNL     1       3.918  -7.790  -0.771  0.00  0.00    -0.484 OA
ENDBRANCH  16  20
ENDBRANCH   1  17
TORSDOF 4
