REMARK  Name = ZINC63721557
REMARK  10 active torsions:
REMARK  status: ('A' for Active; 'I' for Inactive)
REMARK    1  A    between atoms: C_1  and  C_2
REMARK    2  A    between atoms: C_5  and  N_9
REMARK    3  A    between atoms: C_6  and  C_8
REMARK    4  A    between atoms: N_9  and  C_10
REMARK    5  A    between atoms: C_10  and  N_12
REMARK    6  A    between atoms: N_12  and  C_13
REMARK    7  A    between atoms: N_12  and  C_28
REMARK    8  A    between atoms: C_13  and  C_14
REMARK    9  A    between atoms: C_18  and  C_20
REMARK   10  A    between atoms: C_20  and  C_21
REMARK                            x       y       z     vdW  Elec       q    Type
REMARK                         _______ _______ _______ _____ _____    ______ ____
ROOT
ATOM      1  N   UNL     1       0.072  -6.264  -1.051  0.00  0.00    -0.307 N 
ENDROOT
BRANCH   1   2
ATOM      2  C   UNL     1      -0.095  -6.910   0.253  0.00  0.00    +0.075 C 
ATOM      3  C   UNL     1      -1.417  -6.426   0.884  0.00  0.00    +0.022 C 
ATOM      4  C   UNL     1      -1.842  -7.423   1.928  0.00  0.00    +0.002 C 
ATOM      5  C   UNL     1      -1.360  -7.040   3.340  0.00  0.00    +0.000 C 
ATOM      6  C   UNL     1       0.086  -6.508   3.354  0.00  0.00    +0.000 C 
ATOM      7  C   UNL     1       1.000  -7.299   2.457  0.00  0.00    +0.002 C 
ATOM      8  C   UNL     1       1.060  -6.602   1.083  0.00  0.00    +0.022 C 
ENDBRANCH   1   2
BRANCH   1   9
ATOM      9  C   UNL     1       0.359  -4.949  -1.121  0.00  0.00    +0.137 C 
ATOM     10  S   UNL     1       0.556  -4.195  -2.645  0.00  0.00    -0.018 S 
BRANCH   9  11
ATOM     11  N   UNL     1       0.493  -4.228   0.010  0.00  0.00    -0.297 N 
ATOM     12  H   UNL     1       1.377  -4.011   0.345  0.00  0.00    +0.154 HD
BRANCH  11  17
ATOM     13  C   UNL     1      -4.115  -2.463   2.809  0.00  0.00    +0.044 C 
ATOM     14  C   UNL     1      -2.891  -2.932   2.065  0.00  0.00    -0.050 A 
ATOM     15  C   UNL     1      -3.022  -3.508   0.815  0.00  0.00    +0.005 A 
ATOM     16  C   UNL     1      -1.902  -3.939   0.131  0.00  0.00    +0.024 A 
ATOM     17  C   UNL     1      -0.643  -3.793   0.700  0.00  0.00    +0.036 A 
ATOM     18  C   UNL     1      -0.515  -3.213   1.956  0.00  0.00    -0.029 A 
ATOM     19  C   UNL     1      -1.639  -2.780   2.632  0.00  0.00    +0.008 A 
ATOM     20  C   UNL     1       0.848  -3.053   2.577  0.00  0.00    +0.045 C 
ENDBRANCH  11  17
ENDBRANCH   9  11
ENDBRANCH   1   9
BRANCH   1  21
ATOM     21  C   UNL     1      -0.074  -7.048  -2.280  0.00  0.00    +0.138 C 
BRANCH  21  22
ATOM     22  C   UNL     1       1.284  -7.628  -2.679  0.00  0.00    +0.146 C 
ATOM     23  C   UNL     1       1.129  -8.564  -3.857  0.00  0.00    +0.003 C 
ATOM     24  C   UNL     1       1.542  -9.757  -3.434  0.00  0.00    +0.021 C 
ATOM     25  C   UNL     1       1.964  -9.659  -2.036  0.00  0.00    +0.041 C 
ATOM     26  N   UNL     1       1.825  -8.452  -1.591  0.00  0.00    -0.279 NA
BRANCH  25  27
ATOM     27  C   UNL     1       2.493 -10.812  -1.221  0.00  0.00    +0.091 C 
BRANCH  27  28
ATOM     28  C   UNL     1       1.406 -11.840  -1.042  0.00  0.00    -0.023 A 
ATOM     29  C   UNL     1       0.618 -11.822   0.093  0.00  0.00    +0.005 A 
ATOM     30  C   UNL     1      -0.379 -12.765   0.258  0.00  0.00    +0.000 A 
ATOM     31  C   UNL     1      -0.589 -13.727  -0.713  0.00  0.00    +0.001 A 
ATOM     32  C   UNL     1       0.199 -13.746  -1.848  0.00  0.00    +0.020 A 
ATOM     33  C   UNL     1       1.193 -12.799  -2.016  0.00  0.00    +0.045 A 
ATOM     34 CL   UNL     1       2.178 -12.818  -3.446  0.00  0.00    -0.083 Cl
ENDBRANCH  27  28
ENDBRANCH  25  27
ENDBRANCH  21  22
ENDBRANCH   1  21
TORSDOF 8
