REMARK  Name = ZINC15356872
REMARK  10 active torsions:
REMARK  status: ('A' for Active; 'I' for Inactive)
REMARK    1  A    between atoms: C_3  and  C_6
REMARK    2  A    between atoms: C_6  and  O_7
REMARK    3  A    between atoms: O_7  and  C_8
REMARK    4  A    between atoms: C_13  and  C_14
REMARK    5  A    between atoms: C_14  and  N_15
REMARK    6  A    between atoms: N_15  and  C_16
REMARK    7  A    between atoms: C_16  and  C_17
REMARK    8  A    between atoms: C_17  and  C_18
REMARK    9  A    between atoms: C_21  and  S_24
REMARK   10  A    between atoms: S_24  and  N_27
REMARK                            x       y       z     vdW  Elec       q    Type
REMARK                         _______ _______ _______ _____ _____    ______ ____
ROOT
ATOM      1  N   UNL     1      -1.690   3.871  -3.190  0.00  0.00    -0.312 NA
ATOM      2  H   UNL     1      -1.146   3.934  -2.236  0.00  0.00    +0.122 HD
ENDROOT
BRANCH   1   3
ATOM      3  C   UNL     1      -2.062   2.474  -3.451  0.00  0.00    +0.120 C 
BRANCH   3   9
ATOM      4  C   UNL     1      -0.194   1.208  -2.360  0.00  0.00    +0.125 A 
ATOM      5  C   UNL     1       0.948   0.423  -2.431  0.00  0.00    +0.047 A 
ATOM      6  C   UNL     1       1.465   0.067  -3.661  0.00  0.00    +0.019 A 
ATOM      7  C   UNL     1       0.844   0.491  -4.822  0.00  0.00    +0.018 A 
ATOM      8  C   UNL     1      -0.295   1.274  -4.754  0.00  0.00    +0.023 A 
ATOM      9  C   UNL     1      -0.818   1.628  -3.525  0.00  0.00    +0.009 A 
ATOM     10 BR   UNL     1       1.553   0.002  -6.505  0.00  0.00    -0.050 Br
BRANCH   4  11
ATOM     11  O   UNL     1      -0.704   1.559  -1.150  0.00  0.00    -0.487 OA
BRANCH  11  12
ATOM     12  C   UNL     1      -0.013   1.086   0.008  0.00  0.00    +0.271 C 
BRANCH  12  15
ATOM     13  C   UNL     1      -2.214   1.616   3.071  0.00  0.00    +0.008 A 
ATOM     14  C   UNL     1      -1.714   0.979   1.951  0.00  0.00    +0.014 A 
ATOM     15  C   UNL     1      -0.718   1.572   1.248  0.00  0.00    +0.027 A 
ATOM     16  S   UNL     1      -0.454   3.074   2.176  0.00  0.00    -0.098 S 
ATOM     17  C   UNL     1      -1.694   2.814   3.433  0.00  0.00    +0.045 A 
ENDBRANCH  12  15
ENDBRANCH  11  12
ENDBRANCH   4  11
ENDBRANCH   3   9
ENDBRANCH   1   3
BRANCH   1  18
ATOM     18  C   UNL     1      -2.880   4.728  -3.111  0.00  0.00    +0.086 C 
BRANCH  18  19
ATOM     19  C   UNL     1      -2.453   6.172  -2.840  0.00  0.00    +0.050 C 
BRANCH  19  20
ATOM     20  C   UNL     1      -3.674   7.051  -2.759  0.00  0.00    -0.046 A 
ATOM     21  C   UNL     1      -4.164   7.660  -3.899  0.00  0.00    +0.005 A 
ATOM     22  C   UNL     1      -5.287   8.463  -3.825  0.00  0.00    +0.029 A 
ATOM     23  C   UNL     1      -5.915   8.663  -2.610  0.00  0.00    +0.105 A 
ATOM     24  C   UNL     1      -5.422   8.058  -1.469  0.00  0.00    +0.029 A 
ATOM     25  C   UNL     1      -4.301   7.252  -1.544  0.00  0.00    +0.005 A 
BRANCH  23  26
ATOM     26  S   UNL     1      -7.344   9.690  -2.516  0.00  0.00    +0.056 S 
ATOM     27  O   UNL     1      -7.923   9.699  -3.813  0.00  0.00    -0.153 OA
ATOM     28  O   UNL     1      -8.064   9.278  -1.362  0.00  0.00    -0.153 OA
BRANCH  26  29
ATOM     29  N   UNL     1      -6.819  11.233  -2.220  0.00  0.00    -0.204 NA
ATOM     30  H   UNL     1      -7.685  11.908  -2.154  0.00  0.00    +0.144 HD
ATOM     31  H   UNL     1      -6.162  11.560  -3.039  0.00  0.00    +0.144 HD
ENDBRANCH  26  29
ENDBRANCH  23  26
ENDBRANCH  19  20
ENDBRANCH  18  19
ENDBRANCH   1  18
TORSDOF 10
