REMARK  Name = ZINC09237730
REMARK  6 active torsions:
REMARK  status: ('A' for Active; 'I' for Inactive)
REMARK    1  A    between atoms: C_1  and  C_2
REMARK    2  A    between atoms: C_4  and  C_38
REMARK    3  A    between atoms: C_9  and  C_27
REMARK    4  A    between atoms: C_11  and  C_18
REMARK    5  A    between atoms: C_22  and  N_24
REMARK    6  A    between atoms: C_27  and  C_29
REMARK                            x       y       z     vdW  Elec       q    Type
REMARK                         _______ _______ _______ _____ _____    ______ ____
ROOT
ATOM      1  C   UNL     1       2.006  -2.865   3.534  0.00  0.00    +0.044 C 
ATOM      2  C   UNL     1       2.579  -1.614   2.918  0.00  0.00    -0.050 A 
ATOM      3  C   UNL     1       3.935  -1.356   3.007  0.00  0.00    +0.008 A 
ATOM      4  C   UNL     1       4.465  -0.213   2.445  0.00  0.00    -0.029 A 
ATOM      5  C   UNL     1       3.637   0.691   1.784  0.00  0.00    +0.039 A 
ATOM      6  C   UNL     1       2.275   0.420   1.699  0.00  0.00    -0.027 A 
ATOM      7  C   UNL     1       1.750  -0.722   2.261  0.00  0.00    +0.008 A 
ATOM      8  C   UNL     1       1.674   1.568   0.938  0.00  0.00    +0.052 C 
ATOM      9  C   UNL     1       0.605   2.292   1.763  0.00  0.00    +0.069 C 
ATOM     10  C   UNL     1      -0.719   1.614   1.347  0.00  0.00    +0.016 C 
ATOM     11  C   UNL     1      -0.394   0.850   0.058  0.00  0.00    -0.047 C 
ATOM     12  C   UNL     1       1.151   2.183  -1.324  0.00  0.00    -0.005 C 
ATOM     13  S   UNL     1      -0.322   1.829  -2.380  0.00  0.00    -0.181 S 
ATOM     14  C   UNL     1      -1.415   1.189  -1.040  0.00  0.00    +0.052 C 
ATOM     15  C   UNL     1       2.832   2.477   0.624  0.00  0.00    +0.212 C 
ATOM     16  O   UNL     1       2.785   3.527   0.019  0.00  0.00    -0.277 OA
ATOM     17  N   UNL     1       3.930   1.898   1.146  0.00  0.00    -0.286 N 
ATOM     18  C   UNL     1       5.944   0.059   2.548  0.00  0.00    +0.045 C 
ATOM     19  H   UNL     1       4.822   2.276   1.086  0.00  0.00    +0.155 HD
ATOM     20  N   UNL     1       1.018   1.114  -0.271  0.00  0.00    +0.401 N 
ATOM     21  H   UNL     1       1.458   0.249  -0.608  0.00  0.00    -0.078 HD
ENDROOT
BRANCH  10  22
ATOM     22  C   UNL     1      -1.778   2.653   1.085  0.00  0.00    -0.043 A 
ATOM     23  C   UNL     1      -1.476   3.776   0.336  0.00  0.00    +0.004 A 
ATOM     24  C   UNL     1      -2.448   4.726   0.092  0.00  0.00    +0.002 A 
ATOM     25  C   UNL     1      -3.721   4.561   0.605  0.00  0.00    +0.033 A 
ATOM     26  C   UNL     1      -4.023   3.441   1.358  0.00  0.00    +0.126 A 
ATOM     27  C   UNL     1      -3.051   2.487   1.598  0.00  0.00    +0.036 A 
BRANCH  26  28
ATOM     28  N   UNL     1      -5.386   3.264   1.907  0.00  0.00    +0.056 N 
ATOM     29  O   UNL     1      -5.651   2.278   2.571  0.00  0.00    -0.126 OA
ATOM     30  O   UNL     1      -6.242   4.104   1.696  0.00  0.00    -0.126 OA
ENDBRANCH  26  28
ENDBRANCH  10  22
BRANCH   9  31
ATOM     31  C   UNL     1       0.855   2.098   3.237  0.00  0.00    +0.166 C 
ATOM     32  O   UNL     1       0.350   1.163   3.820  0.00  0.00    -0.292 OA
BRANCH  31  33
ATOM     33  C   UNL     1       1.714   3.044   3.967  0.00  0.00    +0.018 A 
ATOM     34  C   UNL     1       2.304   4.120   3.297  0.00  0.00    +0.011 A 
ATOM     35  C   UNL     1       3.102   5.006   3.990  0.00  0.00    +0.001 A 
ATOM     36  C   UNL     1       3.330   4.825   5.343  0.00  0.00    +0.000 A 
ATOM     37  C   UNL     1       2.755   3.759   6.012  0.00  0.00    +0.001 A 
ATOM     38  C   UNL     1       1.949   2.868   5.335  0.00  0.00    +0.011 A 
ENDBRANCH  31  33
ENDBRANCH   9  31
TORSDOF 4
