REMARK  Name = ZINC56876867
REMARK  4 active torsions:
REMARK  status: ('A' for Active; 'I' for Inactive)
REMARK    1  A    between atoms: C_1  and  C_2
REMARK    2  A    between atoms: C_6  and  C_7
REMARK    3  A    between atoms: C_7  and  N_8
REMARK    4  A    between atoms: C_15  and  C_18
REMARK                            x       y       z     vdW  Elec       q    Type
REMARK                         _______ _______ _______ _____ _____    ______ ____
ROOT
ATOM      1  N   UNL     1      -0.560   0.736   5.112  0.00  0.00    -0.295 N 
ATOM      2  C   UNL     1      -1.589   0.425   4.299  0.00  0.00    +0.303 C 
ATOM      3  O   UNL     1      -1.377   0.107   3.145  0.00  0.00    -0.253 OA
ATOM      4  N   UNL     1      -2.853   0.467   4.765  0.00  0.00    -0.281 N 
ATOM      5  C   UNL     1      -3.982   0.017   3.935  0.00  0.00    +0.137 C 
ATOM      6  C   UNL     1      -5.054   1.113   3.942  0.00  0.00    +0.179 C 
ATOM      7  O   UNL     1      -5.360   1.463   5.294  0.00  0.00    -0.369 OA
ATOM      8  C   UNL     1      -4.258   2.012   6.020  0.00  0.00    +0.166 C 
ATOM      9  C   UNL     1      -3.144   0.957   6.121  0.00  0.00    +0.145 C 
ATOM     10  H   UNL     1      -0.733   1.059   6.011  0.00  0.00    +0.151 HD
ENDROOT
BRANCH   8  11
ATOM     11  C   UNL     1      -4.710   2.400   7.405  0.00  0.00    -0.017 A 
ATOM     12  C   UNL     1      -5.580   1.581   8.102  0.00  0.00    +0.007 A 
ATOM     13  C   UNL     1      -5.995   1.936   9.371  0.00  0.00    +0.020 A 
ATOM     14  C   UNL     1      -5.541   3.110   9.945  0.00  0.00    +0.041 A 
ATOM     15  C   UNL     1      -4.671   3.929   9.246  0.00  0.00    +0.020 A 
ATOM     16  C   UNL     1      -4.252   3.570   7.979  0.00  0.00    +0.007 A 
ATOM     17 CL   UNL     1      -6.062   3.557  11.539  0.00  0.00    -0.084 Cl
ENDBRANCH   8  11
BRANCH   1  18
ATOM     18  C   UNL     1       0.818   0.586   4.640  0.00  0.00    +0.148 C 
BRANCH  18  24
ATOM     19  C   UNL     1       2.013  -1.230   6.810  0.00  0.00    +0.044 C 
ATOM     20  C   UNL     1       2.326   0.241   6.710  0.00  0.00    -0.039 A 
ATOM     21  C   UNL     1       3.189   0.837   7.611  0.00  0.00    +0.011 A 
ATOM     22  C   UNL     1       3.449   2.162   7.494  0.00  0.00    +0.046 A 
ATOM     23  S   UNL     1       2.461   2.608   6.076  0.00  0.00    -0.100 S 
ATOM     24  C   UNL     1       1.771   0.997   5.732  0.00  0.00    +0.010 A 
ENDBRANCH  18  24
ENDBRANCH   1  18
TORSDOF 3
