REMARK  Name = ZINC43222172
REMARK  6 active torsions:
REMARK  status: ('A' for Active; 'I' for Inactive)
REMARK    1  A    between atoms: C_10  and  C_11
REMARK    2  A    between atoms: C_11  and  N_12
REMARK    3  A    between atoms: C_13  and  C_15
REMARK    4  A    between atoms: C_20  and  C_22
REMARK    5  A    between atoms: N_24  and  C_25
REMARK    6  A    between atoms: C_25  and  C_26
REMARK                            x       y       z     vdW  Elec       q    Type
REMARK                         _______ _______ _______ _____ _____    ______ ____
ROOT
ATOM      1  C   UNL     1       6.704   1.792   2.947  0.00  0.00    +0.068 C 
ATOM      2  C   UNL     1       5.610   2.756   3.453  0.00  0.00    -0.069 C 
ATOM      3  N   UNL     1       6.347   3.775   4.245  0.00  0.00    +0.380 N 
ATOM      4  C   UNL     1       7.587   4.017   3.464  0.00  0.00    -0.069 C 
ATOM      5  C   UNL     1       8.006   2.619   2.954  0.00  0.00    +0.068 C 
ATOM      6  H   UNL     1       5.806   4.623   4.320  0.00  0.00    -0.086 HD
ATOM      7  H   UNL     1       6.571   3.416   5.161  0.00  0.00    -0.086 HD
ENDROOT
BRANCH   1   9
ATOM      8  N   UNL     1       5.269   0.611   1.313  0.00  0.00    -0.311 N 
ATOM      9  C   UNL     1       6.386   1.328   1.548  0.00  0.00    +0.215 C 
ATOM     10  O   UNL     1       7.135   1.601   0.634  0.00  0.00    -0.276 OA
ATOM     11  H   UNL     1       4.670   0.393   2.045  0.00  0.00    +0.149 HD
BRANCH   8  12
ATOM     12  C   UNL     1       4.960   0.161  -0.046  0.00  0.00    +0.140 C 
BRANCH  12  22
ATOM     13  C   UNL     1      -0.016   1.357   0.009  0.00  0.00    +0.001 A 
ATOM     14  C   UNL     1       1.169   2.091   0.002  0.00  0.00    +0.001 A 
ATOM     15  C   UNL     1       2.378   1.468  -0.013  0.00  0.00    +0.009 A 
ATOM     16  C   UNL     1       2.438   0.064  -0.021  0.00  0.00    -0.013 A 
ATOM     17  C   UNL     1       1.233  -0.683  -0.013  0.00  0.00    -0.018 A 
ATOM     18  C   UNL     1       0.002  -0.004   0.002  0.00  0.00    +0.008 A 
ATOM     19  C   UNL     1       1.292  -2.087  -0.021  0.00  0.00    +0.008 A 
ATOM     20  C   UNL     1       2.502  -2.709  -0.036  0.00  0.00    +0.001 A 
ATOM     21  C   UNL     1       3.687  -1.976  -0.043  0.00  0.00    +0.006 A 
ATOM     22  C   UNL     1       3.668  -0.615  -0.037  0.00  0.00    -0.023 A 
ENDBRANCH  12  22
ENDBRANCH   8  12
ENDBRANCH   1   9
BRANCH   5  23
ATOM     23  C   UNL     1       9.014   1.999   3.887  0.00  0.00    +0.215 C 
ATOM     24  O   UNL     1       8.734   0.990   4.498  0.00  0.00    -0.276 OA
ATOM     25  N   UNL     1      10.226   2.567   4.043  0.00  0.00    -0.313 N 
ATOM     26  H   UNL     1      10.450   3.375   3.554  0.00  0.00    +0.149 HD
BRANCH  25  27
ATOM     27  C   UNL     1      11.206   1.965   4.950  0.00  0.00    +0.135 C 
BRANCH  27  28
ATOM     28  C   UNL     1      12.488   2.800   4.943  0.00  0.00    +0.135 C 
ATOM     29  C   UNL     1      13.552   2.160   5.870  0.00  0.00    +0.035 C 
ATOM     30  C   UNL     1      14.861   2.714   5.244  0.00  0.00    +0.031 C 
ATOM     31  C   UNL     1      14.508   2.768   3.742  0.00  0.00    +0.160 C 
ATOM     32  O   UNL     1      13.079   2.795   3.633  0.00  0.00    -0.375 OA
ENDBRANCH  27  28
ENDBRANCH  25  27
ENDBRANCH   5  23
TORSDOF 6
