REMARK  Name = ZINC53360359
REMARK  9 active torsions:
REMARK  status: ('A' for Active; 'I' for Inactive)
REMARK    1  A    between atoms: C_3  and  S_23
REMARK    2  A    between atoms: C_6  and  C_7
REMARK    3  A    between atoms: C_7  and  N_8
REMARK    4  A    between atoms: C_9  and  C_11
REMARK    5  A    between atoms: C_11  and  N_12
REMARK    6  A    between atoms: N_12  and  C_13
REMARK    7  A    between atoms: N_12  and  C_20
REMARK    8  A    between atoms: C_13  and  C_14
REMARK    9  A    between atoms: S_23  and  N_26
REMARK                            x       y       z     vdW  Elec       q    Type
REMARK                         _______ _______ _______ _____ _____    ______ ____
ROOT
ATOM      1  N   UNL     1      -1.655  -1.207  -1.262  0.00  0.00    -0.313 N 
ATOM      2  C   UNL     1      -2.801  -1.859  -1.542  0.00  0.00    +0.197 C 
ATOM      3  O   UNL     1      -3.459  -2.342  -0.646  0.00  0.00    -0.278 OA
ATOM      4  H   UNL     1      -1.129  -0.820  -1.979  0.00  0.00    +0.149 HD
ENDROOT
BRANCH   1   5
ATOM      5  C   UNL     1      -1.205  -1.081   0.127  0.00  0.00    +0.139 C 
BRANCH   5  11
ATOM      6  C   UNL     1       0.076   1.062   0.291  0.00  0.00    +0.007 A 
ATOM      7  C   UNL     1       1.266   1.766   0.329  0.00  0.00    +0.029 A 
ATOM      8  C   UNL     1       2.470   1.092   0.243  0.00  0.00    +0.105 A 
ATOM      9  C   UNL     1       2.485  -0.285   0.120  0.00  0.00    +0.029 A 
ATOM     10  C   UNL     1       1.296  -0.988   0.083  0.00  0.00    +0.007 A 
ATOM     11  C   UNL     1       0.091  -0.315   0.168  0.00  0.00    -0.030 A 
BRANCH   8  12
ATOM     12  S   UNL     1       3.986   1.989   0.290  0.00  0.00    +0.056 S 
ATOM     13  O   UNL     1       4.958   1.178  -0.356  0.00  0.00    -0.153 OA
ATOM     14  O   UNL     1       3.690   3.310  -0.140  0.00  0.00    -0.153 OA
BRANCH  12  15
ATOM     15  N   UNL     1       4.442   2.098   1.878  0.00  0.00    -0.204 NA
ATOM     16  H   UNL     1       3.890   1.700   2.569  0.00  0.00    +0.144 HD
ATOM     17  H   UNL     1       5.260   2.560   2.117  0.00  0.00    +0.144 HD
ENDBRANCH  12  15
ENDBRANCH   8  12
ENDBRANCH   5  11
ENDBRANCH   1   5
BRANCH   2  18
ATOM     18  C   UNL     1      -3.264  -1.988  -2.971  0.00  0.00    +0.019 C 
BRANCH  18  19
ATOM     19  N   UNL     1      -4.528  -2.736  -3.010  0.00  0.00    +0.387 N 
ATOM     20  H   UNL     1      -4.409  -3.623  -2.544  0.00  0.00    -0.081 HD
BRANCH  19  21
ATOM     21  C   UNL     1      -5.575  -1.962  -2.331  0.00  0.00    -0.068 C 
ATOM     22  C   UNL     1      -5.970  -2.396  -0.918  0.00  0.00    -0.017 C 
ATOM     23  C   UNL     1      -6.919  -2.653  -2.090  0.00  0.00    -0.017 C 
ENDBRANCH  19  21
BRANCH  19  24
ATOM     24  C   UNL     1      -4.917  -2.965  -4.408  0.00  0.00    -0.074 C 
BRANCH  24  25
ATOM     25  C   UNL     1      -6.130  -3.897  -4.453  0.00  0.00    -0.028 C 
ATOM     26  C   UNL     1      -5.793  -5.207  -3.739  0.00  0.00    +0.002 C 
ATOM     27  C   UNL     1      -7.006  -6.139  -3.784  0.00  0.00    +0.000 C 
ATOM     28  C   UNL     1      -7.371  -6.431  -5.241  0.00  0.00    +0.000 C 
ATOM     29  C   UNL     1      -7.708  -5.121  -5.955  0.00  0.00    +0.000 C 
ATOM     30  C   UNL     1      -6.495  -4.189  -5.910  0.00  0.00    +0.002 C 
ENDBRANCH  24  25
ENDBRANCH  19  24
ENDBRANCH  18  19
ENDBRANCH   2  18
TORSDOF 9
