REMARK  Name = ZINC40680256
REMARK  8 active torsions:
REMARK  status: ('A' for Active; 'I' for Inactive)
REMARK    1  A    between atoms: C_1  and  C_2
REMARK    2  A    between atoms: C_2  and  C_3
REMARK    3  A    between atoms: C_3  and  C_4
REMARK    4  A    between atoms: C_4  and  C_5
REMARK    5  A    between atoms: C_8  and  N_11
REMARK    6  A    between atoms: C_13  and  N_31
REMARK    7  A    between atoms: C_14  and  N_18
REMARK    8  A    between atoms: N_21  and  C_24
REMARK                            x       y       z     vdW  Elec       q    Type
REMARK                         _______ _______ _______ _____ _____    ______ ____
ROOT
ATOM      1  N   UNL     1       3.393  -3.860  -5.931  0.00  0.00    -0.298 N 
ATOM      2  C   UNL     1       4.779  -3.978  -5.941  0.00  0.00    +0.149 A 
ATOM      3  C   UNL     1       5.452  -4.322  -7.115  0.00  0.00    +0.106 A 
ATOM      4  C   UNL     1       6.843  -4.426  -7.070  0.00  0.00    +0.147 A 
ATOM      5  N   UNL     1       7.470  -4.196  -5.919  0.00  0.00    -0.219 NA
ATOM      6  C   UNL     1       6.796  -3.874  -4.833  0.00  0.00    +0.225 A 
ATOM      7  N   UNL     1       5.484  -3.760  -4.833  0.00  0.00    -0.219 NA
ATOM      8  H   UNL     1       2.880  -4.105  -6.716  0.00  0.00    +0.154 HD
ENDROOT
BRANCH   1  12
ATOM      9  C   UNL     1       1.448  -2.454  -2.527  0.00  0.00    -0.047 A 
ATOM     10  C   UNL     1       2.758  -2.085  -2.775  0.00  0.00    +0.005 A 
ATOM     11  C   UNL     1       3.406  -2.550  -3.903  0.00  0.00    +0.023 A 
ATOM     12  C   UNL     1       2.741  -3.389  -4.788  0.00  0.00    +0.032 A 
ATOM     13  C   UNL     1       1.425  -3.757  -4.536  0.00  0.00    +0.023 A 
ATOM     14  C   UNL     1       0.785  -3.293  -3.404  0.00  0.00    +0.005 A 
BRANCH   9  15
ATOM     15  C   UNL     1       0.744  -1.944  -1.296  0.00  0.00    +0.035 C 
BRANCH  15  16
ATOM     16  C   UNL     1       0.975  -2.917  -0.138  0.00  0.00    +0.004 C 
BRANCH  16  18
ATOM     17  C   UNL     1       0.491  -3.372   2.271  0.00  0.00    +0.004 C 
ATOM     18  C   UNL     1       0.260  -2.400   1.112  0.00  0.00    -0.003 C 
ENDBRANCH  16  18
ENDBRANCH  15  16
ENDBRANCH   9  15
ENDBRANCH   1  12
BRANCH   4  19
ATOM     19  N   UNL     1       7.563  -4.766  -8.210  0.00  0.00    -0.311 N 
ATOM     20  C   UNL     1       7.963  -3.734  -9.176  0.00  0.00    +0.125 C 
ATOM     21  C   UNL     1       9.483  -3.806  -9.369  0.00  0.00    +0.124 C 
ATOM     22  N   UNL     1       9.857  -5.204  -9.629  0.00  0.00    -0.325 N 
ATOM     23  C   UNL     1       9.457  -6.236  -8.662  0.00  0.00    +0.124 C 
ATOM     24  C   UNL     1       7.942  -6.162  -8.467  0.00  0.00    +0.125 C 
BRANCH  22  25
ATOM     25  C   UNL     1      10.581  -5.545 -10.776  0.00  0.00    +0.065 A 
ATOM     26  C   UNL     1      11.969  -5.557 -10.745  0.00  0.00    +0.026 A 
ATOM     27  C   UNL     1      12.681  -5.895 -11.879  0.00  0.00    +0.002 A 
ATOM     28  C   UNL     1      12.014  -6.221 -13.046  0.00  0.00    +0.003 A 
ATOM     29  C   UNL     1      10.632  -6.211 -13.082  0.00  0.00    +0.040 A 
ATOM     30  C   UNL     1       9.912  -5.879 -11.949  0.00  0.00    +0.144 A 
ATOM     31  F   UNL     1       8.561  -5.875 -11.982  0.00  0.00    -0.204 F 
ENDBRANCH  22  25
ENDBRANCH   4  19
BRANCH   3  32
ATOM     32  N   UNL     1       4.749  -4.556  -8.307  0.00  0.00    -0.353 N 
ATOM     33  H   UNL     1       3.791  -4.409  -8.343  0.00  0.00    +0.143 HD
ATOM     34  H   UNL     1       5.222  -4.865  -9.096  0.00  0.00    +0.143 HD
ENDBRANCH   3  32
TORSDOF 7
