REMARK  Name = ZINC08465996
REMARK  14 active torsions:
REMARK  status: ('A' for Active; 'I' for Inactive)
REMARK    1  A    between atoms: C_1  and  C_2
REMARK    2  A    between atoms: C_3  and  C_32
REMARK    3  A    between atoms: C_4  and  C_23
REMARK    4  A    between atoms: C_10  and  C_15
REMARK    5  A    between atoms: C_18  and  O_21
REMARK    6  A    between atoms: O_21  and  C_22
REMARK    7  A    between atoms: C_26  and  O_31
REMARK    8  A    between atoms: C_27  and  O_29
REMARK    9  A    between atoms: O_29  and  C_30
REMARK   10  A    between atoms: C_32  and  O_34
REMARK   11  A    between atoms: O_34  and  C_35
REMARK   12  A    between atoms: C_35  and  C_36
REMARK   13  A    between atoms: C_36  and  C_37
REMARK   14  A    between atoms: C_36  and  C_38
REMARK                            x       y       z     vdW  Elec       q    Type
REMARK                         _______ _______ _______ _____ _____    ______ ____
ROOT
ATOM      1  C   UNL     1       2.226  -1.826   2.494  0.00  0.00    +0.061 C 
ATOM      2  C   UNL     1       2.257  -1.073   1.189  0.00  0.00    +0.031 C 
ATOM      3  C   UNL     1       2.437   0.259   1.190  0.00  0.00    +0.154 C 
ATOM      4  C   UNL     1       2.470   1.042  -0.088  0.00  0.00    +0.073 C 
ATOM      5  C   UNL     1       2.700   0.138  -1.273  0.00  0.00    +0.025 C 
ATOM      6  C   UNL     1       2.510  -1.194  -1.171  0.00  0.00    +0.049 C 
ATOM      7  N   UNL     1       2.101  -1.750   0.011  0.00  0.00    -0.260 NA
ATOM      8  C   UNL     1       2.743  -2.105  -2.352  0.00  0.00    +0.064 C 
ATOM      9  C   UNL     1       2.450  -1.353  -3.649  0.00  0.00    +0.032 C 
ATOM     10  C   UNL     1       3.350  -0.115  -3.711  0.00  0.00    +0.088 C 
ATOM     11  C   UNL     1       3.116   0.722  -2.483  0.00  0.00    +0.162 C 
ATOM     12  O   UNL     1       3.291   1.923  -2.537  0.00  0.00    -0.292 OA
ENDROOT
BRANCH   9  13
ATOM     13  C   UNL     1       2.735  -2.247  -4.829  0.00  0.00    -0.043 A 
ATOM     14  C   UNL     1       4.005  -2.762  -5.013  0.00  0.00    +0.007 A 
ATOM     15  C   UNL     1       4.268  -3.586  -6.090  0.00  0.00    +0.046 A 
ATOM     16  C   UNL     1       3.260  -3.886  -6.994  0.00  0.00    +0.120 A 
ATOM     17  C   UNL     1       1.988  -3.363  -6.811  0.00  0.00    +0.046 A 
ATOM     18  C   UNL     1       1.729  -2.545  -5.728  0.00  0.00    +0.007 A 
BRANCH  16  19
ATOM     19  O   UNL     1       3.517  -4.692  -8.058  0.00  0.00    -0.495 OA
ATOM     20  C   UNL     1       4.849  -5.194  -8.184  0.00  0.00    +0.277 C 
ENDBRANCH  16  19
ENDBRANCH   9  13
BRANCH   4  21
ATOM     21  C   UNL     1       1.152   1.752  -0.256  0.00  0.00    -0.035 A 
ATOM     22  C   UNL     1      -0.021   1.023  -0.325  0.00  0.00    +0.008 A 
ATOM     23  C   UNL     1      -1.232   1.670  -0.485  0.00  0.00    +0.049 A 
ATOM     24  C   UNL     1      -1.274   3.053  -0.565  0.00  0.00    +0.158 A 
ATOM     25  C   UNL     1      -0.093   3.787  -0.494  0.00  0.00    +0.162 A 
ATOM     26  C   UNL     1       1.118   3.132  -0.339  0.00  0.00    +0.053 A 
BRANCH  25  27
ATOM     27  O   UNL     1      -0.129   5.144  -0.577  0.00  0.00    -0.491 OA
ATOM     28  C   UNL     1       1.122   5.831  -0.497  0.00  0.00    +0.277 C 
ENDBRANCH  25  27
BRANCH  24  29
ATOM     29  O   UNL     1      -2.465   3.691  -0.716  0.00  0.00    -0.503 OA
ATOM     30  H   UNL     1      -2.725   3.825  -1.638  0.00  0.00    +0.292 HD
ENDBRANCH  24  29
ENDBRANCH   4  21
BRANCH   3  31
ATOM     31  C   UNL     1       2.604   0.935   2.421  0.00  0.00    +0.317 C 
ATOM     32  O   UNL     1       3.704   1.337   2.751  0.00  0.00    -0.250 OA
BRANCH  31  33
ATOM     33  O   UNL     1       1.543   1.134   3.231  0.00  0.00    -0.464 OA
BRANCH  33  34
ATOM     34  C   UNL     1       1.784   1.824   4.459  0.00  0.00    +0.235 C 
BRANCH  34  35
ATOM     35  C   UNL     1       0.473   1.954   5.237  0.00  0.00    +0.020 C 
ATOM     36  C   UNL     1       0.752   2.580   6.605  0.00  0.00    +0.010 C 
ATOM     37  C   UNL     1      -0.497   2.843   4.457  0.00  0.00    +0.010 C 
ENDBRANCH  34  35
ENDBRANCH  33  34
ENDBRANCH  31  33
ENDBRANCH   3  31
TORSDOF 9
