REMARK  Name = ZINC46767951
REMARK  6 active torsions:
REMARK  status: ('A' for Active; 'I' for Inactive)
REMARK    1  A    between atoms: C_1  and  C_2
REMARK    2  A    between atoms: N_10  and  N_14
REMARK    3  A    between atoms: C_15  and  C_17
REMARK    4  A    between atoms: C_17  and  O_18
REMARK    5  A    between atoms: O_18  and  C_19
REMARK    6  A    between atoms: C_19  and  C_21
REMARK                            x       y       z     vdW  Elec       q    Type
REMARK                         _______ _______ _______ _____ _____    ______ ____
ROOT
ATOM      1  N   UNL     1       3.303  -5.678  -0.062  0.00  0.00    -0.221 N 
ATOM      2  C   UNL     1       3.812  -6.196  -1.197  0.00  0.00    +0.267 C 
ATOM      3  O   UNL     1       3.841  -5.528  -2.209  0.00  0.00    -0.271 OA
ATOM      4  H   UNL     1       3.280  -6.212   0.747  0.00  0.00    +0.174 HD
ENDROOT
BRANCH   1  14
ATOM      5  C   UNL     1      -0.019   1.526   0.010  0.00  0.00    +0.007 C 
ATOM      6  C   UNL     1       0.002  -0.004   0.002  0.00  0.00    -0.014 C 
ATOM      7  C   UNL     1       0.716  -0.497  -1.258  0.00  0.00    +0.006 C 
ATOM      8  C   UNL     1       0.727  -2.028  -1.271  0.00  0.00    +0.035 C 
ATOM      9  C   UNL     1       1.442  -2.543  -0.027  0.00  0.00    +0.114 C 
ATOM     10  C   UNL     1       0.753  -2.041   1.238  0.00  0.00    +0.035 C 
ATOM     11  C   UNL     1       0.742  -0.510   1.242  0.00  0.00    +0.006 C 
ATOM     12  C   UNL     1       1.495  -4.053  -0.035  0.00  0.00    +0.263 C 
ATOM     13  O   UNL     1       0.556  -4.821  -0.030  0.00  0.00    -0.271 OA
ATOM     14  N   UNL     1       2.807  -4.367  -0.051  0.00  0.00    -0.137 N 
ATOM     15  C   UNL     1       3.576  -3.272  -0.053  0.00  0.00    +0.326 C 
ATOM     16  O   UNL     1       4.791  -3.300  -0.065  0.00  0.00    -0.251 OA
ATOM     17  N   UNL     1       2.853  -2.136  -0.039  0.00  0.00    -0.284 N 
ATOM     18  H   UNL     1       3.196  -1.229  -0.038  0.00  0.00    +0.151 HD
ENDBRANCH   1  14
BRANCH   2  19
ATOM     19  C   UNL     1       4.345  -7.605  -1.210  0.00  0.00    +0.329 C 
BRANCH  19  20
ATOM     20  O   UNL     1       4.826  -7.921  -2.518  0.00  0.00    -0.451 OA
BRANCH  20  21
ATOM     21  C   UNL     1       5.340  -9.155  -2.699  0.00  0.00    +0.357 C 
ATOM     22  O   UNL     1       5.378  -9.940  -1.772  0.00  0.00    -0.243 OA
BRANCH  21  23
ATOM     23  C   UNL     1       5.853  -9.549  -4.017  0.00  0.00    +0.140 A 
ATOM     24  C   UNL     1       6.388 -10.762  -4.325  0.00  0.00    +0.057 A 
ATOM     25  C   UNL     1       6.758 -10.734  -5.692  0.00  0.00    +0.014 A 
ATOM     26  C   UNL     1       7.344 -11.675  -6.548  0.00  0.00    +0.011 A 
ATOM     27  C   UNL     1       7.586 -11.349  -7.851  0.00  0.00    +0.001 A 
ATOM     28  C   UNL     1       7.256 -10.091  -8.339  0.00  0.00    +0.002 A 
ATOM     29  C   UNL     1       6.679  -9.149  -7.517  0.00  0.00    +0.026 A 
ATOM     30  C   UNL     1       6.422  -9.458  -6.184  0.00  0.00    +0.048 A 
ATOM     31  N   UNL     1       5.865  -8.749  -5.145  0.00  0.00    -0.348 N 
ATOM     32  H   UNL     1       5.536  -7.838  -5.196  0.00  0.00    +0.166 HD
ATOM     33 BR   UNL     1       6.599 -12.221  -3.141  0.00  0.00    -0.047 Br
ENDBRANCH  21  23
ENDBRANCH  20  21
ENDBRANCH  19  20
ENDBRANCH   2  19
TORSDOF 5
