REMARK  Name = ZINC32093537
REMARK  2 active torsions:
REMARK  status: ('A' for Active; 'I' for Inactive)
REMARK    1  A    between atoms: C_5  and  C_7
REMARK    2  A    between atoms: C_7  and  N_8
REMARK                            x       y       z     vdW  Elec       q    Type
REMARK                         _______ _______ _______ _____ _____    ______ ____
ROOT
ATOM      1  N   UNL     1       1.249  -2.679   1.358  0.00  0.00    -0.246 N 
ATOM      2  C   UNL     1       2.342  -2.895   2.103  0.00  0.00    +0.128 A 
ATOM      3  C   UNL     1       1.927  -3.340   3.332  0.00  0.00    +0.032 A 
ATOM      4  C   UNL     1       0.541  -3.402   3.317  0.00  0.00    +0.141 A 
ATOM      5  N   UNL     1       0.127  -3.003   2.137  0.00  0.00    -0.177 NA
ATOM      6  C   UNL     1       2.897  -3.664   4.433  0.00  0.00    +0.111 C 
ATOM      7  C   UNL     1       4.229  -4.095   3.821  0.00  0.00    +0.122 C 
ATOM      8  C   UNL     1       4.609  -3.208   2.668  0.00  0.00    +0.220 C 
ATOM      9  O   UNL     1       5.777  -2.920   2.510  0.00  0.00    -0.275 OA
ATOM     10  N   UNL     1       3.693  -2.722   1.804  0.00  0.00    -0.270 N 
ATOM     11  C   UNL     1       3.079  -2.501   5.355  0.00  0.00    -0.005 A 
ATOM     12  C   UNL     1       3.546  -1.222   5.135  0.00  0.00    +0.007 A 
ATOM     13  C   UNL     1       3.587  -0.367   6.230  0.00  0.00    +0.002 A 
ATOM     14  C   UNL     1       3.177  -0.782   7.481  0.00  0.00    +0.022 A 
ATOM     15  C   UNL     1       2.706  -2.066   7.711  0.00  0.00    +0.062 A 
ATOM     16  C   UNL     1       2.660  -2.935   6.618  0.00  0.00    +0.056 A 
ATOM     17  N   UNL     1       2.241  -4.253   6.560  0.00  0.00    -0.283 N 
ATOM     18  C   UNL     1       2.345  -4.762   5.314  0.00  0.00    +0.233 C 
ATOM     19  O   UNL     1       2.052  -5.887   4.967  0.00  0.00    -0.274 OA
ATOM     20 CL   UNL     1       2.194  -2.572   9.291  0.00  0.00    -0.082 Cl
ATOM     21  H   UNL     1       3.969  -2.264   0.995  0.00  0.00    +0.156 HD
ATOM     22  H   UNL     1       1.911  -4.752   7.324  0.00  0.00    +0.155 HD
ENDROOT
BRANCH   1  23
ATOM     23  C   UNL     1       1.229  -2.186  -0.022  0.00  0.00    +0.182 C 
BRANCH  23  28
ATOM     24  C   UNL     1       2.297  -4.935  -2.379  0.00  0.00    +0.000 A 
ATOM     25  C   UNL     1       1.080  -5.498  -2.716  0.00  0.00    +0.001 A 
ATOM     26  C   UNL     1      -0.089  -4.990  -2.182  0.00  0.00    +0.020 A 
ATOM     27  C   UNL     1      -0.041  -3.917  -1.310  0.00  0.00    +0.046 A 
ATOM     28  C   UNL     1       1.176  -3.355  -0.972  0.00  0.00    -0.008 A 
ATOM     29  C   UNL     1       2.345  -3.864  -1.507  0.00  0.00    +0.007 A 
ATOM     30 CL   UNL     1      -1.510  -3.278  -0.639  0.00  0.00    -0.083 Cl
ENDBRANCH  23  28
ENDBRANCH   1  23
TORSDOF 2
