REMARK  Name = ZINC08845263
REMARK  10 active torsions:
REMARK  status: ('A' for Active; 'I' for Inactive)
REMARK    1  A    between atoms: C_1  and  C_2
REMARK    2  A    between atoms: C_2  and  C_3
REMARK    3  A    between atoms: C_3  and  O_4
REMARK    4  A    between atoms: O_4  and  C_5
REMARK    5  A    between atoms: C_8  and  C_11
REMARK    6  A    between atoms: C_14  and  C_28
REMARK    7  A    between atoms: N_21  and  C_22
REMARK    8  A    between atoms: C_22  and  C_23
REMARK    9  A    between atoms: C_30  and  C_35
REMARK   10  A    between atoms: C_33  and  O_34
REMARK                            x       y       z     vdW  Elec       q    Type
REMARK                         _______ _______ _______ _____ _____    ______ ____
ROOT
ATOM      1  C   UNL     1       3.245  -4.492  -5.494  0.00  0.00    +0.142 C 
ATOM      2  C   UNL     1       4.695  -4.813  -5.259  0.00  0.00    +0.035 A 
ATOM      3  C   UNL     1       5.973  -4.336  -4.948  0.00  0.00    +0.102 A 
ATOM      4  N   UNL     1       6.788  -5.372  -4.934  0.00  0.00    -0.173 NA
ATOM      5  N   UNL     1       6.152  -6.455  -5.205  0.00  0.00    -0.272 N 
ATOM      6  H   UNL     1       6.550  -7.339  -5.250  0.00  0.00    +0.189 HD
ATOM      7  C   UNL     1       4.832  -6.178  -5.421  0.00  0.00    +0.126 A 
ATOM      8  C   UNL     1       3.519  -6.743  -5.752  0.00  0.00    +0.266 C 
ATOM      9  O   UNL     1       3.302  -7.922  -5.956  0.00  0.00    -0.268 OA
ATOM     10  N   UNL     1       2.588  -5.771  -5.797  0.00  0.00    -0.278 N 
ENDROOT
BRANCH   3  11
ATOM     11  C   UNL     1       6.343  -2.923  -4.682  0.00  0.00    +0.044 A 
ATOM     12  C   UNL     1       5.868  -1.909  -5.509  0.00  0.00    +0.017 A 
ATOM     13  C   UNL     1       6.215  -0.596  -5.258  0.00  0.00    -0.050 A 
ATOM     14  C   UNL     1       7.033  -0.285  -4.187  0.00  0.00    +0.007 A 
ATOM     15  C   UNL     1       7.511  -1.284  -3.361  0.00  0.00    +0.046 A 
ATOM     16  C   UNL     1       7.165  -2.605  -3.598  0.00  0.00    +0.126 A 
ATOM     17  C   UNL     1       5.700   0.501  -6.154  0.00  0.00    +0.044 C 
BRANCH  16  18
ATOM     18  O   UNL     1       7.629  -3.588  -2.782  0.00  0.00    -0.506 OA
ATOM     19  H   UNL     1       8.502  -3.924  -3.028  0.00  0.00    +0.292 HD
ENDBRANCH  16  18
ENDBRANCH   3  11
BRANCH   1  23
ATOM     20  C   UNL     1       1.534  -2.758  -1.983  0.00  0.00    +0.121 A 
ATOM     21  C   UNL     1       1.755  -1.976  -3.107  0.00  0.00    +0.046 A 
ATOM     22  C   UNL     1       2.309  -2.539  -4.241  0.00  0.00    +0.009 A 
ATOM     23  C   UNL     1       2.642  -3.881  -4.256  0.00  0.00    -0.022 A 
ATOM     24  C   UNL     1       2.421  -4.662  -3.137  0.00  0.00    +0.009 A 
ATOM     25  C   UNL     1       1.874  -4.103  -1.999  0.00  0.00    +0.046 A 
BRANCH  20  26
ATOM     26  O   UNL     1       0.990  -2.206  -0.866  0.00  0.00    -0.492 OA
BRANCH  26  27
ATOM     27  C   UNL     1       0.665  -0.816  -0.922  0.00  0.00    +0.229 C 
BRANCH  27  29
ATOM     28  C   UNL     1      -0.280   1.111   0.357  0.00  0.00    +0.007 C 
ATOM     29  C   UNL     1       0.068  -0.377   0.417  0.00  0.00    +0.038 C 
ENDBRANCH  27  29
ENDBRANCH  26  27
ENDBRANCH  20  26
ENDBRANCH   1  23
BRANCH  10  30
ATOM     30  C   UNL     1       1.166  -5.955  -6.097  0.00  0.00    +0.183 C 
BRANCH  30  31
ATOM     31  C   UNL     1       0.945  -5.827  -7.582  0.00  0.00    +0.122 A 
ATOM     32  C   UNL     1       0.988  -6.834  -8.473  0.00  0.00    +0.046 A 
ATOM     33  C   UNL     1       0.725  -6.269  -9.742  0.00  0.00    +0.041 A 
ATOM     34  C   UNL     1       0.537  -4.951  -9.550  0.00  0.00    +0.195 A 
ATOM     35  O   UNL     1       0.665  -4.690  -8.239  0.00  0.00    -0.466 OA
ENDBRANCH  30  31
ENDBRANCH  10  30
TORSDOF 8
