REMARK  Name = ZINC00929564
REMARK  7 active torsions:
REMARK  status: ('A' for Active; 'I' for Inactive)
REMARK    1  A    between atoms: C_1  and  C_2
REMARK    2  A    between atoms: C_14  and  S_18
REMARK    3  A    between atoms: S_18  and  C_19
REMARK    4  A    between atoms: C_19  and  C_20
REMARK    5  A    between atoms: N_22  and  C_23
REMARK    6  A    between atoms: C_27  and  C_29
REMARK    7  A    between atoms: C_29  and  C_31
REMARK                            x       y       z     vdW  Elec       q    Type
REMARK                         _______ _______ _______ _____ _____    ______ ____
ROOT
ATOM      1  C   UNL     1       4.223  -1.994 -10.102  0.00  0.00    +0.008 C 
ATOM      2  C   UNL     1       3.169  -1.618  -9.059  0.00  0.00    -0.009 C 
ATOM      3  C   UNL     1       3.859  -1.074  -7.804  0.00  0.00    +0.008 C 
ATOM      4  C   UNL     1       2.843  -0.930  -6.671  0.00  0.00    +0.037 C 
ATOM      5  C   UNL     1       1.658  -0.108  -7.174  0.00  0.00    -0.024 A 
ATOM      6  C   UNL     1       1.441   0.040  -8.501  0.00  0.00    -0.004 A 
ATOM      7  S   UNL     1      -0.012   1.052  -8.605  0.00  0.00    -0.073 S 
ATOM      8  C   UNL     1      -0.296   1.254  -6.863  0.00  0.00    +0.114 A 
ATOM      9  C   UNL     1       0.753   0.524  -6.284  0.00  0.00    +0.056 A 
ATOM     10  C   UNL     1       0.763   0.520  -4.805  0.00  0.00    +0.173 A 
ATOM     11  N   UNL     1       1.541  -0.021  -3.900  0.00  0.00    -0.128 NA
ATOM     12  N   UNL     1       1.113   0.282  -2.724  0.00  0.00    -0.122 NA
ATOM     13  C   UNL     1       0.038   1.032  -2.809  0.00  0.00    +0.198 A 
ATOM     14  N   UNL     1      -0.229   1.207  -4.139  0.00  0.00    -0.260 N 
ATOM     15  C   UNL     1      -1.190   1.883  -4.832  0.00  0.00    +0.208 A 
ATOM     16  N   UNL     1      -1.208   1.891  -6.135  0.00  0.00    -0.230 NA
ATOM     17  C   UNL     1       2.249  -0.527  -9.626  0.00  0.00    +0.046 C 
ENDROOT
BRANCH  13  18
ATOM     18  S   UNL     1      -0.890   1.685  -1.462  0.00  0.00    -0.076 S 
BRANCH  18  19
ATOM     19  C   UNL     1      -0.016   1.080   0.008  0.00  0.00    +0.173 C 
BRANCH  19  20
ATOM     20  C   UNL     1      -0.717   1.573   1.248  0.00  0.00    +0.227 C 
ATOM     21  O   UNL     1      -1.708   2.265   1.149  0.00  0.00    -0.275 OA
ATOM     22  N   UNL     1      -0.242   1.246   2.466  0.00  0.00    -0.285 N 
ATOM     23  H   UNL     1       0.511   0.639   2.546  0.00  0.00    +0.155 HD
BRANCH  22  24
ATOM     24  C   UNL     1      -0.833   1.782   3.615  0.00  0.00    +0.034 A 
ATOM     25  C   UNL     1      -0.050   2.086   4.723  0.00  0.00    +0.023 A 
ATOM     26  C   UNL     1      -0.628   2.620   5.860  0.00  0.00    +0.002 A 
ATOM     27  C   UNL     1      -1.988   2.846   5.908  0.00  0.00    +0.011 A 
ATOM     28  C   UNL     1      -2.786   2.540   4.801  0.00  0.00    +0.019 A 
ATOM     29  C   UNL     1      -2.200   2.005   3.651  0.00  0.00    +0.034 A 
BRANCH  28  30
ATOM     30  C   UNL     1      -4.238   2.779   4.848  0.00  0.00    +0.160 C 
ATOM     31  O   UNL     1      -4.928   2.512   3.888  0.00  0.00    -0.292 OA
ATOM     32  C   UNL     1      -4.866   3.356   6.091  0.00  0.00    +0.091 C 
ENDBRANCH  28  30
ENDBRANCH  22  24
ENDBRANCH  19  20
ENDBRANCH  18  19
ENDBRANCH  13  18
TORSDOF 5
