REMARK  Name = ZINC36595461
REMARK  17 active torsions:
REMARK  status: ('A' for Active; 'I' for Inactive)
REMARK    1  A    between atoms: C_1  and  C_2
REMARK    2  A    between atoms: C_5  and  C_8
REMARK    3  A    between atoms: C_8  and  C_10
REMARK    4  A    between atoms: C_8  and  N_21
REMARK    5  A    between atoms: N_12  and  C_13
REMARK    6  A    between atoms: C_13  and  C_14
REMARK    7  A    between atoms: C_13  and  C_15
REMARK    8  A    between atoms: C_13  and  C_16
REMARK    9  A    between atoms: C_16  and  C_17
REMARK   10  A    between atoms: C_17  and  C_18
REMARK   11  A    between atoms: C_17  and  C_19
REMARK   12  A    between atoms: C_17  and  C_20
REMARK   13  A    between atoms: N_21  and  C_22
REMARK   14  A    between atoms: C_22  and  C_23
REMARK   15  A    between atoms: C_26  and  C_28
REMARK   16  A    between atoms: C_29  and  C_31
REMARK   17  A    between atoms: C_36  and  O_37
REMARK                            x       y       z     vdW  Elec       q    Type
REMARK                         _______ _______ _______ _____ _____    ______ ____
ROOT
ATOM      1  C   UNL     1       1.387  -1.875   0.964  0.00  0.00    +0.193 C 
ENDROOT
BRANCH   1   6
ATOM      2  C   UNL     1      -2.261   2.488  -0.057  0.00  0.00    +0.044 C 
ATOM      3  C   UNL     1      -1.310   1.351   0.209  0.00  0.00    -0.050 A 
ATOM      4  C   UNL     1      -0.443   0.928  -0.781  0.00  0.00    +0.004 A 
ATOM      5  C   UNL     1       0.430  -0.115  -0.537  0.00  0.00    +0.006 A 
ATOM      6  C   UNL     1       0.436  -0.736   0.698  0.00  0.00    -0.018 A 
ATOM      7  C   UNL     1      -0.430  -0.314   1.688  0.00  0.00    +0.006 A 
ATOM      8  C   UNL     1      -1.300   0.733   1.446  0.00  0.00    +0.004 A 
ENDBRANCH   1   6
BRANCH   1   9
ATOM      9  C   UNL     1       2.773  -1.329   1.194  0.00  0.00    +0.239 C 
ATOM     10  O   UNL     1       3.408  -1.676   2.166  0.00  0.00    -0.273 OA
ATOM     11  N   UNL     1       3.306  -0.454   0.318  0.00  0.00    -0.308 N 
ATOM     12  H   UNL     1       2.798  -0.176  -0.460  0.00  0.00    +0.149 HD
BRANCH  11  13
ATOM     13  C   UNL     1       4.653   0.077   0.541  0.00  0.00    +0.030 C 
ATOM     14  C   UNL     1       4.634   1.029   1.739  0.00  0.00    +0.031 C 
ATOM     15  C   UNL     1       5.617  -1.077   0.823  0.00  0.00    +0.031 C 
BRANCH  13  16
ATOM     16  C   UNL     1       5.116   0.835  -0.705  0.00  0.00    +0.031 C 
BRANCH  16  17
ATOM     17  C   UNL     1       4.745   0.035  -1.955  0.00  0.00    -0.036 C 
ATOM     18  C   UNL     1       3.223  -0.092  -2.047  0.00  0.00    +0.010 C 
ATOM     19  C   UNL     1       5.272   0.756  -3.197  0.00  0.00    +0.010 C 
ATOM     20  C   UNL     1       5.370  -1.359  -1.872  0.00  0.00    +0.010 C 
ENDBRANCH  16  17
ENDBRANCH  13  16
ENDBRANCH  11  13
ENDBRANCH   1   9
BRANCH   1  21
ATOM     21  N   UNL     1       0.949  -2.610   2.153  0.00  0.00    -0.275 N 
ATOM     22  C   UNL     1      -0.267  -3.190   2.176  0.00  0.00    +0.251 C 
ATOM     23  O   UNL     1      -0.558  -3.957   3.073  0.00  0.00    -0.270 OA
BRANCH  22  24
ATOM     24  C   UNL     1      -1.246  -2.895   1.112  0.00  0.00    +0.078 A 
ATOM     25  C   UNL     1      -0.815  -2.401  -0.122  0.00  0.00    +0.017 A 
ATOM     26  C   UNL     1      -1.734  -2.128  -1.112  0.00  0.00    +0.001 A 
ATOM     27  C   UNL     1      -3.084  -2.340  -0.889  0.00  0.00    +0.004 A 
ATOM     28  C   UNL     1      -3.524  -2.827   0.325  0.00  0.00    +0.046 A 
ATOM     29  C   UNL     1      -2.613  -3.113   1.331  0.00  0.00    +0.129 A 
BRANCH  29  30
ATOM     30  O   UNL     1      -3.043  -3.597   2.523  0.00  0.00    -0.506 OA
ATOM     31  H   UNL     1      -3.250  -2.912   3.173  0.00  0.00    +0.292 HD
ENDBRANCH  29  30
ENDBRANCH  22  24
BRANCH  21  32
ATOM     32  C   UNL     1       1.832  -2.714   3.317  0.00  0.00    +0.183 C 
BRANCH  32  33
ATOM     33  C   UNL     1       1.968  -1.361   3.967  0.00  0.00    +0.122 A 
ATOM     34  C   UNL     1       1.181  -0.876   4.944  0.00  0.00    +0.046 A 
ATOM     35  C   UNL     1       1.662   0.417   5.253  0.00  0.00    +0.045 A 
ATOM     36  C   UNL     1       2.714   0.644   4.447  0.00  0.00    +0.102 A 
ATOM     37  O   UNL     1       2.898  -0.438   3.674  0.00  0.00    -0.463 OA
ATOM     38  C   UNL     1       3.548   1.899   4.419  0.00  0.00    +0.086 C 
ENDBRANCH  32  33
ENDBRANCH  21  32
ENDBRANCH   1  21
TORSDOF 10
