REMARK  Name = ZINC17306351
REMARK  12 active torsions:
REMARK  status: ('A' for Active; 'I' for Inactive)
REMARK    1  A    between atoms: C_1  and  C_2
REMARK    2  A    between atoms: C_2  and  C_3
REMARK    3  A    between atoms: C_2  and  N_4
REMARK    4  A    between atoms: C_5  and  C_7
REMARK    5  A    between atoms: C_7  and  N_67
REMARK    6  A    between atoms: C_8  and  N_67
REMARK    7  A    between atoms: C_9  and  C_10
REMARK    8  A    between atoms: C_9  and  N_67
REMARK    9  A    between atoms: C_13  and  C_28
REMARK   10  A    between atoms: C_16  and  C_18
REMARK   11  A    between atoms: C_31  and  O_34
REMARK   12  A    between atoms: O_34  and  C_35
REMARK                            x       y       z     vdW  Elec       q    Type
REMARK                         _______ _______ _______ _____ _____    ______ ____
ROOT
ATOM      1  C   UNL     1      -3.460   2.913  -2.087  0.00  0.00    +0.219 C 
ATOM      2  O   UNL     1      -2.488   3.293  -2.706  0.00  0.00    -0.276 OA
ATOM      3  N   UNL     1      -3.553   3.156  -0.764  0.00  0.00    -0.187 N 
ATOM      4  C   UNL     1      -2.553   3.867   0.048  0.00  0.00    +0.137 C 
ATOM      5  C   UNL     1      -3.161   3.858   1.465  0.00  0.00    +0.087 C 
ATOM      6  C   UNL     1      -4.473   3.120   1.290  0.00  0.00    +0.069 C 
ATOM      7  N   UNL     1      -4.612   2.774   0.057  0.00  0.00    -0.181 NA
ENDROOT
BRANCH   6   8
ATOM      8  C   UNL     1      -5.441   2.841   2.366  0.00  0.00    -0.002 A 
ATOM      9  C   UNL     1      -5.171   3.274   3.679  0.00  0.00    +0.010 A 
ATOM     10  C   UNL     1      -6.047   3.030   4.686  0.00  0.00    +0.009 A 
ATOM     11  C   UNL     1      -7.244   2.336   4.425  0.00  0.00    -0.018 A 
ATOM     12  C   UNL     1      -8.166   2.072   5.452  0.00  0.00    +0.008 A 
ATOM     13  C   UNL     1      -9.316   1.400   5.170  0.00  0.00    +0.001 A 
ATOM     14  C   UNL     1      -9.595   0.966   3.876  0.00  0.00    +0.001 A 
ATOM     15  C   UNL     1      -8.726   1.203   2.856  0.00  0.00    +0.008 A 
ATOM     16  C   UNL     1      -7.528   1.895   3.108  0.00  0.00    -0.017 A 
ATOM     17  C   UNL     1      -6.614   2.161   2.078  0.00  0.00    +0.018 A 
ENDBRANCH   6   8
BRANCH   4  18
ATOM     18  C   UNL     1      -1.237   3.133   0.031  0.00  0.00    -0.024 A 
ATOM     19  C   UNL     1      -1.218   1.751   0.017  0.00  0.00    +0.009 A 
ATOM     20  C   UNL     1      -0.013   1.076   0.008  0.00  0.00    +0.046 A 
ATOM     21  C   UNL     1       1.179   1.786   0.000  0.00  0.00    +0.120 A 
ATOM     22  C   UNL     1       1.157   3.174   0.008  0.00  0.00    +0.046 A 
ATOM     23  C   UNL     1      -0.051   3.844   0.023  0.00  0.00    +0.009 A 
BRANCH  21  24
ATOM     24  O   UNL     1       2.366   1.125  -0.015  0.00  0.00    -0.495 OA
ATOM     25  C   UNL     1       3.553   1.921  -0.022  0.00  0.00    +0.277 C 
ENDBRANCH  21  24
ENDBRANCH   4  18
BRANCH   1  26
ATOM     26  C   UNL     1      -4.563   2.170  -2.796  0.00  0.00    +0.021 C 
BRANCH  26  28
ATOM     27  C   UNL     1      -3.049   1.174  -4.402  0.00  0.00    -0.095 C 
ATOM     28  N   UNL     1      -4.218   2.061  -4.229  0.00  0.00    +0.389 N 
ATOM     29  H   UNL     1      -3.985   2.994  -4.588  0.00  0.00    -0.081 HD
BRANCH  28  30
ATOM     30  C   UNL     1      -5.372   1.531  -4.987  0.00  0.00    +0.019 C 
BRANCH  30  32
ATOM     31  N   UNL     1      -5.990   1.230  -7.363  0.00  0.00    -0.315 N 
ATOM     32  C   UNL     1      -5.075   1.636  -6.460  0.00  0.00    +0.197 C 
ATOM     33  O   UNL     1      -4.013   2.087  -6.835  0.00  0.00    -0.278 OA
ATOM     34  H   UNL     1      -6.839   0.869  -7.063  0.00  0.00    +0.149 HD
BRANCH  31  36
ATOM     35  C   UNL     1      -4.921   0.097  -9.248  0.00  0.00    +0.027 C 
ATOM     36  C   UNL     1      -5.702   1.332  -8.795  0.00  0.00    +0.067 C 
ATOM     37  C   UNL     1      -7.016   1.419  -9.575  0.00  0.00    +0.027 C 
ENDBRANCH  31  36
ENDBRANCH  30  32
ENDBRANCH  28  30
ENDBRANCH  26  28
ENDBRANCH   1  26
TORSDOF 8
