REMARK  Name = ZINC48818783
REMARK  8 active torsions:
REMARK  status: ('A' for Active; 'I' for Inactive)
REMARK    1  A    between atoms: C_3  and  C_8
REMARK    2  A    between atoms: C_8  and  N_9
REMARK    3  A    between atoms: N_9  and  C_10
REMARK    4  A    between atoms: C_10  and  C_11
REMARK    5  A    between atoms: C_11  and  C_13
REMARK    6  A    between atoms: C_11  and  O_22
REMARK    7  A    between atoms: C_13  and  O_14
REMARK    8  A    between atoms: O_14  and  C_15
REMARK                            x       y       z     vdW  Elec       q    Type
REMARK                         _______ _______ _______ _____ _____    ______ ____
ROOT
ATOM      1  C   UNL     1       5.368   3.179   1.351  0.00  0.00    -0.047 C 
ENDROOT
BRANCH   1   2
ATOM      2  N   UNL     1       4.106   2.427   1.360  0.00  0.00    +0.383 N 
ATOM      3  H   UNL     1       3.400   2.959   1.845  0.00  0.00    -0.085 HD
ATOM      4  H   UNL     1       4.244   1.544   1.829  0.00  0.00    -0.085 HD
BRANCH   2   5
ATOM      5  C   UNL     1       3.672   2.183  -0.022  0.00  0.00    -0.047 C 
BRANCH   5   8
ATOM      6  C   UNL     1      -0.017   1.378   0.010  0.00  0.00    +0.001 A 
ATOM      7  C   UNL     1       1.171   2.086   0.002  0.00  0.00    +0.002 A 
ATOM      8  C   UNL     1       2.378   1.411  -0.013  0.00  0.00    -0.063 A 
ATOM      9  C   UNL     1       2.397   0.029  -0.022  0.00  0.00    +0.017 A 
ATOM     10  C   UNL     1       1.210  -0.679  -0.014  0.00  0.00    +0.018 A 
ATOM     11  C   UNL     1       0.002  -0.004   0.002  0.00  0.00    +0.015 A 
ATOM     12 BR   UNL     1       1.236  -2.570  -0.025  0.00  0.00    -0.050 Br
ENDBRANCH   5   8
ENDBRANCH   2   5
ENDBRANCH   1   2
BRANCH   1  13
ATOM     13  C   UNL     1       5.820   3.433   2.791  0.00  0.00    +0.135 C 
BRANCH  13  14
ATOM     14  O   UNL     1       6.127   2.187   3.420  0.00  0.00    -0.390 OA
ATOM     15  H   UNL     1       6.832   1.689   2.983  0.00  0.00    +0.210 HD
ENDBRANCH  13  14
BRANCH  13  16
ATOM     16  C   UNL     1       7.065   4.322   2.785  0.00  0.00    +0.258 C 
BRANCH  16  17
ATOM     17  O   UNL     1       7.419   4.654   4.129  0.00  0.00    -0.489 OA
BRANCH  17  18
ATOM     18  C   UNL     1       8.511   5.445   4.302  0.00  0.00    +0.121 A 
ATOM     19  C   UNL     1       9.224   5.896   3.200  0.00  0.00    +0.047 A 
ATOM     20  C   UNL     1      10.334   6.699   3.378  0.00  0.00    +0.019 A 
ATOM     21  C   UNL     1      10.735   7.053   4.654  0.00  0.00    +0.018 A 
ATOM     22  C   UNL     1      10.026   6.604   5.753  0.00  0.00    +0.019 A 
ATOM     23  C   UNL     1       8.912   5.806   5.580  0.00  0.00    +0.047 A 
ATOM     24 BR   UNL     1      12.254   8.153   4.894  0.00  0.00    -0.050 Br
ENDBRANCH  17  18
ENDBRANCH  16  17
ENDBRANCH  13  16
ENDBRANCH   1  13
TORSDOF 8
