REMARK  Name = ZINC13065174
REMARK  15 active torsions:
REMARK  status: ('A' for Active; 'I' for Inactive)
REMARK    1  A    between atoms: C_1  and  C_2
REMARK    2  A    between atoms: C_2  and  C_3
REMARK    3  A    between atoms: C_3  and  C_5
REMARK    4  A    between atoms: C_3  and  N_71
REMARK    5  A    between atoms: N_9  and  C_10
REMARK    6  A    between atoms: C_10  and  C_11
REMARK    7  A    between atoms: C_10  and  C_12
REMARK    8  A    between atoms: C_10  and  C_13
REMARK    9  A    between atoms: C_13  and  C_14
REMARK   10  A    between atoms: C_15  and  C_16
REMARK   11  A    between atoms: C_15  and  N_71
REMARK   12  A    between atoms: C_23  and  C_24
REMARK   13  A    between atoms: C_23  and  N_71
REMARK   14  A    between atoms: C_27  and  C_37
REMARK   15  A    between atoms: C_30  and  C_36
REMARK                            x       y       z     vdW  Elec       q    Type
REMARK                         _______ _______ _______ _____ _____    ______ ____
ROOT
ATOM      1  N   UNL     1       0.420  -3.189  -1.343  0.00  0.00    +0.392 N 
ATOM      2  H   UNL     1       1.022  -2.777  -2.065  0.00  0.00    -0.080 HD
ENDROOT
BRANCH   1   3
ATOM      3  C   UNL     1       0.664  -4.646  -1.288  0.00  0.00    +0.003 C 
BRANCH   3   4
ATOM      4  C   UNL     1       2.134  -4.896  -1.511  0.00  0.00    +0.139 A 
ATOM      5  N   UNL     1       3.130  -4.222  -0.990  0.00  0.00    -0.115 NA
ATOM      6  N   UNL     1       4.228  -4.740  -1.420  0.00  0.00    -0.023 NA
ATOM      7  N   UNL     1       3.959  -5.727  -2.201  0.00  0.00    -0.043 NA
ATOM      8  N   UNL     1       2.678  -5.859  -2.279  0.00  0.00    -0.225 N 
BRANCH   8   9
ATOM      9  C   UNL     1       1.951  -6.864  -3.059  0.00  0.00    +0.061 C 
ATOM     10  C   UNL     1       0.970  -7.604  -2.148  0.00  0.00    +0.036 C 
ATOM     11  C   UNL     1       1.180  -6.175  -4.187  0.00  0.00    +0.036 C 
BRANCH   9  12
ATOM     12  C   UNL     1       2.945  -7.862  -3.656  0.00  0.00    +0.026 C 
ATOM     13  C   UNL     1       2.187  -8.912  -4.470  0.00  0.00    +0.006 C 
ENDBRANCH   9  12
ENDBRANCH   8   9
ENDBRANCH   3   4
BRANCH   3  15
ATOM     14  C   UNL     1      -1.257  -5.037   0.261  0.00  0.00    +0.002 C 
ATOM     15  C   UNL     1       0.252  -5.206   0.075  0.00  0.00    -0.011 C 
ENDBRANCH   3  15
ENDBRANCH   1   3
BRANCH   1  16
ATOM     16  C   UNL     1       0.743  -2.573  -0.039  0.00  0.00    -0.042 C 
BRANCH  16  17
ATOM     17  C   UNL     1       0.856  -1.082  -0.223  0.00  0.00    -0.064 A 
ATOM     18  C   UNL     1      -0.228  -0.268   0.050  0.00  0.00    +0.004 A 
ATOM     19  C   UNL     1      -0.126   1.100  -0.118  0.00  0.00    +0.038 A 
ATOM     20  C   UNL     1       1.063   1.655  -0.561  0.00  0.00    +0.123 A 
ATOM     21  C   UNL     1       2.148   0.839  -0.834  0.00  0.00    +0.038 A 
ATOM     22  C   UNL     1       2.043  -0.528  -0.665  0.00  0.00    +0.004 A 
ATOM     23  F   UNL     1       1.164   2.992  -0.726  0.00  0.00    -0.205 F 
ENDBRANCH  16  17
ENDBRANCH   1  16
BRANCH   1  24
ATOM     24  C   UNL     1      -0.993  -2.927  -1.689  0.00  0.00    -0.036 C 
BRANCH  24  25
ATOM     25  C   UNL     1      -1.194  -3.213  -3.155  0.00  0.00    +0.001 A 
ATOM     26  C   UNL     1      -1.714  -4.402  -3.546  0.00  0.00    +0.017 A 
ATOM     27  C   UNL     1      -1.900  -4.647  -4.977  0.00  0.00    +0.002 A 
ATOM     28  C   UNL     1      -2.437  -5.853  -5.441  0.00  0.00    -0.041 A 
ATOM     29  C   UNL     1      -2.595  -6.052  -6.783  0.00  0.00    +0.004 A 
ATOM     30  C   UNL     1      -2.226  -5.069  -7.692  0.00  0.00    +0.005 A 
ATOM     31  C   UNL     1      -1.694  -3.874  -7.257  0.00  0.00    -0.026 A 
ATOM     32  C   UNL     1      -1.525  -3.648  -5.895  0.00  0.00    +0.052 A 
ATOM     33  N   UNL     1      -0.997  -2.462  -5.433  0.00  0.00    -0.322 N 
ATOM     34  H   UNL     1      -0.739  -1.774  -6.066  0.00  0.00    +0.169 HD
ATOM     35  C   UNL     1      -0.834  -2.244  -4.116  0.00  0.00    +0.251 A 
ATOM     36  O   UNL     1      -0.363  -1.183  -3.743  0.00  0.00    -0.268 OA
ATOM     37  C   UNL     1      -1.299  -2.815  -8.254  0.00  0.00    +0.046 C 
ATOM     38  C   UNL     1      -2.841  -6.927  -4.464  0.00  0.00    +0.044 C 
ENDBRANCH  24  25
ENDBRANCH   1  24
TORSDOF 9
