REMARK  Name = ZINC33751511
REMARK  7 active torsions:
REMARK  status: ('A' for Active; 'I' for Inactive)
REMARK    1  A    between atoms: C_1  and  O_2
REMARK    2  A    between atoms: O_2  and  C_3
REMARK    3  A    between atoms: C_8  and  C_9
REMARK    4  A    between atoms: C_9  and  C_10
REMARK    5  A    between atoms: C_10  and  N_11
REMARK    6  A    between atoms: C_12  and  C_14
REMARK    7  A    between atoms: C_25  and  C_27
REMARK                            x       y       z     vdW  Elec       q    Type
REMARK                         _______ _______ _______ _____ _____    ______ ____
ROOT
ATOM      1  C   UNL     1      -0.774   3.581  -0.792  0.00  0.00    +0.028 C 
ATOM      2  C   UNL     1      -1.379   4.735  -1.647  0.00  0.00    +0.061 C 
ATOM      3  S   UNL     1      -0.307   6.125  -1.074  0.00  0.00    -0.174 S 
ATOM      4  C   UNL     1       1.087   5.127  -0.416  0.00  0.00    -0.016 C 
ATOM      5  N   UNL     1       0.693   3.742  -0.748  0.00  0.00    +0.397 N 
ATOM      6  C   UNL     1       2.377   5.511  -1.124  0.00  0.00    +0.017 C 
ATOM      7  C   UNL     1       3.527   4.648  -0.592  0.00  0.00    +0.107 C 
ATOM      8  N   UNL     1       3.558   4.755   0.874  0.00  0.00    -0.297 N 
ATOM      9  C   UNL     1       2.337   4.453   1.633  0.00  0.00    +0.107 C 
ATOM     10  C   UNL     1       1.193   5.317   1.089  0.00  0.00    +0.017 C 
ATOM     11  C   UNL     1       4.687   5.124   1.510  0.00  0.00    +0.253 C 
ATOM     12  O   UNL     1       4.671   5.324   2.711  0.00  0.00    -0.269 OA
ATOM     13  H   UNL     1       1.113   3.072   0.017  0.00  0.00    -0.083 HD
ATOM     14  H   UNL     1       1.119   3.489  -1.730  0.00  0.00    -0.083 HD
ENDROOT
BRANCH  11  15
ATOM     15  C   UNL     1       5.934   5.285   0.757  0.00  0.00    +0.074 A 
ATOM     16  C   UNL     1       7.054   6.037   1.072  0.00  0.00    +0.021 A 
ATOM     17  C   UNL     1       8.098   6.008   0.181  0.00  0.00    +0.008 A 
ATOM     18  C   UNL     1       7.983   5.267  -0.952  0.00  0.00    +0.046 A 
ATOM     19  S   UNL     1       6.402   4.570  -0.810  0.00  0.00    -0.092 S 
ENDBRANCH  11  15
BRANCH   1  21
ATOM     20  N   UNL     1      -2.410   1.892  -1.559  0.00  0.00    -0.316 N 
ATOM     21  C   UNL     1      -1.120   2.254  -1.416  0.00  0.00    +0.200 C 
ATOM     22  O   UNL     1      -0.237   1.511  -1.789  0.00  0.00    -0.278 OA
ATOM     23  H   UNL     1      -3.211   2.566  -1.220  0.00  0.00    +0.149 HD
BRANCH  20  24
ATOM     24  C   UNL     1      -2.747   0.602  -2.166  0.00  0.00    +0.109 C 
BRANCH  24  25
ATOM     25  C   UNL     1      -4.267   0.439  -2.209  0.00  0.00    +0.057 C 
BRANCH  25  31
ATOM     26  C   UNL     1      -4.641  -2.035  -2.054  0.00  0.00    +0.123 A 
ATOM     27  C   UNL     1      -4.964  -3.256  -2.630  0.00  0.00    +0.046 A 
ATOM     28  C   UNL     1      -5.248  -3.326  -3.980  0.00  0.00    +0.004 A 
ATOM     29  C   UNL     1      -5.214  -2.182  -4.756  0.00  0.00    +0.000 A 
ATOM     30  C   UNL     1      -4.897  -0.965  -4.183  0.00  0.00    +0.007 A 
ATOM     31  C   UNL     1      -4.613  -0.888  -2.833  0.00  0.00    -0.004 A 
BRANCH  26  33
ATOM     32  C   UNL     1      -4.404  -3.185   0.014  0.00  0.00    +0.277 C 
ATOM     33  O   UNL     1      -4.356  -1.964  -0.727  0.00  0.00    -0.495 OA
ENDBRANCH  26  33
ENDBRANCH  25  31
ENDBRANCH  24  25
ENDBRANCH  20  24
ENDBRANCH   1  21
TORSDOF 6
