REMARK  Name = ZINC60280754
REMARK  7 active torsions:
REMARK  status: ('A' for Active; 'I' for Inactive)
REMARK    1  A    between atoms: C_1  and  C_2
REMARK    2  A    between atoms: C_2  and  N_3
REMARK    3  A    between atoms: C_5  and  C_12
REMARK    4  A    between atoms: C_7  and  C_8
REMARK    5  A    between atoms: C_8  and  C_9
REMARK    6  A    between atoms: C_8  and  C_10
REMARK    7  A    between atoms: C_8  and  C_11
REMARK                            x       y       z     vdW  Elec       q    Type
REMARK                         _______ _______ _______ _____ _____    ______ ____
ROOT
ATOM      1  N   UNL     1       0.666  -0.449  -1.446  0.00  0.00    -0.278 N 
ATOM      2  C   UNL     1       0.064  -0.602  -2.676  0.00  0.00    +0.101 C 
ATOM      3  C   UNL     1       1.172  -1.107  -3.581  0.00  0.00    +0.175 C 
ATOM      4  N   UNL     1       2.344  -1.183  -2.695  0.00  0.00    -0.362 N 
ATOM      5  C   UNL     1       1.985  -0.795  -1.522  0.00  0.00    +0.082 C 
ATOM      6  N   UNL     1      -1.168  -0.369  -2.989  0.00  0.00    -0.388 N 
ATOM      7  H   UNL     1      -1.786  -0.045  -2.315  0.00  0.00    +0.157 HD
ATOM      8  H   UNL     1      -1.474  -0.517  -3.897  0.00  0.00    +0.157 HD
ATOM      9  H   UNL     1       3.233  -1.471  -2.951  0.00  0.00    +0.162 HD
ENDROOT
BRANCH   3  10
ATOM     10  C   UNL     1       1.421  -0.134  -4.705  0.00  0.00    +0.017 A 
ATOM     11  C   UNL     1       2.485   0.746  -4.635  0.00  0.00    +0.010 A 
ATOM     12  C   UNL     1       2.715   1.637  -5.665  0.00  0.00    +0.016 A 
ATOM     13  C   UNL     1       1.880   1.651  -6.768  0.00  0.00    +0.021 A 
ATOM     14  C   UNL     1       0.815   0.772  -6.840  0.00  0.00    +0.054 A 
ATOM     15  C   UNL     1       0.588  -0.126  -5.811  0.00  0.00    +0.130 A 
ATOM     16  F   UNL     1      -0.449  -0.989  -5.882  0.00  0.00    -0.205 F 
ATOM     17 BR   UNL     1       2.194   2.872  -8.177  0.00  0.00    -0.050 Br
ENDBRANCH   3  10
BRANCH   5  18
ATOM     18  C   UNL     1       2.927  -0.733  -0.347  0.00  0.00    +0.016 C 
ATOM     19  C   UNL     1       2.513  -1.776   0.693  0.00  0.00    +0.018 C 
ATOM     20  C   UNL     1       4.353  -1.022  -0.820  0.00  0.00    +0.018 C 
ATOM     21  C   UNL     1       2.870   0.662   0.280  0.00  0.00    +0.018 C 
ENDBRANCH   5  18
BRANCH   1  23
ATOM     22  C   UNL     1      -0.040   1.552  -0.229  0.00  0.00    +0.025 C 
ATOM     23  C   UNL     1      -0.010   0.023  -0.234  0.00  0.00    +0.110 C 
ENDBRANCH   1  23
TORSDOF 3
