REMARK  Name = ZINC04489093
REMARK  7 active torsions:
REMARK  status: ('A' for Active; 'I' for Inactive)
REMARK    1  A    between atoms: C_1  and  C_2
REMARK    2  A    between atoms: C_5  and  S_8
REMARK    3  A    between atoms: S_8  and  C_11
REMARK    4  A    between atoms: C_19  and  C_24
REMARK    5  A    between atoms: N_25  and  C_28
REMARK    6  A    between atoms: C_26  and  N_27
REMARK    7  A    between atoms: C_28  and  C_29
REMARK                            x       y       z     vdW  Elec       q    Type
REMARK                         _______ _______ _______ _____ _____    ______ ____
ROOT
ATOM      1  C   UNL     1       5.790   1.646   0.114  0.00  0.00    +0.132 A 
ATOM      2  C   UNL     1       4.827   0.698   0.224  0.00  0.00    +0.047 A 
ATOM      3  C   UNL     1       3.482   1.090   0.413  0.00  0.00    +0.084 A 
ATOM      4  C   UNL     1       3.149   2.458   0.487  0.00  0.00    +0.150 A 
ATOM      5  N   UNL     1       1.883   2.813   0.667  0.00  0.00    -0.211 NA
ATOM      6  C   UNL     1       0.915   1.903   0.779  0.00  0.00    +0.143 A 
ATOM      7  C   UNL     1      -0.411   2.337   0.968  0.00  0.00    +0.047 A 
ATOM      8  C   UNL     1      -1.408   1.416   1.084  0.00  0.00    +0.008 A 
ATOM      9  C   UNL     1      -1.102   0.050   1.007  0.00  0.00    -0.034 A 
ATOM     10  C   UNL     1       0.178  -0.349   0.830  0.00  0.00    +0.099 A 
ATOM     11  N   UNL     1       1.183   0.564   0.714  0.00  0.00    -0.267 N 
ATOM     12  C   UNL     1       2.451   0.130   0.533  0.00  0.00    +0.268 A 
ATOM     13  O   UNL     1       2.699  -1.062   0.473  0.00  0.00    -0.267 OA
ATOM     14  C   UNL     1      -2.200  -0.976   1.127  0.00  0.00    +0.045 C 
ATOM     15  N   UNL     1       4.138   3.405   0.373  0.00  0.00    -0.308 N 
ATOM     16  C   UNL     1       5.449   3.018   0.189  0.00  0.00    +0.124 A 
ENDROOT
BRANCH   1  17
ATOM     17  S   UNL     1       7.469   1.169  -0.124  0.00  0.00    +0.028 S 
ATOM     18  O   UNL     1       7.492  -0.252  -0.126  0.00  0.00    -0.164 OA
ATOM     19  O   UNL     1       7.960   1.940  -1.212  0.00  0.00    -0.164 OA
BRANCH  17  24
ATOM     20  C   UNL     1      10.534   2.936   4.764  0.00  0.00    +0.044 C 
ATOM     21  C   UNL     1       9.769   2.495   3.543  0.00  0.00    -0.050 A 
ATOM     22  C   UNL     1       9.074   1.300   3.558  0.00  0.00    +0.005 A 
ATOM     23  C   UNL     1       8.372   0.895   2.438  0.00  0.00    +0.027 A 
ATOM     24  C   UNL     1       8.364   1.685   1.304  0.00  0.00    +0.094 A 
ATOM     25  C   UNL     1       9.062   2.878   1.288  0.00  0.00    +0.027 A 
ATOM     26  C   UNL     1       9.761   3.285   2.409  0.00  0.00    +0.005 A 
ENDBRANCH  17  24
ENDBRANCH   1  17
BRANCH  16  27
ATOM     27  N   UNL     1       6.388   3.929   0.081  0.00  0.00    -0.343 N 
ATOM     28  H   UNL     1       6.128   4.996   0.139  0.00  0.00    +0.144 HD
ATOM     29  H   UNL     1       7.435   3.625  -0.066  0.00  0.00    +0.144 HD
ENDBRANCH  16  27
BRANCH  15  30
ATOM     30  C   UNL     1       3.800   4.828   0.448  0.00  0.00    +0.160 C 
BRANCH  30  31
ATOM     31  C   UNL     1       3.876   5.287   1.882  0.00  0.00    -0.028 A 
ATOM     32  C   UNL     1       2.755   5.221   2.689  0.00  0.00    +0.005 A 
ATOM     33  C   UNL     1       2.826   5.637   4.005  0.00  0.00    +0.000 A 
ATOM     34  C   UNL     1       4.014   6.129   4.512  0.00  0.00    +0.000 A 
ATOM     35  C   UNL     1       5.133   6.201   3.703  0.00  0.00    +0.000 A 
ATOM     36  C   UNL     1       5.064   5.779   2.388  0.00  0.00    +0.005 A 
ENDBRANCH  30  31
ENDBRANCH  15  30
TORSDOF 5
