REMARK  Name = ZINC36032751
REMARK  8 active torsions:
REMARK  status: ('A' for Active; 'I' for Inactive)
REMARK    1  A    between atoms: C_1  and  C_2
REMARK    2  A    between atoms: C_2  and  C_3
REMARK    3  A    between atoms: C_2  and  C_4
REMARK    4  A    between atoms: C_4  and  C_5
REMARK    5  A    between atoms: N_9  and  C_27
REMARK    6  A    between atoms: N_14  and  C_17
REMARK    7  A    between atoms: C_17  and  N_19
REMARK    8  A    between atoms: N_19  and  C_20
REMARK                            x       y       z     vdW  Elec       q    Type
REMARK                         _______ _______ _______ _____ _____    ______ ____
ROOT
ATOM      1  C   UNL     1       2.217  -0.363  -0.810  0.00  0.00    +0.019 C 
ATOM      2  C   UNL     1       2.933  -0.821  -2.062  0.00  0.00    +0.201 C 
ATOM      3  O   UNL     1       2.866  -1.927  -2.553  0.00  0.00    -0.277 OA
ATOM      4  N   UNL     1       3.660   0.211  -2.541  0.00  0.00    -0.311 N 
ATOM      5  C   UNL     1       3.487   1.376  -1.669  0.00  0.00    +0.006 C 
ATOM      6  N   UNL     1       2.279   1.118  -0.855  0.00  0.00    +0.401 N 
ATOM      7  C   UNL     1       4.699   1.535  -0.753  0.00  0.00    +0.025 C 
ATOM      8  C   UNL     1       5.953   1.762  -1.604  0.00  0.00    +0.107 C 
ATOM      9  N   UNL     1       5.713   2.899  -2.504  0.00  0.00    -0.312 N 
ATOM     10  C   UNL     1       4.528   2.875  -3.373  0.00  0.00    +0.107 C 
ATOM     11  C   UNL     1       3.287   2.638  -2.506  0.00  0.00    +0.025 C 
ATOM     12  H   UNL     1       1.458   1.494  -1.306  0.00  0.00    -0.082 HD
ATOM     13  H   UNL     1       2.384   1.498   0.073  0.00  0.00    -0.082 HD
ENDROOT
BRANCH   4  14
ATOM     14  C   UNL     1       4.492   0.172  -3.745  0.00  0.00    +0.075 C 
ATOM     15  C   UNL     1       3.782   0.004  -5.090  0.00  0.00    +0.024 C 
ATOM     16  C   UNL     1       4.584  -1.156  -4.498  0.00  0.00    +0.024 C 
ENDBRANCH   4  14
BRANCH   9  17
ATOM     17  C   UNL     1       6.564   3.943  -2.532  0.00  0.00    +0.137 C 
ATOM     18  S   UNL     1       8.003   3.900  -1.606  0.00  0.00    -0.018 S 
BRANCH  17  19
ATOM     19  N   UNL     1       6.282   5.022  -3.289  0.00  0.00    -0.295 N 
ATOM     20  H   UNL     1       6.013   5.853  -2.868  0.00  0.00    +0.154 HD
BRANCH  19  21
ATOM     21  C   UNL     1       6.377   4.943  -4.684  0.00  0.00    +0.068 A 
ATOM     22  C   UNL     1       6.695   3.736  -5.292  0.00  0.00    +0.026 A 
ATOM     23  C   UNL     1       6.788   3.660  -6.668  0.00  0.00    +0.002 A 
ATOM     24  C   UNL     1       6.564   4.785  -7.441  0.00  0.00    +0.003 A 
ATOM     25  C   UNL     1       6.247   5.989  -6.840  0.00  0.00    +0.040 A 
ATOM     26  C   UNL     1       6.147   6.071  -5.463  0.00  0.00    +0.144 A 
ATOM     27  F   UNL     1       5.832   7.246  -4.877  0.00  0.00    -0.204 F 
ENDBRANCH  19  21
ENDBRANCH  17  19
ENDBRANCH   9  17
BRANCH   1  28
ATOM     28  C   UNL     1       0.763  -0.837  -0.825  0.00  0.00    -0.004 C 
BRANCH  28  30
ATOM     29  C   UNL     1      -1.437  -0.684   0.349  0.00  0.00    +0.007 C 
ATOM     30  C   UNL     1       0.051  -0.339   0.434  0.00  0.00    -0.018 C 
ATOM     31  C   UNL     1       0.661  -1.012   1.665  0.00  0.00    +0.007 C 
ENDBRANCH  28  30
ENDBRANCH   1  28
TORSDOF 6
