REMARK  Name = ZINC39431724
REMARK  2 active torsions:
REMARK  status: ('A' for Active; 'I' for Inactive)
REMARK    1  A    between atoms: C_12  and  C_15
REMARK    2  A    between atoms: C_15  and  C_17
REMARK                            x       y       z     vdW  Elec       q    Type
REMARK                         _______ _______ _______ _____ _____    ______ ____
ROOT
ATOM      1  C   UNL     1      -0.016   1.357   0.009  0.00  0.00    +0.001 A 
ATOM      2  C   UNL     1       1.169   2.090   0.002  0.00  0.00    +0.001 A 
ATOM      3  C   UNL     1       2.379   1.468  -0.012  0.00  0.00    +0.009 A 
ATOM      4  C   UNL     1       2.439   0.063  -0.018  0.00  0.00    -0.011 A 
ATOM      5  C   UNL     1       1.232  -0.682  -0.013  0.00  0.00    -0.017 A 
ATOM      6  C   UNL     1       0.002  -0.004   0.002  0.00  0.00    +0.008 A 
ATOM      7  C   UNL     1       1.296  -2.086  -0.026  0.00  0.00    +0.012 A 
ATOM      8  C   UNL     1       2.500  -2.711  -0.045  0.00  0.00    +0.046 A 
ATOM      9  C   UNL     1       3.703  -1.983  -0.048  0.00  0.00    +0.125 A 
ATOM     10  C   UNL     1       3.664  -0.616  -0.028  0.00  0.00    +0.006 A 
ATOM     11  C   UNL     1       5.097  -0.120  -0.007  0.00  0.00    +0.092 C 
ATOM     12  C   UNL     1       5.871  -1.405   0.373  0.00  0.00    +0.246 C 
ATOM     13  O   UNL     1       4.986  -2.444  -0.076  0.00  0.00    -0.481 OA
ENDROOT
BRANCH  12  14
ATOM     14  C   UNL     1       6.081  -1.483   1.863  0.00  0.00    +0.202 C 
ATOM     15  O   UNL     1       5.422  -2.247   2.527  0.00  0.00    -0.291 OA
BRANCH  14  16
ATOM     16  C   UNL     1       7.113  -0.607   2.526  0.00  0.00    +0.198 C 
ATOM     17  C   UNL     1       8.502  -1.151   2.272  0.00  0.00    +0.009 C 
ATOM     18  C   UNL     1       9.009  -1.435   3.470  0.00  0.00    +0.017 C 
ATOM     19  C   UNL     1       8.027  -1.108   4.505  0.00  0.00    +0.106 C 
ATOM     20  N   UNL     1       6.942  -0.634   3.984  0.00  0.00    -0.276 NA
ENDBRANCH  14  16
ENDBRANCH  12  14
TORSDOF 2
