REMARK  Name = ZINC38086523
REMARK  3 active torsions:
REMARK  status: ('A' for Active; 'I' for Inactive)
REMARK    1  A    between atoms: C_3  and  C_9
REMARK    2  A    between atoms: C_9  and  C_11
REMARK    3  A    between atoms: C_9  and  N_14
REMARK                            x       y       z     vdW  Elec       q    Type
REMARK                         _______ _______ _______ _____ _____    ______ ____
ROOT
ATOM      1  C   UNL     1       3.671   2.185  -0.023  0.00  0.00    +0.079 C 
ENDROOT
BRANCH   1   4
ATOM      2  C   UNL     1      -0.017   1.379   0.010  0.00  0.00    +0.020 A 
ATOM      3  C   UNL     1       1.171   2.087   0.002  0.00  0.00    +0.005 A 
ATOM      4  C   UNL     1       2.377   1.413  -0.013  0.00  0.00    -0.032 A 
ATOM      5  C   UNL     1       2.397   0.029  -0.021  0.00  0.00    +0.044 A 
ATOM      6  C   UNL     1       1.210  -0.679  -0.013  0.00  0.00    +0.040 A 
ATOM      7  C   UNL     1       0.002  -0.004   0.002  0.00  0.00    +0.042 A 
ATOM      8 CL   UNL     1      -1.489  -0.893   0.012  0.00  0.00    -0.083 Cl
ATOM      9 CL   UNL     1       3.913  -0.817  -0.041  0.00  0.00    -0.083 Cl
ENDBRANCH   1   4
BRANCH   1  10
ATOM     10  N   UNL     1       3.455   3.511   0.572  0.00  0.00    +0.391 N 
ATOM     11  C   UNL     1       4.707   4.286   0.470  0.00  0.00    -0.077 C 
ATOM     12  C   UNL     1       4.359   5.753   0.496  0.00  0.00    -0.019 C 
ATOM     13  C   UNL     1       4.487   6.338   1.915  0.00  0.00    -0.002 C 
ATOM     14  C   UNL     1       3.944   5.368   2.984  0.00  0.00    -0.002 C 
ATOM     15  C   UNL     1       2.667   4.694   2.553  0.00  0.00    -0.019 C 
ATOM     16  C   UNL     1       3.010   3.346   1.885  0.00  0.00    -0.077 C 
ATOM     17  H   UNL     1       2.738   3.988   0.045  0.00  0.00    -0.080 HD
ENDBRANCH   1  10
BRANCH   1  18
ATOM     18  C   UNL     1       4.152   2.344  -1.442  0.00  0.00    +0.347 C 
ATOM     19  O   UNL     1       4.127   3.440  -1.976  0.00  0.00    -0.248 OA
ATOM     20  O   UNL     1       4.565   1.375  -2.057  0.00  0.00    -0.248 OA
ENDBRANCH   1  18
TORSDOF 3
