REMARK  Name = ZINC05552844
REMARK  3 active torsions:
REMARK  status: ('A' for Active; 'I' for Inactive)
REMARK    1  A    between atoms: C_3  and  C_7
REMARK    2  A    between atoms: N_11  and  N_15
REMARK    3  A    between atoms: C_16  and  C_18
REMARK                            x       y       z     vdW  Elec       q    Type
REMARK                         _______ _______ _______ _____ _____    ______ ____
ROOT
ATOM      1  C   UNL     1      -3.547  -2.729  -2.007  0.00  0.00    +0.046 C 
ATOM      2  C   UNL     1      -2.886  -2.041  -1.033  0.00  0.00    +0.080 C 
ATOM      3  C   UNL     1      -1.615  -1.302  -1.104  0.00  0.00    +0.275 C 
ATOM      4  O   UNL     1      -0.975  -1.230  -2.137  0.00  0.00    -0.267 OA
ATOM      5  N   UNL     1      -1.202  -0.721   0.010  0.00  0.00    -0.169 N 
ATOM      6  C   UNL     1      -1.910  -0.808   1.154  0.00  0.00    +0.138 C 
ATOM      7  S   UNL     1      -1.544  -0.138   2.686  0.00  0.00    -0.026 S 
ATOM      8  S   UNL     1      -3.325  -1.789   0.682  0.00  0.00    -0.059 S 
ENDROOT
BRANCH   1  11
ATOM      9  C   UNL     1      -6.663  -4.556  -1.885  0.00  0.00    +0.019 A 
ATOM     10  C   UNL     1      -5.550  -4.098  -2.597  0.00  0.00    +0.027 A 
ATOM     11  C   UNL     1      -4.772  -3.373  -1.711  0.00  0.00    +0.040 A 
ATOM     12  N   UNL     1      -5.411  -3.388  -0.491  0.00  0.00    -0.361 N 
ATOM     13  H   UNL     1      -5.095  -2.957   0.318  0.00  0.00    +0.165 HD
ATOM     14  C   UNL     1      -6.557  -4.109  -0.611  0.00  0.00    +0.083 A 
ENDBRANCH   1  11
BRANCH   5  15
ATOM     15  N   UNL     1       0.002  -0.004   0.002  0.00  0.00    -0.222 N 
ATOM     16  C   UNL     1      -0.016   1.344   0.009  0.00  0.00    +0.261 C 
ATOM     17  O   UNL     1      -1.077   1.937   0.018  0.00  0.00    -0.269 OA
ATOM     18  H   UNL     1       0.849  -0.478  -0.009  0.00  0.00    +0.174 HD
BRANCH  16  19
ATOM     19  C   UNL     1       1.254   2.100   0.001  0.00  0.00    +0.038 A 
ATOM     20  C   UNL     1       2.474   1.421  -0.008  0.00  0.00    +0.014 A 
ATOM     21  C   UNL     1       3.655   2.133  -0.021  0.00  0.00    +0.016 A 
ATOM     22  C   UNL     1       3.633   3.517  -0.014  0.00  0.00    +0.018 A 
ATOM     23  C   UNL     1       2.426   4.196   0.001  0.00  0.00    +0.016 A 
ATOM     24  C   UNL     1       1.238   3.496   0.009  0.00  0.00    +0.014 A 
ATOM     25 BR   UNL     1       5.258   4.485  -0.025  0.00  0.00    -0.050 Br
ENDBRANCH  16  19
ENDBRANCH   5  15
TORSDOF 3
