REMARK  Name = ZINC13000127
REMARK  6 active torsions:
REMARK  status: ('A' for Active; 'I' for Inactive)
REMARK    1  A    between atoms: C_1  and  C_2
REMARK    2  A    between atoms: C_2  and  C_4
REMARK    3  A    between atoms: C_2  and  N_19
REMARK    4  A    between atoms: N_6  and  C_7
REMARK    5  A    between atoms: C_20  and  C_22
REMARK    6  A    between atoms: C_22  and  C_23
REMARK                            x       y       z     vdW  Elec       q    Type
REMARK                         _______ _______ _______ _____ _____    ______ ____
ROOT
ATOM      1  C   UNL     1      -0.058   1.634  -0.102  0.00  0.00    +0.038 C 
ATOM      2  C   UNL     1      -0.056   0.117   0.095  0.00  0.00    +0.156 C 
ENDROOT
BRANCH   2   3
ATOM      3  C   UNL     1      -1.474  -0.392   0.094  0.00  0.00    +0.237 C 
ATOM      4  O   UNL     1      -1.912  -0.970   1.066  0.00  0.00    -0.273 OA
ATOM      5  N   UNL     1      -2.256  -0.206  -0.988  0.00  0.00    -0.284 N 
ATOM      6  H   UNL     1      -1.932   0.321  -1.736  0.00  0.00    +0.155 HD
BRANCH   5   7
ATOM      7  C   UNL     1      -3.535  -0.774  -1.034  0.00  0.00    +0.036 A 
ATOM      8  C   UNL     1      -4.564  -0.114  -1.696  0.00  0.00    +0.025 A 
ATOM      9  C   UNL     1      -5.827  -0.668  -1.745  0.00  0.00    +0.029 A 
ATOM     10  C   UNL     1      -6.072  -1.888  -1.131  0.00  0.00    +0.067 A 
ATOM     11  C   UNL     1      -5.041  -2.553  -0.466  0.00  0.00    +0.069 A 
ATOM     12  C   UNL     1      -3.772  -1.997  -0.424  0.00  0.00    +0.051 A 
ATOM     13  N   UNL     1      -5.583  -3.732   0.040  0.00  0.00    -0.306 N 
ATOM     14  H   UNL     1      -5.104  -4.404   0.551  0.00  0.00    +0.170 HD
ATOM     15  C   UNL     1      -6.884  -3.783  -0.302  0.00  0.00    +0.325 A 
ATOM     16  O   UNL     1      -7.649  -4.684  -0.015  0.00  0.00    -0.247 OA
ATOM     17  N   UNL     1      -7.210  -2.684  -1.009  0.00  0.00    -0.306 N 
ATOM     18  H   UNL     1      -8.087  -2.482  -1.371  0.00  0.00    +0.170 HD
ENDBRANCH   5   7
ENDBRANCH   2   3
BRANCH   2  19
ATOM     19  N   UNL     1       0.579  -0.208   1.375  0.00  0.00    -0.304 N 
ATOM     20  C   UNL     1       1.919  -0.325   1.453  0.00  0.00    +0.218 C 
ATOM     21  O   UNL     1       2.600  -0.162   0.463  0.00  0.00    -0.275 OA
ATOM     22  H   UNL     1       0.034  -0.338   2.167  0.00  0.00    +0.149 HD
BRANCH  20  23
ATOM     23  C   UNL     1       2.571  -0.659   2.770  0.00  0.00    +0.131 C 
BRANCH  23  24
ATOM     24  C   UNL     1       4.065  -0.732   2.586  0.00  0.00    -0.031 A 
ATOM     25  C   UNL     1       4.669  -1.929   2.355  0.00  0.00    +0.005 A 
ATOM     26  C   UNL     1       6.049  -2.016   2.183  0.00  0.00    +0.001 A 
ATOM     27  C   UNL     1       6.833  -0.905   2.240  0.00  0.00    +0.008 A 
ATOM     28  C   UNL     1       6.246   0.349   2.477  0.00  0.00    -0.018 A 
ATOM     29  C   UNL     1       4.842   0.438   2.647  0.00  0.00    -0.014 A 
ATOM     30  C   UNL     1       4.255   1.692   2.888  0.00  0.00    +0.009 A 
ATOM     31  C   UNL     1       5.039   2.803   2.946  0.00  0.00    +0.001 A 
ATOM     32  C   UNL     1       6.420   2.716   2.775  0.00  0.00    +0.001 A 
ATOM     33  C   UNL     1       7.023   1.518   2.544  0.00  0.00    +0.008 A 
ENDBRANCH  23  24
ENDBRANCH  20  23
ENDBRANCH   2  19
TORSDOF 5
