REMARK  Name = ZINC03301393
REMARK  5 active torsions:
REMARK  status: ('A' for Active; 'I' for Inactive)
REMARK    1  A    between atoms: C_1  and  C_2
REMARK    2  A    between atoms: C_15  and  C_17
REMARK    3  A    between atoms: C_17  and  S_18
REMARK    4  A    between atoms: S_18  and  C_19
REMARK    5  A    between atoms: C_22  and  C_24
REMARK                            x       y       z     vdW  Elec       q    Type
REMARK                         _______ _______ _______ _____ _____    ______ ____
ROOT
ATOM      1  C   UNL     1      -0.019   1.526   0.010  0.00  0.00    +0.008 C 
ATOM      2  C   UNL     1       0.002  -0.004   0.002  0.00  0.00    -0.009 C 
ATOM      3  C   UNL     1       0.726  -0.501  -1.253  0.00  0.00    +0.008 C 
ATOM      4  C   UNL     1       0.536  -2.011  -1.397  0.00  0.00    +0.037 C 
ATOM      5  C   UNL     1       0.949  -2.688  -0.093  0.00  0.00    -0.023 A 
ATOM      6  C   UNL     1       1.031  -1.976   1.055  0.00  0.00    -0.004 A 
ATOM      7  S   UNL     1       1.537  -3.145   2.292  0.00  0.00    -0.073 S 
ATOM      8  C   UNL     1       1.637  -4.581   1.270  0.00  0.00    +0.116 A 
ATOM      9  C   UNL     1       1.271  -4.101  -0.007  0.00  0.00    +0.075 A 
ATOM     10  C   UNL     1       1.257  -5.054  -1.081  0.00  0.00    +0.260 A 
ATOM     11  O   UNL     1       0.955  -4.742  -2.220  0.00  0.00    -0.267 OA
ATOM     12  N   UNL     1       1.599  -6.321  -0.747  0.00  0.00    -0.310 N 
ATOM     13  H   UNL     1       1.603  -6.997  -1.443  0.00  0.00    +0.170 HD
ATOM     14  C   UNL     1       1.938  -6.688   0.512  0.00  0.00    +0.121 A 
ATOM     15  N   UNL     1       1.962  -5.845   1.522  0.00  0.00    -0.226 NA
ATOM     16  C   UNL     1       0.751  -0.516   1.241  0.00  0.00    +0.046 C 
ENDROOT
BRANCH  14  17
ATOM     17  C   UNL     1       2.301  -8.127   0.768  0.00  0.00    +0.153 C 
BRANCH  17  18
ATOM     18  S   UNL     1       2.709  -8.345   2.522  0.00  0.00    -0.058 S 
BRANCH  18  19
ATOM     19  C   UNL     1       3.107 -10.056   2.659  0.00  0.00    +0.278 A 
ATOM     20  N   UNL     1       3.102 -10.935   1.683  0.00  0.00    -0.101 NA
ATOM     21  N   UNL     1       3.444 -12.087   2.143  0.00  0.00    -0.106 NA
ATOM     22  C   UNL     1       3.680 -11.990   3.428  0.00  0.00    +0.249 A 
ATOM     23  O   UNL     1       3.477 -10.702   3.781  0.00  0.00    -0.411 OA
BRANCH  22  24
ATOM     24  C   UNL     1       4.097 -13.087   4.326  0.00  0.00    +0.039 A 
ATOM     25  C   UNL     1       4.309 -12.841   5.684  0.00  0.00    +0.013 A 
ATOM     26  C   UNL     1       4.698 -13.870   6.516  0.00  0.00    +0.001 A 
ATOM     27  C   UNL     1       4.879 -15.144   6.008  0.00  0.00    +0.000 A 
ATOM     28  C   UNL     1       4.671 -15.395   4.663  0.00  0.00    +0.001 A 
ATOM     29  C   UNL     1       4.275 -14.377   3.821  0.00  0.00    +0.013 A 
ENDBRANCH  22  24
ENDBRANCH  18  19
ENDBRANCH  17  18
ENDBRANCH  14  17
TORSDOF 4
