REMARK  Name = ZINC32089799
REMARK  7 active torsions:
REMARK  status: ('A' for Active; 'I' for Inactive)
REMARK    1  A    between atoms: C_4  and  C_7
REMARK    2  A    between atoms: C_7  and  C_8
REMARK    3  A    between atoms: C_7  and  C_28
REMARK    4  A    between atoms: C_8  and  C_9
REMARK    5  A    between atoms: C_9  and  N_10
REMARK    6  A    between atoms: C_11  and  C_13
REMARK    7  A    between atoms: C_13  and  C_14
REMARK                            x       y       z     vdW  Elec       q    Type
REMARK                         _______ _______ _______ _____ _____    ______ ____
ROOT
ATOM      1  N   UNL     1       3.483  -1.308   3.698  0.00  0.00    -0.315 N 
ATOM      2  C   UNL     1       3.533  -0.673   4.886  0.00  0.00    +0.215 C 
ATOM      3  O   UNL     1       3.708   0.526   4.926  0.00  0.00    -0.276 OA
ATOM      4  H   UNL     1       3.342  -2.267   3.666  0.00  0.00    +0.149 HD
ENDROOT
BRANCH   1   5
ATOM      5  C   UNL     1       3.642  -0.548   2.455  0.00  0.00    +0.105 C 
BRANCH   5   6
ATOM      6  C   UNL     1       3.546  -1.500   1.260  0.00  0.00    +0.031 C 
BRANCH   6   7
ATOM      7  C   UNL     1       3.711  -0.707  -0.038  0.00  0.00    +0.050 C 
BRANCH   7  11
ATOM      8  C   UNL     1       0.435   1.998  -0.484  0.00  0.00    +0.000 A 
ATOM      9  C   UNL     1       1.734   2.463  -0.576  0.00  0.00    +0.000 A 
ATOM     10  C   UNL     1       2.794   1.588  -0.432  0.00  0.00    +0.004 A 
ATOM     11  C   UNL     1       2.556   0.247  -0.194  0.00  0.00    -0.040 A 
ATOM     12  C   UNL     1       1.257  -0.218  -0.101  0.00  0.00    +0.004 A 
ATOM     13  C   UNL     1       0.197   0.657  -0.247  0.00  0.00    +0.000 A 
ENDBRANCH   7  11
BRANCH   7  14
ATOM     14  C   UNL     1       3.740  -1.658  -1.207  0.00  0.00    -0.040 A 
ATOM     15  C   UNL     1       2.732  -2.591  -1.363  0.00  0.00    +0.004 A 
ATOM     16  C   UNL     1       2.758  -3.463  -2.435  0.00  0.00    +0.000 A 
ATOM     17  C   UNL     1       3.791  -3.401  -3.351  0.00  0.00    +0.000 A 
ATOM     18  C   UNL     1       4.798  -2.467  -3.196  0.00  0.00    +0.000 A 
ATOM     19  C   UNL     1       4.770  -1.592  -2.126  0.00  0.00    +0.004 A 
ENDBRANCH   7  14
ENDBRANCH   6   7
ENDBRANCH   5   6
ENDBRANCH   1   5
BRANCH   2  20
ATOM     20  C   UNL     1       3.369  -1.454   6.165  0.00  0.00    +0.127 C 
BRANCH  20  21
ATOM     21  C   UNL     1       3.465  -0.502   7.359  0.00  0.00    +0.168 C 
ATOM     22  C   UNL     1       3.187  -1.258   8.629  0.00  0.00    +0.238 C 
ATOM     23  O   UNL     1       2.299  -0.875   9.360  0.00  0.00    -0.273 OA
ATOM     24  N   UNL     1       3.887  -2.335   8.974  0.00  0.00    -0.283 N 
ATOM     25  C   UNL     1       4.892  -2.917   8.222  0.00  0.00    +0.046 A 
ATOM     26  C   UNL     1       4.927  -4.314   8.171  0.00  0.00    +0.024 A 
ATOM     27  C   UNL     1       5.900  -4.966   7.448  0.00  0.00    +0.002 A 
ATOM     28  C   UNL     1       6.860  -4.241   6.760  0.00  0.00    +0.001 A 
ATOM     29  C   UNL     1       6.841  -2.867   6.796  0.00  0.00    +0.015 A 
ATOM     30  C   UNL     1       5.854  -2.186   7.527  0.00  0.00    +0.058 A 
ATOM     31  C   UNL     1       5.890  -0.719   7.513  0.00  0.00    +0.246 C 
ATOM     32  O   UNL     1       6.977  -0.178   7.582  0.00  0.00    -0.270 OA
ATOM     33  N   UNL     1       4.813   0.064   7.428  0.00  0.00    -0.300 N 
ATOM     34  H   UNL     1       3.675  -2.748   9.826  0.00  0.00    +0.155 HD
ATOM     35  H   UNL     1       4.923   1.027   7.412  0.00  0.00    +0.150 HD
ENDBRANCH  20  21
ENDBRANCH   2  20
TORSDOF 7
