REMARK  Name = ZINC10078771
REMARK  9 active torsions:
REMARK  status: ('A' for Active; 'I' for Inactive)
REMARK    1  A    between atoms: C_1  and  O_2
REMARK    2  A    between atoms: O_2  and  C_3
REMARK    3  A    between atoms: C_5  and  N_11
REMARK    4  A    between atoms: C_7  and  O_9
REMARK    5  A    between atoms: O_9  and  C_10
REMARK    6  A    between atoms: C_15  and  N_56
REMARK    7  A    between atoms: C_19  and  N_56
REMARK    8  A    between atoms: N_22  and  C_25
REMARK    9  A    between atoms: C_28  and  N_30
REMARK                            x       y       z     vdW  Elec       q    Type
REMARK                         _______ _______ _______ _____ _____    ______ ____
ROOT
ATOM      1  N   UNL     1       3.175   0.621  -1.152  0.00  0.00    +0.389 N 
ATOM      2  H   UNL     1       2.707   1.150  -1.897  0.00  0.00    -0.084 HD
ATOM      3  H   UNL     1       3.301  -0.353  -1.452  0.00  0.00    -0.084 HD
ENDROOT
BRANCH   1   8
ATOM      4  N   UNL     1       0.202   1.569   0.085  0.00  0.00    -0.212 N 
ATOM      5  C   UNL     1      -0.027   0.251   0.043  0.00  0.00    +0.225 C 
ATOM      6  O   UNL     1      -1.120  -0.272   0.022  0.00  0.00    -0.275 OA
ATOM      7  C   UNL     1       1.296  -0.483   0.025  0.00  0.00    +0.090 C 
ATOM      8  C   UNL     1       2.340   0.651   0.064  0.00  0.00    +0.026 C 
ATOM      9  C   UNL     1       1.497   1.907   0.100  0.00  0.00    +0.213 C 
ATOM     10  O   UNL     1       1.927   3.040   0.136  0.00  0.00    -0.277 OA
BRANCH   4  13
ATOM     11  C   UNL     1      -2.056   4.235   1.254  0.00  0.00    +0.125 A 
ATOM     12  C   UNL     1      -1.035   3.296   1.235  0.00  0.00    +0.069 A 
ATOM     13  C   UNL     1      -0.830   2.518   0.105  0.00  0.00    +0.051 A 
ATOM     14  C   UNL     1      -1.642   2.683  -1.008  0.00  0.00    +0.069 A 
ATOM     15  C   UNL     1      -2.666   3.618  -0.986  0.00  0.00    +0.125 A 
ATOM     16  C   UNL     1      -2.871   4.396   0.144  0.00  0.00    +0.091 A 
BRANCH  11  18
ATOM     17  C   UNL     1      -3.326   5.944   2.312  0.00  0.00    +0.277 C 
ATOM     18  O   UNL     1      -2.257   4.997   2.361  0.00  0.00    -0.495 OA
ENDBRANCH  11  18
BRANCH  15  19
ATOM     19  O   UNL     1      -3.466   3.776  -2.073  0.00  0.00    -0.495 OA
ATOM     20  C   UNL     1      -4.497   4.761  -1.982  0.00  0.00    +0.277 C 
ENDBRANCH  15  19
ENDBRANCH   4  13
ENDBRANCH   1   8
BRANCH   1  21
ATOM     21  C   UNL     1       4.494   1.222  -0.883  0.00  0.00    -0.068 C 
ATOM     22  C   UNL     1       5.074   1.772  -2.189  0.00  0.00    +0.003 C 
ATOM     23  C   UNL     1       6.471   2.337  -1.924  0.00  0.00    +0.105 C 
ATOM     24  N   UNL     1       7.337   1.278  -1.391  0.00  0.00    -0.317 N 
ATOM     25  C   UNL     1       6.825   0.767  -0.112  0.00  0.00    +0.105 C 
ATOM     26  C   UNL     1       5.439   0.154  -0.324  0.00  0.00    +0.003 C 
BRANCH  24  27
ATOM     27  C   UNL     1       8.647   1.723  -1.261  0.00  0.00    +0.099 A 
ATOM     28  C   UNL     1       9.310   2.245  -2.367  0.00  0.00    +0.044 A 
ATOM     29  C   UNL     1      10.613   2.685  -2.224  0.00  0.00    +0.037 A 
ATOM     30  C   UNL     1      11.212   2.588  -0.975  0.00  0.00    +0.142 A 
ATOM     31  C   UNL     1      10.495   2.059   0.079  0.00  0.00    +0.117 A 
ATOM     32  N   UNL     1       9.211   1.622  -0.023  0.00  0.00    -0.347 N 
ATOM     33  H   UNL     1       8.699   1.240   0.780  0.00  0.00    +0.167 HD
BRANCH  30  34
ATOM     34  N   UNL     1      12.606   3.046  -0.776  0.00  0.00    +0.058 N 
ATOM     35  O   UNL     1      13.233   3.511  -1.711  0.00  0.00    -0.126 OA
ATOM     36  O   UNL     1      13.125   2.958   0.322  0.00  0.00    -0.126 OA
ENDBRANCH  30  34
ENDBRANCH  24  27
ENDBRANCH   1  21
TORSDOF 7
