REMARK  Name = ZINC57228186
REMARK  6 active torsions:
REMARK  status: ('A' for Active; 'I' for Inactive)
REMARK    1  A    between atoms: C_4  and  C_7
REMARK    2  A    between atoms: C_15  and  C_16
REMARK    3  A    between atoms: C_20  and  O_22
REMARK    4  A    between atoms: O_22  and  C_23
REMARK    5  A    between atoms: C_23  and  C_24
REMARK    6  A    between atoms: C_27  and  N_30
REMARK                            x       y       z     vdW  Elec       q    Type
REMARK                         _______ _______ _______ _____ _____    ______ ____
ROOT
ATOM      1  C   UNL     1       3.712  -1.344  -1.305  0.00  0.00    +0.045 C 
ATOM      2  C   UNL     1       4.933  -1.012  -2.153  0.00  0.00    +0.131 C 
ATOM      3  S   UNL     1       5.351  -2.709  -2.742  0.00  0.00    -0.084 S 
ATOM      4  C   UNL     1       4.303  -3.582  -1.599  0.00  0.00    +0.168 C 
ATOM      5  N   UNL     1       4.308  -4.860  -1.307  0.00  0.00    -0.152 NA
ATOM      6  C   UNL     1       3.444  -5.336  -0.387  0.00  0.00    +0.273 C 
ATOM      7  O   UNL     1       3.363  -6.531  -0.158  0.00  0.00    -0.268 OA
ATOM      8  C   UNL     1       2.596  -4.357   0.337  0.00  0.00    +0.082 C 
ATOM      9  C   UNL     1       2.052  -4.638   1.557  0.00  0.00    +0.024 C 
ATOM     10  C   UNL     1       2.371  -3.048  -0.343  0.00  0.00    +0.144 C 
ATOM     11  N   UNL     1       1.253  -2.374  -0.252  0.00  0.00    -0.282 NA
ATOM     12  N   UNL     1       3.480  -2.609  -1.085  0.00  0.00    -0.278 N 
ATOM     13  H   UNL     1       0.493  -2.756   0.214  0.00  0.00    +0.188 HD
ENDROOT
BRANCH   1  17
ATOM     14  C   UNL     1       1.208   1.687   0.273  0.00  0.00    +0.000 A 
ATOM     15  C   UNL     1       1.643   0.658   1.091  0.00  0.00    +0.001 A 
ATOM     16  C   UNL     1       2.458  -0.332   0.587  0.00  0.00    +0.009 A 
ATOM     17  C   UNL     1       2.846  -0.296  -0.760  0.00  0.00    -0.004 A 
ATOM     18  C   UNL     1       2.401   0.749  -1.581  0.00  0.00    +0.009 A 
ATOM     19  C   UNL     1       1.587   1.731  -1.058  0.00  0.00    +0.001 A 
ENDBRANCH   1  17
BRANCH   9  20
ATOM     20  C   UNL     1       2.447  -5.856   2.273  0.00  0.00    -0.021 A 
ATOM     21  C   UNL     1       3.776  -6.296   2.234  0.00  0.00    +0.008 A 
ATOM     22  C   UNL     1       4.141  -7.442   2.909  0.00  0.00    +0.004 A 
ATOM     23  C   UNL     1       3.199  -8.159   3.625  0.00  0.00    +0.046 A 
ATOM     24  C   UNL     1       1.878  -7.732   3.671  0.00  0.00    +0.122 A 
ATOM     25  C   UNL     1       1.498  -6.581   3.004  0.00  0.00    +0.053 A 
BRANCH  24  26
ATOM     26  O   UNL     1       0.959  -8.443   4.376  0.00  0.00    -0.487 OA
BRANCH  26  27
ATOM     27  C   UNL     1       1.422  -9.618   5.046  0.00  0.00    +0.264 C 
BRANCH  27  28
ATOM     28  C   UNL     1       0.272 -10.269   5.770  0.00  0.00    -0.010 A 
ATOM     29  C   UNL     1      -0.015  -9.912   7.074  0.00  0.00    +0.009 A 
ATOM     30  C   UNL     1      -1.069 -10.510   7.738  0.00  0.00    +0.033 A 
ATOM     31  C   UNL     1      -1.837 -11.464   7.098  0.00  0.00    +0.126 A 
ATOM     32  C   UNL     1      -1.551 -11.821   5.793  0.00  0.00    +0.033 A 
ATOM     33  C   UNL     1      -0.499 -11.220   5.128  0.00  0.00    +0.009 A 
BRANCH  31  34
ATOM     34  N   UNL     1      -2.966 -12.105   7.809  0.00  0.00    +0.056 N 
ATOM     35  O   UNL     1      -3.216 -11.794   8.950  0.00  0.00    -0.126 OA
ATOM     36  O   UNL     1      -3.638 -12.940   7.249  0.00  0.00    -0.126 OA
ENDBRANCH  31  34
ENDBRANCH  27  28
ENDBRANCH  26  27
ENDBRANCH  24  26
ENDBRANCH   9  20
TORSDOF 6
