REMARK  Name = ZINC63182521
REMARK  10 active torsions:
REMARK  status: ('A' for Active; 'I' for Inactive)
REMARK    1  A    between atoms: C_1  and  C_2
REMARK    2  A    between atoms: C_5  and  N_9
REMARK    3  A    between atoms: C_6  and  C_8
REMARK    4  A    between atoms: C_10  and  C_12
REMARK    5  A    between atoms: C_12  and  C_14
REMARK    6  A    between atoms: C_12  and  N_24
REMARK    7  A    between atoms: C_14  and  C_15
REMARK    8  A    between atoms: C_25  and  C_27
REMARK    9  A    between atoms: C_27  and  C_28
REMARK   10  A    between atoms: C_27  and  C_34
REMARK                            x       y       z     vdW  Elec       q    Type
REMARK                         _______ _______ _______ _____ _____    ______ ____
ROOT
ATOM      1  C   UNL     1      -0.753  -5.226  -2.303  0.00  0.00    +0.163 C 
ENDROOT
BRANCH   1   3
ATOM      2  N   UNL     1      -2.333  -3.323  -2.223  0.00  0.00    -0.284 N 
ATOM      3  C   UNL     1      -1.694  -4.250  -2.963  0.00  0.00    +0.238 C 
ATOM      4  O   UNL     1      -1.875  -4.299  -4.162  0.00  0.00    -0.273 OA
ATOM      5  H   UNL     1      -2.144  -3.246  -1.274  0.00  0.00    +0.155 HD
BRANCH   2  10
ATOM      6  C   UNL     1      -6.128   0.123  -4.651  0.00  0.00    +0.044 C 
ATOM      7  C   UNL     1      -5.120  -0.792  -4.006  0.00  0.00    -0.050 A 
ATOM      8  C   UNL     1      -4.034  -1.244  -4.733  0.00  0.00    +0.005 A 
ATOM      9  C   UNL     1      -3.108  -2.083  -4.145  0.00  0.00    +0.024 A 
ATOM     10  C   UNL     1      -3.269  -2.473  -2.821  0.00  0.00    +0.036 A 
ATOM     11  C   UNL     1      -4.360  -2.017  -2.094  0.00  0.00    -0.029 A 
ATOM     12  C   UNL     1      -5.280  -1.174  -2.687  0.00  0.00    +0.008 A 
ATOM     13  C   UNL     1      -4.538  -2.437  -0.657  0.00  0.00    +0.045 C 
ENDBRANCH   2  10
ENDBRANCH   1   3
BRANCH   1  14
ATOM     14  N   UNL     1      -0.190  -6.122  -3.315  0.00  0.00    -0.303 N 
ATOM     15  C   UNL     1      -0.896  -7.190  -3.738  0.00  0.00    +0.225 C 
ATOM     16  O   UNL     1      -2.028  -7.364  -3.340  0.00  0.00    -0.275 OA
ATOM     17  H   UNL     1       0.691  -5.948  -3.681  0.00  0.00    +0.149 HD
BRANCH  15  18
ATOM     18  C   UNL     1      -0.278  -8.167  -4.705  0.00  0.00    +0.135 C 
BRANCH  18  19
ATOM     19  C   UNL     1       0.744  -9.009  -3.984  0.00  0.00    -0.031 A 
ATOM     20  C   UNL     1       0.451  -9.538  -2.741  0.00  0.00    +0.005 A 
ATOM     21  C   UNL     1       1.388 -10.310  -2.081  0.00  0.00    +0.000 A 
ATOM     22  C   UNL     1       2.618 -10.553  -2.663  0.00  0.00    +0.000 A 
ATOM     23  C   UNL     1       2.910 -10.024  -3.906  0.00  0.00    +0.000 A 
ATOM     24  C   UNL     1       1.972  -9.256  -4.569  0.00  0.00    +0.005 A 
ENDBRANCH  18  19
BRANCH  18  25
ATOM     25  C   UNL     1      -1.352  -9.058  -5.274  0.00  0.00    -0.031 A 
ATOM     26  C   UNL     1      -2.123  -9.836  -4.430  0.00  0.00    +0.005 A 
ATOM     27  C   UNL     1      -3.108 -10.654  -4.952  0.00  0.00    +0.000 A 
ATOM     28  C   UNL     1      -3.323 -10.692  -6.317  0.00  0.00    +0.000 A 
ATOM     29  C   UNL     1      -2.553  -9.913  -7.160  0.00  0.00    +0.000 A 
ATOM     30  C   UNL     1      -1.570  -9.093  -6.638  0.00  0.00    +0.005 A 
ENDBRANCH  18  25
ENDBRANCH  15  18
ENDBRANCH   1  14
BRANCH   1  31
ATOM     31  C   UNL     1       0.377  -4.458  -1.615  0.00  0.00    +0.065 C 
BRANCH  31  32
ATOM     32  C   UNL     1       1.246  -5.423  -0.849  0.00  0.00    -0.039 C 
ATOM     33  C   UNL     1       2.405  -5.980  -1.266  0.00  0.00    -0.001 A 
ATOM     34  C   UNL     1       3.175  -5.861  -2.509  0.00  0.00    +0.010 A 
ATOM     35  C   UNL     1       4.326  -6.559  -2.638  0.00  0.00    +0.001 A 
ATOM     36  C   UNL     1       4.801  -7.393  -1.615  0.00  0.00    +0.002 A 
ATOM     37  C   UNL     1       4.149  -7.554  -0.444  0.00  0.00    +0.026 A 
ATOM     38  C   UNL     1       2.928  -6.866  -0.201  0.00  0.00    +0.043 A 
ATOM     39  N   UNL     1       2.123  -6.857   0.833  0.00  0.00    -0.380 N 
ATOM     40  C   UNL     1       1.000  -5.958   0.544  0.00  0.00    +0.144 C 
ATOM     41  H   UNL     1       2.250  -7.357   1.655  0.00  0.00    +0.160 HD
ENDBRANCH  31  32
ENDBRANCH   1  31
TORSDOF 8
