REMARK  Name = ZINC23819937
REMARK  8 active torsions:
REMARK  status: ('A' for Active; 'I' for Inactive)
REMARK    1  A    between atoms: C_1  and  C_2
REMARK    2  A    between atoms: C_5  and  C_7
REMARK    3  A    between atoms: C_7  and  N_8
REMARK    4  A    between atoms: N_8  and  C_9
REMARK    5  A    between atoms: N_8  and  C_10
REMARK    6  A    between atoms: C_10  and  C_11
REMARK    7  A    between atoms: N_13  and  C_14
REMARK    8  A    between atoms: C_15  and  C_24
REMARK                            x       y       z     vdW  Elec       q    Type
REMARK                         _______ _______ _______ _____ _____    ______ ____
ROOT
ATOM      1  C   UNL     1       3.157   6.164  -2.853  0.00  0.00    +0.201 C 
ATOM      2  O   UNL     1       2.671   5.499  -3.742  0.00  0.00    -0.278 OA
ATOM      3  N   UNL     1       4.074   7.109  -3.142  0.00  0.00    -0.281 N 
ATOM      4  H   UNL     1       4.516   7.712  -2.335  0.00  0.00    +0.155 HD
ENDROOT
BRANCH   3   5
ATOM      5  C   UNL     1       4.462   7.320  -4.458  0.00  0.00    +0.090 A 
ATOM      6  C   UNL     1       5.375   8.237  -4.950  0.00  0.00    +0.084 A 
ATOM      7  C   UNL     1       5.612   8.255  -6.387  0.00  0.00    -0.018 A 
ATOM      8  C   UNL     1       4.884   7.363  -7.095  0.00  0.00    -0.004 A 
ATOM      9  S   UNL     1       3.914   6.505  -5.885  0.00  0.00    -0.077 S 
ATOM     10  C   UNL     1       4.882   7.155  -8.577  0.00  0.00    +0.043 C 
ATOM     11  C   UNL     1       6.330   7.044  -9.075  0.00  0.00    +0.005 C 
ATOM     12  C   UNL     1       6.830   8.443  -9.419  0.00  0.00    +0.001 C 
ATOM     13  C   UNL     1       6.197   9.473  -8.486  0.00  0.00    +0.005 C 
ATOM     14  C   UNL     1       6.607   9.205  -7.042  0.00  0.00    +0.037 C 
BRANCH   6  15
ATOM     15  C   UNL     1       6.066   9.136  -4.075  0.00  0.00    +0.102 C 
ATOM     16  N   UNL     1       6.614   9.849  -3.381  0.00  0.00    -0.191 NA
ENDBRANCH   6  15
ENDBRANCH   3   5
BRANCH   1  17
ATOM     17  C   UNL     1       2.737   5.935  -1.424  0.00  0.00    +0.019 C 
BRANCH  17  18
ATOM     18  N   UNL     1       1.735   4.862  -1.374  0.00  0.00    +0.388 N 
ATOM     19  C   UNL     1       0.493   5.270  -2.043  0.00  0.00    -0.095 C 
ATOM     20  H   UNL     1       2.142   3.995  -1.916  0.00  0.00    -0.081 HD
BRANCH  18  21
ATOM     21  C   UNL     1       1.476   4.447   0.011  0.00  0.00    -0.003 C 
BRANCH  21  26
ATOM     22  C   UNL     1      -2.533   1.387   0.021  0.00  0.00    +0.086 C 
ATOM     23  C   UNL     1      -1.103   1.863   0.017  0.00  0.00    +0.102 A 
ATOM     24  C   UNL     1      -0.013   1.076   0.008  0.00  0.00    +0.044 A 
ATOM     25  C   UNL     1       1.111   1.934   0.002  0.00  0.00    +0.043 A 
ATOM     26  C   UNL     1       0.640   3.193   0.012  0.00  0.00    +0.089 A 
ATOM     27  O   UNL     1      -0.702   3.144   0.024  0.00  0.00    -0.467 OA
ENDBRANCH  21  26
ENDBRANCH  18  21
ENDBRANCH  17  18
ENDBRANCH   1  17
TORSDOF 6
