REMARK  Name = ZINC64904920
REMARK  6 active torsions:
REMARK  status: ('A' for Active; 'I' for Inactive)
REMARK    1  A    between atoms: C_1  and  C_2
REMARK    2  A    between atoms: C_2  and  C_3
REMARK    3  A    between atoms: C_3  and  C_4
REMARK    4  A    between atoms: C_6  and  S_13
REMARK    5  A    between atoms: S_13  and  C_14
REMARK    6  A    between atoms: N_23  and  C_24
REMARK                            x       y       z     vdW  Elec       q    Type
REMARK                         _______ _______ _______ _____ _____    ______ ____
ROOT
ATOM      1  C   UNL     1       0.862  -2.017   1.177  0.00  0.00    +0.048 A 
ATOM      2  C   UNL     1       1.482  -2.708   2.215  0.00  0.00    +0.058 A 
ATOM      3  C   UNL     1       1.393  -4.086   2.251  0.00  0.00    +0.111 A 
ATOM      4  N   UNL     1       0.697  -4.723   1.264  0.00  0.00    -0.190 N 
ATOM      5  C   UNL     1       0.104  -4.003   0.265  0.00  0.00    +0.254 A 
ATOM      6  N   UNL     1       0.195  -2.668   0.247  0.00  0.00    -0.216 NA
ATOM      7  N   UNL     1      -0.494  -4.871  -0.543  0.00  0.00    -0.197 NA
ATOM      8  C   UNL     1      -0.303  -6.106  -0.095  0.00  0.00    +0.247 A 
ATOM      9  N   UNL     1       0.415  -6.070   1.001  0.00  0.00    -0.151 NA
ENDROOT
BRANCH   1  10
ATOM     10  C   UNL     1       0.949  -0.513   1.122  0.00  0.00    +0.055 C 
BRANCH  10  12
ATOM     11  C   UNL     1       0.273   1.523  -0.158  0.00  0.00    +0.004 C 
ATOM     12  C   UNL     1       0.184  -0.003  -0.102  0.00  0.00    +0.003 C 
ENDBRANCH  10  12
ENDBRANCH   1  10
BRANCH   3  13
ATOM     13  S   UNL     1       2.162  -5.003   3.543  0.00  0.00    -0.032 S 
BRANCH  13  14
ATOM     14  C   UNL     1       3.412  -5.933   2.721  0.00  0.00    +0.179 A 
ATOM     15  N   UNL     1       3.628  -5.737   1.437  0.00  0.00    -0.215 NA
ATOM     16  C   UNL     1       4.563  -6.423   0.791  0.00  0.00    +0.116 A 
ATOM     17  C   UNL     1       5.364  -7.385   1.435  0.00  0.00    +0.072 A 
ATOM     18  C   UNL     1       6.338  -8.042   0.582  0.00  0.00    +0.023 A 
ATOM     19  C   UNL     1       6.408  -7.704  -0.714  0.00  0.00    +0.048 A 
ATOM     20  S   UNL     1       5.148  -6.454  -0.884  0.00  0.00    -0.077 S 
ATOM     21  C   UNL     1       5.105  -7.576   2.829  0.00  0.00    +0.263 A 
ATOM     22  O   UNL     1       5.750  -8.388   3.471  0.00  0.00    -0.267 OA
ATOM     23  N   UNL     1       4.146  -6.843   3.424  0.00  0.00    -0.290 N 
ATOM     24  C   UNL     1       3.881  -7.030   4.853  0.00  0.00    +0.154 C 
ENDBRANCH  13  14
ENDBRANCH   3  13
TORSDOF 4
