REMARK  Name = ZINC05360203
REMARK  12 active torsions:
REMARK  status: ('A' for Active; 'I' for Inactive)
REMARK    1  A    between atoms: C_1  and  C_2
REMARK    2  A    between atoms: C_7  and  O_8
REMARK    3  A    between atoms: O_8  and  C_9
REMARK    4  A    between atoms: C_9  and  C_10
REMARK    5  A    between atoms: C_10  and  C_12
REMARK    6  A    between atoms: C_10  and  O_36
REMARK    7  A    between atoms: C_12  and  N_13
REMARK    8  A    between atoms: N_18  and  N_19
REMARK    9  A    between atoms: C_20  and  C_21
REMARK   10  A    between atoms: C_26  and  O_27
REMARK   11  A    between atoms: N_28  and  C_35
REMARK   12  A    between atoms: N_31  and  C_34
REMARK                            x       y       z     vdW  Elec       q    Type
REMARK                         _______ _______ _______ _____ _____    ______ ____
ROOT
ATOM      1  N   UNL     1       4.675   8.131   0.001  0.00  0.00    -0.302 N 
ATOM      2  C   UNL     1       4.212   9.439   0.012  0.00  0.00    +0.153 A 
ATOM      3  C   UNL     1       2.823   9.363   0.024  0.00  0.00    +0.170 A 
ATOM      4  N   UNL     1       2.490   8.071   0.015  0.00  0.00    -0.195 NA
ATOM      5  C   UNL     1       3.578   7.327   0.007  0.00  0.00    +0.218 A 
ATOM      6  N   UNL     1       3.600   5.951  -0.000  0.00  0.00    -0.206 N 
ATOM      7  N   UNL     1       2.089  10.539   0.036  0.00  0.00    -0.280 N 
ATOM      8  C   UNL     1       2.721  11.727   0.038  0.00  0.00    +0.333 A 
ATOM      9  O   UNL     1       2.062  12.749   0.049  0.00  0.00    -0.246 OA
ATOM     10  N   UNL     1       4.063  11.812   0.026  0.00  0.00    -0.262 N 
ATOM     11  C   UNL     1       4.830  10.703   0.013  0.00  0.00    +0.282 A 
ATOM     12  O   UNL     1       6.045  10.794   0.003  0.00  0.00    -0.265 OA
ATOM     13  C   UNL     1       4.702  13.131   0.028  0.00  0.00    +0.157 C 
ATOM     14  C   UNL     1       0.625  10.488   0.048  0.00  0.00    +0.155 C 
ATOM     15  H   UNL     1       4.448   5.480  -0.010  0.00  0.00    +0.177 HD
ENDROOT
BRANCH   6  16
ATOM     16  N   UNL     1       2.399   5.231   0.007  0.00  0.00    -0.187 NA
ATOM     17  C   UNL     1       2.420   3.933   0.000  0.00  0.00    +0.142 C 
BRANCH  17  18
ATOM     18  C   UNL     1       1.156   3.175   0.008  0.00  0.00    +0.036 A 
ATOM     19  C   UNL     1       1.174   1.779   0.000  0.00  0.00    +0.013 A 
ATOM     20  C   UNL     1      -0.013   1.076   0.008  0.00  0.00    +0.001 A 
ATOM     21  C   UNL     1      -1.222   1.749   0.017  0.00  0.00    +0.004 A 
ATOM     22  C   UNL     1      -1.254   3.131   0.030  0.00  0.00    +0.046 A 
ATOM     23  C   UNL     1      -0.071   3.852   0.022  0.00  0.00    +0.125 A 
BRANCH  23  24
ATOM     24  O   UNL     1      -0.101   5.210   0.030  0.00  0.00    -0.506 OA
ATOM     25  H   UNL     1      -0.118   5.608  -0.851  0.00  0.00    +0.292 HD
ENDBRANCH  23  24
ENDBRANCH  17  18
ENDBRANCH   6  16
BRANCH   1  26
ATOM     26  C   UNL     1       6.075   7.700  -0.014  0.00  0.00    +0.160 C 
BRANCH  26  27
ATOM     27  C   UNL     1       6.549   7.558  -1.462  0.00  0.00    +0.172 C 
BRANCH  27  28
ATOM     28  O   UNL     1       6.541   8.839  -2.095  0.00  0.00    -0.387 OA
ATOM     29  H   UNL     1       7.115   9.491  -1.669  0.00  0.00    +0.210 HD
ENDBRANCH  27  28
BRANCH  27  30
ATOM     30  C   UNL     1       7.969   6.989  -1.480  0.00  0.00    +0.262 C 
BRANCH  30  31
ATOM     31  O   UNL     1       8.368   6.746  -2.831  0.00  0.00    -0.489 OA
BRANCH  31  38
ATOM     32  C   UNL     1       9.176   6.261  -5.494  0.00  0.00    +0.047 C 
ATOM     33  C   UNL     1      10.065   5.977  -4.310  0.00  0.00    -0.009 A 
ATOM     34  C   UNL     1      11.331   5.459  -4.505  0.00  0.00    +0.007 A 
ATOM     35  C   UNL     1      12.147   5.200  -3.419  0.00  0.00    +0.000 A 
ATOM     36  C   UNL     1      11.699   5.458  -2.137  0.00  0.00    +0.004 A 
ATOM     37  C   UNL     1      10.436   5.981  -1.938  0.00  0.00    +0.046 A 
ATOM     38  C   UNL     1       9.613   6.237  -3.025  0.00  0.00    +0.124 A 
ENDBRANCH  31  38
ENDBRANCH  30  31
ENDBRANCH  27  30
ENDBRANCH  26  27
ENDBRANCH   1  26
TORSDOF 9
