REMARK  Name = ZINC09481250
REMARK  7 active torsions:
REMARK  status: ('A' for Active; 'I' for Inactive)
REMARK    1  A    between atoms: C_1  and  C_2
REMARK    2  A    between atoms: N_5  and  C_7
REMARK    3  A    between atoms: C_15  and  O_28
REMARK    4  A    between atoms: C_17  and  C_19
REMARK    5  A    between atoms: C_22  and  O_27
REMARK    6  A    between atoms: C_23  and  O_25
REMARK    7  A    between atoms: O_25  and  C_26
REMARK                            x       y       z     vdW  Elec       q    Type
REMARK                         _______ _______ _______ _____ _____    ______ ____
ROOT
ATOM      1  C   UNL     1      -0.018   1.503   0.010  0.00  0.00    +0.068 C 
ATOM      2  C   UNL     1       0.002  -0.004   0.002  0.00  0.00    +0.066 A 
ATOM      3  C   UNL     1       0.008  -0.806  -1.124  0.00  0.00    +0.027 A 
ATOM      4  C   UNL     1       0.032  -2.130  -0.705  0.00  0.00    +0.164 A 
ATOM      5  N   UNL     1       0.034  -2.120   0.648  0.00  0.00    -0.213 N 
ATOM      6  N   UNL     1       0.023  -0.778   1.064  0.00  0.00    -0.169 NA
ATOM      7  N   UNL     1       0.057  -3.160  -1.598  0.00  0.00    -0.197 NA
ATOM      8  C   UNL     1       0.344  -2.913  -2.841  0.00  0.00    +0.190 C 
ATOM      9  C   UNL     1       0.716  -1.552  -3.353  0.00  0.00    +0.108 C 
ATOM     10  C   UNL     1      -0.011  -0.442  -2.587  0.00  0.00    +0.063 C 
ENDROOT
BRANCH   5  11
ATOM     11  C   UNL     1       0.049  -3.244   1.483  0.00  0.00    +0.086 A 
ATOM     12  C   UNL     1       0.069  -4.519   0.933  0.00  0.00    +0.029 A 
ATOM     13  C   UNL     1       0.084  -5.626   1.759  0.00  0.00    +0.002 A 
ATOM     14  C   UNL     1       0.078  -5.466   3.133  0.00  0.00    +0.002 A 
ATOM     15  C   UNL     1       0.058  -4.199   3.685  0.00  0.00    +0.022 A 
ATOM     16  C   UNL     1       0.049  -3.087   2.864  0.00  0.00    +0.066 A 
ATOM     17 CL   UNL     1       0.032  -1.495   3.557  0.00  0.00    -0.081 Cl
ENDBRANCH   5  11
BRANCH  10  18
ATOM     18  C   UNL     1       0.697   0.872  -2.796  0.00  0.00    -0.036 A 
ATOM     19  C   UNL     1       2.029   1.000  -2.446  0.00  0.00    +0.008 A 
ATOM     20  C   UNL     1       2.683   2.203  -2.636  0.00  0.00    +0.049 A 
ATOM     21  C   UNL     1       2.005   3.283  -3.178  0.00  0.00    +0.158 A 
ATOM     22  C   UNL     1       0.665   3.154  -3.530  0.00  0.00    +0.162 A 
ATOM     23  C   UNL     1       0.016   1.944  -3.341  0.00  0.00    +0.053 A 
BRANCH  22  24
ATOM     24  O   UNL     1      -0.005   4.211  -4.062  0.00  0.00    -0.491 OA
ATOM     25  C   UNL     1      -1.378   4.005  -4.399  0.00  0.00    +0.277 C 
ENDBRANCH  22  24
BRANCH  21  26
ATOM     26  O   UNL     1       2.648   4.467  -3.364  0.00  0.00    -0.503 OA
ATOM     27  H   UNL     1       3.072   4.552  -4.229  0.00  0.00    +0.292 HD
ENDBRANCH  21  26
ENDBRANCH  10  18
BRANCH   8  28
ATOM     28  O   UNL     1       0.306  -3.936  -3.719  0.00  0.00    -0.495 OA
ATOM     29  H   UNL     1       0.060  -4.784  -3.325  0.00  0.00    +0.293 HD
ENDBRANCH   8  28
TORSDOF 5
