REMARK  Name = ZINC36145694
REMARK  13 active torsions:
REMARK  status: ('A' for Active; 'I' for Inactive)
REMARK    1  A    between atoms: C_1  and  C_2
REMARK    2  A    between atoms: C_2  and  C_3
REMARK    3  A    between atoms: C_2  and  O_4
REMARK    4  A    between atoms: O_4  and  C_5
REMARK    5  A    between atoms: C_5  and  C_6
REMARK    6  A    between atoms: C_6  and  C_8
REMARK    7  A    between atoms: C_6  and  O_31
REMARK    8  A    between atoms: C_8  and  N_9
REMARK    9  A    between atoms: N_9  and  C_10
REMARK   10  A    between atoms: C_13  and  N_16
REMARK   11  A    between atoms: C_17  and  C_23
REMARK   12  A    between atoms: C_19  and  O_21
REMARK   13  A    between atoms: O_21  and  C_22
REMARK                            x       y       z     vdW  Elec       q    Type
REMARK                         _______ _______ _______ _____ _____    ______ ____
ROOT
ATOM      1  C   UNL     1      -5.521  -5.353  -1.320  0.00  0.00    +0.027 A 
ATOM      2  C   UNL     1      -4.507  -5.925  -2.079  0.00  0.00    +0.025 A 
ATOM      3  C   UNL     1      -4.797  -6.949  -2.958  0.00  0.00    +0.029 A 
ATOM      4  C   UNL     1      -6.102  -7.408  -3.083  0.00  0.00    +0.068 A 
ATOM      5  C   UNL     1      -7.115  -6.837  -2.324  0.00  0.00    +0.029 A 
ATOM      6  C   UNL     1      -6.825  -5.816  -1.441  0.00  0.00    +0.025 A 
ENDROOT
BRANCH   4   7
ATOM      7  N   UNL     1      -6.396  -8.447  -3.975  0.00  0.00    -0.209 N 
ATOM      8  C   UNL     1      -7.447  -8.511  -4.836  0.00  0.00    +0.167 A 
ATOM      9  N   UNL     1      -7.359  -9.651  -5.494  0.00  0.00    -0.174 NA
ATOM     10  C   UNL     1      -6.285 -10.325  -5.086  0.00  0.00    +0.337 A 
ATOM     11  N   UNL     1      -5.662  -9.629  -4.165  0.00  0.00    -0.108 NA
BRANCH   8  12
ATOM     12  C   UNL     1      -8.500  -7.487  -5.004  0.00  0.00    +0.021 A 
ATOM     13  C   UNL     1      -8.202  -6.137  -4.810  0.00  0.00    +0.013 A 
ATOM     14  C   UNL     1      -9.187  -5.185  -4.968  0.00  0.00    +0.022 A 
ATOM     15  C   UNL     1     -10.472  -5.566  -5.318  0.00  0.00    +0.059 A 
ATOM     16  C   UNL     1     -10.775  -6.904  -5.512  0.00  0.00    +0.060 A 
ATOM     17  C   UNL     1      -9.795  -7.865  -5.362  0.00  0.00    +0.033 A 
ATOM     18 CL   UNL     1     -12.388  -7.373  -5.950  0.00  0.00    -0.082 Cl
ATOM     19 CL   UNL     1     -11.707  -4.362  -5.515  0.00  0.00    -0.082 Cl
ENDBRANCH   8  12
BRANCH  10  20
ATOM     20  O   UNL     1      -5.893 -11.539  -5.554  0.00  0.00    -0.465 OA
ATOM     21  C   UNL     1      -6.704 -12.136  -6.568  0.00  0.00    +0.280 C 
ENDBRANCH  10  20
ENDBRANCH   4   7
BRANCH   1  22
ATOM     22  N   UNL     1      -5.227  -4.316  -0.429  0.00  0.00    -0.341 N 
ATOM     23  H   UNL     1      -5.934  -3.920   0.103  0.00  0.00    +0.146 HD
BRANCH  22  24
ATOM     24  C   UNL     1      -3.852  -3.828  -0.301  0.00  0.00    +0.135 C 
BRANCH  24  25
ATOM     25  C   UNL     1      -3.805  -2.700   0.731  0.00  0.00    +0.157 C 
BRANCH  25  26
ATOM     26  O   UNL     1      -4.143  -3.219   2.019  0.00  0.00    -0.388 OA
ATOM     27  H   UNL     1      -3.550  -3.916   2.331  0.00  0.00    +0.210 HD
ENDBRANCH  25  26
BRANCH  25  28
ATOM     28  C   UNL     1      -2.395  -2.107   0.775  0.00  0.00    +0.193 C 
BRANCH  28  29
ATOM     29  O   UNL     1      -2.380  -0.979   1.653  0.00  0.00    -0.375 OA
BRANCH  29  31
ATOM     30  C   UNL     1      -1.295   1.144   2.049  0.00  0.00    +0.037 C 
ATOM     31  C   UNL     1      -1.103  -0.347   1.766  0.00  0.00    +0.112 C 
ATOM     32  C   UNL     1      -0.317  -0.987   2.912  0.00  0.00    +0.037 C 
ENDBRANCH  29  31
ENDBRANCH  28  29
ENDBRANCH  25  28
ENDBRANCH  24  25
ENDBRANCH  22  24
ENDBRANCH   1  22
TORSDOF 10
