REMARK  Name = ZINC63993726
REMARK  11 active torsions:
REMARK  status: ('A' for Active; 'I' for Inactive)
REMARK    1  A    between atoms: C_1  and  C_2
REMARK    2  A    between atoms: C_2  and  C_3
REMARK    3  A    between atoms: C_2  and  C_4
REMARK    4  A    between atoms: C_4  and  N_5
REMARK    5  A    between atoms: N_11  and  C_14
REMARK    6  A    between atoms: C_14  and  C_15
REMARK    7  A    between atoms: N_25  and  C_28
REMARK    8  A    between atoms: C_28  and  C_29
REMARK    9  A    between atoms: C_29  and  C_30
REMARK   10  A    between atoms: C_33  and  O_36
REMARK   11  A    between atoms: O_36  and  C_37
REMARK                            x       y       z     vdW  Elec       q    Type
REMARK                         _______ _______ _______ _____ _____    ______ ____
ROOT
ATOM      1  N   UNL     1      -1.514  -2.143  -0.401  0.00  0.00    -0.224 N 
ATOM      2  C   UNL     1      -1.760  -2.903  -1.489  0.00  0.00    +0.247 C 
ATOM      3  O   UNL     1      -1.961  -2.519  -2.622  0.00  0.00    -0.273 OA
ATOM      4  C   UNL     1      -1.733  -4.331  -0.998  0.00  0.00    +0.112 C 
ATOM      5  C   UNL     1      -0.628  -5.116  -1.698  0.00  0.00    +0.017 C 
ATOM      6  C   UNL     1      -0.655  -6.569  -1.215  0.00  0.00    -0.076 C 
ATOM      7  N   UNL     1      -1.966  -7.160  -1.510  0.00  0.00    +0.381 N 
ATOM      8  C   UNL     1      -3.013  -6.457  -0.759  0.00  0.00    -0.076 C 
ATOM      9  C   UNL     1      -3.086  -5.000  -1.223  0.00  0.00    +0.017 C 
ATOM     10  N   UNL     1      -1.450  -4.211   0.437  0.00  0.00    -0.271 N 
ATOM     11  C   UNL     1      -1.333  -2.894   0.693  0.00  0.00    +0.312 C 
ATOM     12  O   UNL     1      -1.093  -2.438   1.794  0.00  0.00    -0.252 OA
ATOM     13  H   UNL     1      -2.153  -7.083  -2.499  0.00  0.00    -0.082 HD
ENDROOT
BRANCH   1  14
ATOM     14  C   UNL     1      -1.448  -0.680  -0.416  0.00  0.00    +0.121 C 
BRANCH  14  16
ATOM     15  C   UNL     1       0.036   1.285  -0.840  0.00  0.00    +0.009 C 
ATOM     16  C   UNL     1      -0.011  -0.238  -0.701  0.00  0.00    +0.001 C 
ATOM     17  C   UNL     1       0.895  -0.673   0.453  0.00  0.00    +0.009 C 
ENDBRANCH  14  16
ENDBRANCH   1  14
BRANCH   7  18
ATOM     18  C   UNL     1      -1.958  -8.578  -1.126  0.00  0.00    -0.050 C 
BRANCH  18  19
ATOM     19  C   UNL     1      -3.279  -9.227  -1.547  0.00  0.00    +0.086 C 
ATOM     20  C   UNL     1      -3.218 -10.722  -1.325  0.00  0.00    +0.005 C 
ATOM     21  C   UNL     1      -3.390 -11.288  -2.542  0.00  0.00    -0.004 A 
ATOM     22  C   UNL     1      -3.432 -12.685  -2.991  0.00  0.00    +0.010 A 
ATOM     23  C   UNL     1      -3.623 -12.946  -4.304  0.00  0.00    +0.001 A 
ATOM     24  C   UNL     1      -3.783 -11.918  -5.244  0.00  0.00    +0.002 A 
ATOM     25  C   UNL     1      -3.756 -10.611  -4.908  0.00  0.00    +0.026 A 
ATOM     26  C   UNL     1      -3.561 -10.222  -3.554  0.00  0.00    +0.043 A 
ATOM     27  N   UNL     1      -3.498  -9.040  -2.985  0.00  0.00    -0.380 N 
ATOM     28  H   UNL     1      -3.582  -8.187  -3.439  0.00  0.00    +0.160 HD
ENDBRANCH  18  19
ENDBRANCH   7  18
BRANCH  10  29
ATOM     29  C   UNL     1      -1.316  -5.307   1.400  0.00  0.00    +0.115 C 
BRANCH  29  30
ATOM     30  C   UNL     1      -2.466  -5.243   2.408  0.00  0.00    +0.054 C 
BRANCH  30  31
ATOM     31  C   UNL     1      -2.347  -6.390   3.379  0.00  0.00    -0.046 A 
ATOM     32  C   UNL     1      -2.959  -7.598   3.099  0.00  0.00    +0.007 A 
ATOM     33  C   UNL     1      -2.852  -8.650   3.987  0.00  0.00    +0.046 A 
ATOM     34  C   UNL     1      -2.129  -8.495   5.161  0.00  0.00    +0.120 A 
ATOM     35  C   UNL     1      -1.515  -7.282   5.439  0.00  0.00    +0.046 A 
ATOM     36  C   UNL     1      -1.621  -6.234   4.545  0.00  0.00    +0.007 A 
BRANCH  34  37
ATOM     37  O   UNL     1      -2.022  -9.529   6.036  0.00  0.00    -0.495 OA
ATOM     38  C   UNL     1      -1.263  -9.297   7.224  0.00  0.00    +0.277 C 
ENDBRANCH  34  37
ENDBRANCH  30  31
ENDBRANCH  29  30
ENDBRANCH  10  29
TORSDOF 8
