REMARK  Name = ZINC15222506
REMARK  4 active torsions:
REMARK  status: ('A' for Active; 'I' for Inactive)
REMARK    1  A    between atoms: C_4  and  N_7
REMARK    2  A    between atoms: N_7  and  C_8
REMARK    3  A    between atoms: C_13  and  C_14
REMARK    4  A    between atoms: C_17  and  O_20
REMARK                            x       y       z     vdW  Elec       q    Type
REMARK                         _______ _______ _______ _____ _____    ______ ____
ROOT
ATOM      1  C   UNL     1       3.498  -2.108   1.063  0.00  0.00    +0.175 C 
ATOM      2  N   UNL     1       2.508  -2.961   0.854  0.00  0.00    -0.152 NA
ATOM      3  C   UNL     1       2.715  -4.237   0.614  0.00  0.00    +0.276 C 
ATOM      4  O   UNL     1       1.793  -5.014   0.422  0.00  0.00    -0.267 OA
ATOM      5  C   UNL     1       4.128  -4.680   0.588  0.00  0.00    +0.079 C 
ATOM      6  C   UNL     1       4.649  -5.914   0.369  0.00  0.00    +0.028 C 
ATOM      7  S   UNL     1       4.956  -3.129   0.918  0.00  0.00    -0.050 S 
ENDROOT
BRANCH   6   8
ATOM      8  C   UNL     1       6.087  -6.148   0.554  0.00  0.00    -0.024 A 
ATOM      9  C   UNL     1       6.660  -7.360   0.149  0.00  0.00    +0.011 A 
ATOM     10  C   UNL     1       8.008  -7.574   0.325  0.00  0.00    +0.046 A 
ATOM     11  C   UNL     1       8.801  -6.589   0.904  0.00  0.00    +0.117 A 
ATOM     12  C   UNL     1       8.237  -5.384   1.308  0.00  0.00    +0.046 A 
ATOM     13  C   UNL     1       6.891  -5.157   1.131  0.00  0.00    +0.011 A 
BRANCH  11  14
ATOM     14  O   UNL     1      10.130  -6.805   1.076  0.00  0.00    -0.507 OA
ATOM     15  H   UNL     1      10.674  -6.526   0.326  0.00  0.00    +0.292 HD
ENDBRANCH  11  14
ENDBRANCH   6   8
BRANCH   1  16
ATOM     16  N   UNL     1       3.423  -0.764   1.322  0.00  0.00    -0.192 NA
BRANCH  16  20
ATOM     17  C   UNL     1      -0.250   0.981   2.224  0.00  0.00    +0.000 A 
ATOM     18  C   UNL     1      -0.050  -0.366   2.461  0.00  0.00    +0.002 A 
ATOM     19  C   UNL     1       1.167  -0.948   2.163  0.00  0.00    +0.025 A 
ATOM     20  C   UNL     1       2.190  -0.178   1.624  0.00  0.00    +0.056 A 
ATOM     21  C   UNL     1       1.986   1.175   1.387  0.00  0.00    +0.025 A 
ATOM     22  C   UNL     1       0.767   1.751   1.688  0.00  0.00    +0.002 A 
ENDBRANCH  16  20
ENDBRANCH   1  16
TORSDOF 4
