REMARK  Name = ZINC08746295
REMARK  4 active torsions:
REMARK  status: ('A' for Active; 'I' for Inactive)
REMARK    1  A    between atoms: C_1  and  C_2
REMARK    2  A    between atoms: C_3  and  C_10
REMARK    3  A    between atoms: C_10  and  C_12
REMARK    4  A    between atoms: C_13  and  C_14
REMARK                            x       y       z     vdW  Elec       q    Type
REMARK                         _______ _______ _______ _____ _____    ______ ____
ROOT
ATOM      1  C   UNL     1       4.807   4.223  -0.117  0.00  0.00    +0.068 C 
ATOM      2  C   UNL     1       5.127   5.695  -0.055  0.00  0.00    +0.069 A 
ATOM      3  C   UNL     1       4.209   6.723  -0.001  0.00  0.00    +0.116 A 
ATOM      4  N   UNL     1       4.938   7.922   0.050  0.00  0.00    -0.290 N 
ATOM      5  C   UNL     1       4.687   9.272   0.119  0.00  0.00    +0.101 A 
ATOM      6  C   UNL     1       5.688  10.152   0.152  0.00  0.00    +0.067 A 
ATOM      7  S   UNL     1       7.117   9.083   0.086  0.00  0.00    -0.058 S 
ATOM      8  C   UNL     1       6.248   7.533   0.019  0.00  0.00    +0.178 A 
ATOM      9  N   UNL     1       6.343   6.229  -0.045  0.00  0.00    -0.226 NA
ENDROOT
BRANCH   3  10
ATOM     10  C   UNL     1       2.752   6.589   0.007  0.00  0.00    +0.204 C 
ATOM     11  O   UNL     1       2.147   6.571   1.067  0.00  0.00    -0.286 OA
BRANCH  10  12
ATOM     12  C   UNL     1       2.044   6.481  -1.216  0.00  0.00    +0.054 C 
ATOM     13  C   UNL     1       0.707   6.252  -1.207  0.00  0.00    +0.019 C 
BRANCH  13  14
ATOM     14  C   UNL     1      -0.001   6.144  -2.429  0.00  0.00    +0.012 A 
ATOM     15  C   UNL     1      -1.355   5.914  -2.639  0.00  0.00    +0.015 A 
ATOM     16  C   UNL     1      -1.783   5.860  -3.942  0.00  0.00    +0.008 A 
ATOM     17  C   UNL     1      -0.880   6.019  -4.945  0.00  0.00    +0.046 A 
ATOM     18  S   UNL     1       0.613   6.266  -4.099  0.00  0.00    -0.097 S 
ENDBRANCH  13  14
ENDBRANCH  10  12
ENDBRANCH   3  10
TORSDOF 3
