REMARK  Name = ZINC36396511
REMARK  12 active torsions:
REMARK  status: ('A' for Active; 'I' for Inactive)
REMARK    1  A    between atoms: C_1  and  C_2
REMARK    2  A    between atoms: C_7  and  N_12
REMARK    3  A    between atoms: C_9  and  C_11
REMARK    4  A    between atoms: C_16  and  C_18
REMARK    5  A    between atoms: C_18  and  O_19
REMARK    6  A    between atoms: O_19  and  C_20
REMARK    7  A    between atoms: C_20  and  C_22
REMARK    8  A    between atoms: C_22  and  C_24
REMARK    9  A    between atoms: C_22  and  N_28
REMARK   10  A    between atoms: C_24  and  C_25
REMARK   11  A    between atoms: C_25  and  S_26
REMARK   12  A    between atoms: S_26  and  C_27
REMARK                            x       y       z     vdW  Elec       q    Type
REMARK                         _______ _______ _______ _____ _____    ______ ____
ROOT
ATOM      1  O   UNL     1       1.651   0.762   9.432  0.00  0.00    -0.454 OA
ENDROOT
BRANCH   1   2
ATOM      2  C   UNL     1       2.231   0.456  10.604  0.00  0.00    +0.329 C 
ATOM      3  O   UNL     1       2.937  -0.521  10.691  0.00  0.00    -0.249 OA
BRANCH   2   4
ATOM      4  C   UNL     1       2.000   1.329  11.810  0.00  0.00    +0.194 C 
BRANCH   4   5
ATOM      5  N   UNL     1       2.736   0.786  12.954  0.00  0.00    -0.220 N 
ATOM      6  C   UNL     1       2.546  -0.443  13.467  0.00  0.00    +0.255 C 
ATOM      7  O   UNL     1       1.751  -1.266  13.060  0.00  0.00    -0.270 OA
ATOM      8  C   UNL     1       3.469  -0.625  14.607  0.00  0.00    +0.049 A 
ATOM      9  C   UNL     1       3.718  -1.660  15.495  0.00  0.00    +0.014 A 
ATOM     10  C   UNL     1       4.681  -1.503  16.480  0.00  0.00    +0.001 A 
ATOM     11  C   UNL     1       5.393  -0.323  16.582  0.00  0.00    +0.001 A 
ATOM     12  C   UNL     1       5.155   0.720  15.701  0.00  0.00    +0.014 A 
ATOM     13  C   UNL     1       4.196   0.578  14.711  0.00  0.00    +0.049 A 
ATOM     14  C   UNL     1       3.693   1.449  13.628  0.00  0.00    +0.255 C 
ATOM     15  O   UNL     1       4.079   2.575  13.387  0.00  0.00    -0.270 OA
ENDBRANCH   4   5
BRANCH   4  16
ATOM     16  C   UNL     1       0.505   1.366  12.135  0.00  0.00    +0.045 C 
BRANCH  16  17
ATOM     17  C   UNL     1       0.256   2.350  13.280  0.00  0.00    +0.071 C 
BRANCH  17  18
ATOM     18  S   UNL     1      -1.516   2.393  13.665  0.00  0.00    -0.164 S 
ATOM     19  C   UNL     1      -1.640   3.589  15.024  0.00  0.00    +0.084 C 
ENDBRANCH  17  18
ENDBRANCH  16  17
ENDBRANCH   4  16
ENDBRANCH   2   4
ENDBRANCH   1   2
BRANCH   1  20
ATOM     20  C   UNL     1       1.913  -0.110   8.331  0.00  0.00    +0.328 C 
BRANCH  20  25
ATOM     21  N   UNL     1       0.735  -0.503   3.687  0.00  0.00    -0.296 N 
ATOM     22  C   UNL     1       0.634   0.166   4.853  0.00  0.00    +0.306 C 
ATOM     23  O   UNL     1      -0.045   1.172   4.919  0.00  0.00    -0.252 OA
ATOM     24  N   UNL     1       1.286  -0.280   5.945  0.00  0.00    -0.237 N 
ATOM     25  C   UNL     1       1.185   0.389   7.110  0.00  0.00    +0.258 C 
ATOM     26  O   UNL     1       0.508   1.392   7.177  0.00  0.00    -0.272 OA
ATOM     27  H   UNL     1       1.276  -1.306   3.634  0.00  0.00    +0.151 HD
ATOM     28  H   UNL     1       1.827  -1.083   5.892  0.00  0.00    +0.159 HD
BRANCH  21  34
ATOM     29  C   UNL     1      -0.019   1.526   0.010  0.00  0.00    +0.008 C 
ATOM     30  C   UNL     1       0.002  -0.004   0.002  0.00  0.00    -0.009 C 
ATOM     31  C   UNL     1      -1.433  -0.534   0.013  0.00  0.00    +0.003 C 
ATOM     32  C   UNL     1      -2.149  -0.040   1.272  0.00  0.00    +0.002 C 
ATOM     33  C   UNL     1      -1.409  -0.547   2.511  0.00  0.00    +0.022 C 
ATOM     34  C   UNL     1       0.026  -0.018   2.500  0.00  0.00    +0.078 C 
ATOM     35  C   UNL     1       0.742  -0.511   1.242  0.00  0.00    +0.009 C 
ATOM     36  C   UNL     1       2.178   0.019   1.231  0.00  0.00    +0.009 C 
ENDBRANCH  21  34
ENDBRANCH  20  25
ENDBRANCH   1  20
TORSDOF 9
