REMARK  Name = ZINC09189658
REMARK  3 active torsions:
REMARK  status: ('A' for Active; 'I' for Inactive)
REMARK    1  A    between atoms: N_10  and  C_11
REMARK    2  A    between atoms: C_11  and  C_13
REMARK    3  A    between atoms: C_14  and  N_22
REMARK                            x       y       z     vdW  Elec       q    Type
REMARK                         _______ _______ _______ _____ _____    ______ ____
ROOT
ATOM      1  C   UNL     1       4.319  -4.212  -0.065  0.00  0.00    +0.278 C 
ATOM      2  O   UNL     1       5.168  -3.335  -0.068  0.00  0.00    -0.267 OA
ENDROOT
BRANCH   1  12
ATOM      3  C   UNL     1      -0.017   1.370   0.010  0.00  0.00    +0.002 A 
ATOM      4  C   UNL     1       1.157   2.104   0.002  0.00  0.00    +0.001 A 
ATOM      5  C   UNL     1       2.369   1.437  -0.013  0.00  0.00    +0.017 A 
ATOM      6  C   UNL     1       2.389   0.063  -0.021  0.00  0.00    +0.039 A 
ATOM      7  C   UNL     1       1.218  -0.709  -0.013  0.00  0.00    +0.055 A 
ATOM      8  C   UNL     1       0.002  -0.004   0.002  0.00  0.00    +0.027 A 
ATOM      9  N   UNL     1       1.396  -2.081  -0.023  0.00  0.00    -0.335 N 
ATOM     10  H   UNL     1       0.624  -2.669  -0.019  0.00  0.00    +0.168 HD
ATOM     11  C   UNL     1       2.653  -2.611  -0.039  0.00  0.00    +0.164 A 
ATOM     12  N   UNL     1       3.017  -3.886  -0.050  0.00  0.00    -0.152 NA
ATOM     13  S   UNL     1       3.683  -1.153  -0.040  0.00  0.00    -0.052 S 
ENDBRANCH   1  12
BRANCH   1  14
ATOM     14  C   UNL     1       4.721  -5.622  -0.077  0.00  0.00    +0.099 A 
ATOM     15  C   UNL     1       5.993  -6.145  -0.087  0.00  0.00    +0.053 A 
ATOM     16  C   UNL     1       6.146  -7.591  -0.098  0.00  0.00    +0.029 A 
ATOM     17  C   UNL     1       7.339  -8.356  -0.110  0.00  0.00    +0.014 A 
ATOM     18  C   UNL     1       7.252  -9.728  -0.120  0.00  0.00    +0.020 A 
ATOM     19  C   UNL     1       6.013 -10.352  -0.119  0.00  0.00    +0.112 A 
ATOM     20  N   UNL     1       4.905  -9.638  -0.108  0.00  0.00    -0.248 NA
ATOM     21  C   UNL     1       4.936  -8.322  -0.098  0.00  0.00    +0.111 A 
ATOM     22  S   UNL     1       3.680  -7.068  -0.074  0.00  0.00    -0.062 S 
BRANCH  15  23
ATOM     23  N   UNL     1       7.106  -5.311  -0.087  0.00  0.00    -0.356 N 
ATOM     24  H   UNL     1       6.990  -4.348  -0.079  0.00  0.00    +0.142 HD
ATOM     25  H   UNL     1       7.997  -5.693  -0.094  0.00  0.00    +0.142 HD
ENDBRANCH  15  23
ENDBRANCH   1  14
TORSDOF 3
