REMARK  Name = ZINC18152749
REMARK  7 active torsions:
REMARK  status: ('A' for Active; 'I' for Inactive)
REMARK    1  A    between atoms: C_1  and  C_2
REMARK    2  A    between atoms: C_2  and  C_36
REMARK    3  A    between atoms: N_5  and  C_9
REMARK    4  A    between atoms: C_9  and  C_10
REMARK    5  A    between atoms: N_25  and  C_28
REMARK    6  A    between atoms: C_31  and  O_34
REMARK    7  A    between atoms: O_34  and  C_35
REMARK                            x       y       z     vdW  Elec       q    Type
REMARK                         _______ _______ _______ _____ _____    ______ ____
ROOT
ATOM      1  C   UNL     1      -0.019   1.526   0.010  0.00  0.00    +0.017 C 
ATOM      2  C   UNL     1       0.002  -0.004   0.002  0.00  0.00    +0.012 C 
ATOM      3  C   UNL     1      -1.406  -0.528   0.037  0.00  0.00    +0.031 A 
ATOM      4  C   UNL     1      -1.915  -1.579   0.717  0.00  0.00    +0.091 A 
ATOM      5  N   UNL     1      -3.261  -1.785   0.547  0.00  0.00    -0.288 N 
ATOM      6  C   UNL     1      -3.968  -0.975  -0.265  0.00  0.00    +0.292 A 
ATOM      7  O   UNL     1      -5.157  -1.020  -0.528  0.00  0.00    -0.259 OA
ATOM      8  S   UNL     1      -2.815   0.113  -0.828  0.00  0.00    -0.030 S 
ATOM      9  S   UNL     1      -0.871  -2.608   1.740  0.00  0.00    -0.093 S 
ATOM     10  C   UNL     1       0.763  -2.065   1.176  0.00  0.00    +0.152 C 
ATOM     11  C   UNL     1       0.731  -0.508   1.223  0.00  0.00    +0.109 C 
ATOM     12  C   UNL     1       2.188  -0.209   1.379  0.00  0.00    +0.232 C 
ATOM     13  O   UNL     1       2.778   0.773   0.980  0.00  0.00    -0.274 OA
ATOM     14  N   UNL     1       2.718  -1.260   2.058  0.00  0.00    -0.209 N 
ATOM     15  C   UNL     1       1.886  -2.351   2.135  0.00  0.00    +0.240 C 
ATOM     16  O   UNL     1       2.014  -3.333   2.834  0.00  0.00    -0.274 OA
ATOM     17  C   UNL     1       0.709  -0.502  -1.260  0.00  0.00    +0.017 C 
ENDROOT
BRANCH  14  18
ATOM     18  C   UNL     1       4.006  -1.244   2.616  0.00  0.00    +0.044 A 
ATOM     19  C   UNL     1       4.803  -0.115   2.491  0.00  0.00    +0.027 A 
ATOM     20  C   UNL     1       6.069  -0.100   3.040  0.00  0.00    +0.047 A 
ATOM     21  C   UNL     1       6.546  -1.213   3.717  0.00  0.00    +0.120 A 
ATOM     22  C   UNL     1       5.750  -2.342   3.841  0.00  0.00    +0.047 A 
ATOM     23  C   UNL     1       4.480  -2.356   3.297  0.00  0.00    +0.027 A 
BRANCH  21  24
ATOM     24  O   UNL     1       7.793  -1.198   4.257  0.00  0.00    -0.495 OA
ATOM     25  C   UNL     1       8.219  -2.379   4.940  0.00  0.00    +0.277 C 
ENDBRANCH  21  24
ENDBRANCH  14  18
BRANCH   5  26
ATOM     26  C   UNL     1      -3.929  -2.885   1.246  0.00  0.00    +0.222 C 
BRANCH  26  27
ATOM     27  C   UNL     1      -4.428  -2.400   2.583  0.00  0.00    +0.235 C 
ATOM     28  O   UNL     1      -4.244  -1.249   2.918  0.00  0.00    -0.274 OA
ATOM     29  N   UNL     1      -5.079  -3.246   3.406  0.00  0.00    -0.300 N 
ATOM     30  C   UNL     1      -5.304  -4.645   3.017  0.00  0.00    +0.108 C 
ATOM     31  C   UNL     1      -4.770  -5.557   4.126  0.00  0.00    +0.019 C 
ATOM     32  C   UNL     1      -5.413  -5.164   5.458  0.00  0.00    +0.003 C 
ATOM     33  C   UNL     1      -5.040  -3.720   5.800  0.00  0.00    +0.019 C 
ATOM     34  C   UNL     1      -5.572  -2.788   4.713  0.00  0.00    +0.108 C 
ENDBRANCH  26  27
ENDBRANCH   5  26
TORSDOF 4
