REMARK  Name = ZINC06513785
REMARK  3 active torsions:
REMARK  status: ('A' for Active; 'I' for Inactive)
REMARK    1  A    between atoms: C_4  and  O_23
REMARK    2  A    between atoms: C_5  and  C_7
REMARK    3  A    between atoms: N_9  and  N_10
REMARK                            x       y       z     vdW  Elec       q    Type
REMARK                         _______ _______ _______ _____ _____    ______ ____
ROOT
ATOM      1  N   UNL     1       0.122  -4.255  -0.023  0.00  0.00    -0.174 NA
ATOM      2  C   UNL     1      -0.995  -4.932   0.084  0.00  0.00    +0.153 C 
ATOM      3  C   UNL     1      -2.376  -4.395   0.112  0.00  0.00    +0.031 A 
ATOM      4  C   UNL     1      -2.899  -3.108   0.041  0.00  0.00    +0.032 A 
ATOM      5  C   UNL     1      -4.266  -2.920   0.095  0.00  0.00    +0.043 A 
ATOM      6  C   UNL     1      -5.112  -4.011   0.219  0.00  0.00    +0.042 A 
ATOM      7  C   UNL     1      -4.602  -5.292   0.291  0.00  0.00    +0.064 A 
ATOM      8  C   UNL     1      -3.227  -5.500   0.237  0.00  0.00    +0.062 A 
ATOM      9  N   UNL     1      -2.466  -6.664   0.287  0.00  0.00    -0.278 N 
ATOM     10  C   UNL     1      -1.152  -6.396   0.195  0.00  0.00    +0.269 C 
ATOM     11  O   UNL     1      -0.252  -7.214   0.206  0.00  0.00    -0.268 OA
ATOM     12 CL   UNL     1      -5.678  -6.646   0.447  0.00  0.00    -0.082 Cl
ATOM     13 CL   UNL     1      -4.925  -1.317   0.008  0.00  0.00    -0.083 Cl
ATOM     14  H   UNL     1      -2.837  -7.556   0.373  0.00  0.00    +0.155 HD
ENDROOT
BRANCH   1  17
ATOM     15  C   UNL     1       1.234  -2.154  -0.155  0.00  0.00    +0.267 C 
ATOM     16  O   UNL     1       2.267  -2.733  -0.429  0.00  0.00    -0.268 OA
ATOM     17  N   UNL     1       0.105  -2.856   0.064  0.00  0.00    -0.202 N 
ATOM     18  H   UNL     1      -0.719  -2.394   0.282  0.00  0.00    +0.178 HD
BRANCH  15  23
ATOM     19  C   UNL     1       0.020   1.363   0.333  0.00  0.00    +0.001 A 
ATOM     20  C   UNL     1       1.181   2.086   0.108  0.00  0.00    +0.004 A 
ATOM     21  C   UNL     1       2.359   1.437  -0.203  0.00  0.00    +0.046 A 
ATOM     22  C   UNL     1       2.388   0.053  -0.292  0.00  0.00    +0.129 A 
ATOM     23  C   UNL     1       1.216  -0.682  -0.064  0.00  0.00    +0.080 A 
ATOM     24  C   UNL     1       0.030  -0.012   0.250  0.00  0.00    +0.017 A 
BRANCH  22  25
ATOM     25  O   UNL     1       3.545  -0.586  -0.598  0.00  0.00    -0.506 OA
ATOM     26  H   UNL     1       4.079  -0.823   0.173  0.00  0.00    +0.292 HD
ENDBRANCH  22  25
ENDBRANCH  15  23
ENDBRANCH   1  17
TORSDOF 3
