REMARK  Name = ZINC01930500
REMARK  7 active torsions:
REMARK  status: ('A' for Active; 'I' for Inactive)
REMARK    1  A    between atoms: C_1  and  C_2
REMARK    2  A    between atoms: C_6  and  C_24
REMARK    3  A    between atoms: C_7  and  O_8
REMARK    4  A    between atoms: O_8  and  C_9
REMARK    5  A    between atoms: C_9  and  C_10
REMARK    6  A    between atoms: N_12  and  C_13
REMARK    7  A    between atoms: C_14  and  C_22
REMARK                            x       y       z     vdW  Elec       q    Type
REMARK                         _______ _______ _______ _____ _____    ______ ____
ROOT
ATOM      1  C   UNL     1      -2.279   7.222  -2.922  0.00  0.00    +0.255 C 
ATOM      2  O   UNL     1      -2.260   6.341  -3.755  0.00  0.00    -0.272 OA
ATOM      3  N   UNL     1      -1.965   6.946  -1.641  0.00  0.00    -0.276 N 
ATOM      4  H   UNL     1      -1.982   7.746  -0.886  0.00  0.00    +0.155 HD
ENDROOT
BRANCH   3   5
ATOM      5  C   UNL     1      -1.621   5.653  -1.274  0.00  0.00    +0.090 A 
ATOM      6  C   UNL     1      -1.271   5.177  -0.019  0.00  0.00    +0.084 A 
ATOM      7  C   UNL     1      -0.951   3.765   0.100  0.00  0.00    -0.018 A 
ATOM      8  C   UNL     1      -1.032   3.059  -1.049  0.00  0.00    -0.004 A 
ATOM      9  S   UNL     1      -1.524   4.240  -2.273  0.00  0.00    -0.077 S 
ATOM     10  C   UNL     1      -0.761   1.597  -1.232  0.00  0.00    +0.043 C 
ATOM     11  C   UNL     1      -0.013   1.086   0.008  0.00  0.00    +0.005 C 
ATOM     12  C   UNL     1      -0.735   1.583   1.264  0.00  0.00    +0.005 C 
ATOM     13  C   UNL     1      -0.551   3.094   1.407  0.00  0.00    +0.037 C 
BRANCH   6  14
ATOM     14  C   UNL     1      -1.226   6.046   1.118  0.00  0.00    +0.102 C 
ATOM     15  N   UNL     1      -1.191   6.736   2.020  0.00  0.00    -0.191 NA
ENDBRANCH   6  14
ENDBRANCH   3   5
BRANCH   1  16
ATOM     16  C   UNL     1      -2.653   8.627  -3.320  0.00  0.00    +0.324 C 
BRANCH  16  17
ATOM     17  O   UNL     1      -2.940   8.665  -4.720  0.00  0.00    -0.482 OA
BRANCH  17  24
ATOM     18  C   UNL     1      -5.691   9.306  -4.753  0.00  0.00    +0.047 C 
ATOM     19  C   UNL     1      -4.633  10.237  -5.287  0.00  0.00    -0.007 A 
ATOM     20  C   UNL     1      -4.993  11.461  -5.816  0.00  0.00    +0.022 A 
ATOM     21  C   UNL     1      -4.022  12.314  -6.312  0.00  0.00    +0.019 A 
ATOM     22  C   UNL     1      -2.690  11.944  -6.275  0.00  0.00    +0.022 A 
ATOM     23  C   UNL     1      -2.325  10.723  -5.742  0.00  0.00    -0.007 A 
ATOM     24  C   UNL     1      -3.296   9.867  -5.244  0.00  0.00    +0.127 A 
ATOM     25  C   UNL     1      -0.873  10.321  -5.702  0.00  0.00    +0.047 C 
ATOM     26 BR   UNL     1      -4.519  13.986  -7.042  0.00  0.00    -0.050 Br
ENDBRANCH  17  24
ENDBRANCH  16  17
ENDBRANCH   1  16
TORSDOF 5
