REMARK  Name = ZINC12882932
REMARK  8 active torsions:
REMARK  status: ('A' for Active; 'I' for Inactive)
REMARK    1  A    between atoms: C_1  and  O_2
REMARK    2  A    between atoms: O_2  and  C_3
REMARK    3  A    between atoms: C_3  and  C_5
REMARK    4  A    between atoms: C_5  and  C_7
REMARK    5  A    between atoms: C_5  and  N_14
REMARK    6  A    between atoms: C_7  and  C_8
REMARK    7  A    between atoms: N_17  and  C_18
REMARK    8  A    between atoms: C_21  and  C_24
REMARK                            x       y       z     vdW  Elec       q    Type
REMARK                         _______ _______ _______ _____ _____    ______ ____
ROOT
ATOM      1  N   UNL     1       1.124   2.037  -0.161  0.00  0.00    -0.286 N 
ATOM      2  C   UNL     1      -0.026   1.334  -0.158  0.00  0.00    +0.305 C 
ATOM      3  O   UNL     1      -1.089   1.906  -0.303  0.00  0.00    -0.252 OA
ATOM      4  N   UNL     1       0.002  -0.004   0.002  0.00  0.00    -0.269 N 
ATOM      5  H   UNL     1       1.972   1.579  -0.049  0.00  0.00    +0.151 HD
ATOM      6  H   UNL     1       0.852  -0.470   0.038  0.00  0.00    +0.156 HD
ENDROOT
BRANCH   4   7
ATOM      7  C   UNL     1      -1.194  -0.720   0.115  0.00  0.00    +0.035 A 
ATOM      8  C   UNL     1      -2.292  -0.142   0.741  0.00  0.00    +0.024 A 
ATOM      9  C   UNL     1      -3.474  -0.844   0.850  0.00  0.00    +0.010 A 
ATOM     10  C   UNL     1      -3.563  -2.140   0.340  0.00  0.00    -0.011 A 
ATOM     11  C   UNL     1      -2.458  -2.719  -0.283  0.00  0.00    +0.010 A 
ATOM     12  C   UNL     1      -1.280  -2.011  -0.393  0.00  0.00    +0.024 A 
BRANCH  10  13
ATOM     13  C   UNL     1      -4.830  -2.898   0.460  0.00  0.00    +0.067 A 
ATOM     14  C   UNL     1      -5.469  -2.997   1.667  0.00  0.00    +0.027 A 
ATOM     15  C   UNL     1      -6.718  -3.758   1.729  0.00  0.00    +0.018 A 
ATOM     16  C   UNL     1      -7.411  -3.890   2.939  0.00  0.00    +0.011 A 
ATOM     17  C   UNL     1      -8.575  -4.604   2.980  0.00  0.00    +0.001 A 
ATOM     18  C   UNL     1      -9.076  -5.199   1.831  0.00  0.00    +0.004 A 
ATOM     19  C   UNL     1      -8.409  -5.082   0.630  0.00  0.00    +0.047 A 
ATOM     20  C   UNL     1      -7.222  -4.360   0.563  0.00  0.00    +0.139 A 
ATOM     21  O   UNL     1      -6.565  -4.243  -0.610  0.00  0.00    -0.422 OA
ATOM     22  C   UNL     1      -5.421  -3.549  -0.713  0.00  0.00    +0.345 A 
ATOM     23  O   UNL     1      -4.864  -3.465  -1.792  0.00  0.00    -0.245 OA
ENDBRANCH  10  13
ENDBRANCH   4   7
BRANCH   1  24
ATOM     24  C   UNL     1       1.093   3.491  -0.335  0.00  0.00    +0.187 C 
BRANCH  24  25
ATOM     25  C   UNL     1       1.055   3.821  -1.805  0.00  0.00    +0.328 C 
ATOM     26  O   UNL     1       1.054   2.932  -2.623  0.00  0.00    -0.249 OA
BRANCH  25  28
ATOM     27  C   UNL     1       0.988   5.345  -3.635  0.00  0.00    +0.280 C 
ATOM     28  O   UNL     1       1.023   5.102  -2.204  0.00  0.00    -0.467 OA
ENDBRANCH  25  28
ENDBRANCH  24  25
BRANCH  24  29
ATOM     29  C   UNL     1       2.345   4.106   0.294  0.00  0.00    +0.069 C 
BRANCH  29  30
ATOM     30  C   UNL     1       2.321   3.882   1.784  0.00  0.00    -0.045 A 
ATOM     31  C   UNL     1       1.732   4.817   2.615  0.00  0.00    +0.004 A 
ATOM     32  C   UNL     1       1.706   4.609   3.981  0.00  0.00    +0.000 A 
ATOM     33  C   UNL     1       2.277   3.470   4.518  0.00  0.00    +0.000 A 
ATOM     34  C   UNL     1       2.870   2.538   3.688  0.00  0.00    +0.000 A 
ATOM     35  C   UNL     1       2.892   2.743   2.321  0.00  0.00    +0.004 A 
ENDBRANCH  29  30
ENDBRANCH  24  29
ENDBRANCH   1  24
TORSDOF 7
