REMARK  Name = ZINC39635885
REMARK  5 active torsions:
REMARK  status: ('A' for Active; 'I' for Inactive)
REMARK    1  A    between atoms: C_1  and  C_2
REMARK    2  A    between atoms: C_8  and  N_10
REMARK    3  A    between atoms: C_11  and  C_13
REMARK    4  A    between atoms: C_24  and  C_26
REMARK    5  A    between atoms: C_26  and  C_32
REMARK                            x       y       z     vdW  Elec       q    Type
REMARK                         _______ _______ _______ _____ _____    ______ ____
ROOT
ATOM      1  C   UNL     1       4.217   0.676   2.384  0.00  0.00    +0.100 C 
ATOM      2  C   UNL     1       5.154  -0.347   1.703  0.00  0.00    +0.121 C 
ATOM      3  N   UNL     1       6.409  -0.287   2.489  0.00  0.00    -0.300 N 
ATOM      4  C   UNL     1       5.957  -0.152   3.895  0.00  0.00    +0.115 C 
ATOM      5  C   UNL     1       4.747   0.800   3.822  0.00  0.00    -0.004 C 
ATOM      6  C   UNL     1       3.676   0.369   4.819  0.00  0.00    -0.010 C 
ATOM      7  C   UNL     1       4.206   0.557   6.244  0.00  0.00    -0.082 C 
ATOM      8  N   UNL     1       4.560   1.966   6.454  0.00  0.00    +0.379 N 
ATOM      9  C   UNL     1       5.655   2.347   5.554  0.00  0.00    -0.082 C 
ATOM     10  C   UNL     1       5.187   2.235   4.101  0.00  0.00    -0.010 C 
ATOM     11  C   UNL     1       7.674  -0.342   2.029  0.00  0.00    +0.222 C 
ATOM     12  O   UNL     1       8.602  -0.362   2.810  0.00  0.00    -0.275 OA
ATOM     13  H   UNL     1       3.755   2.545   6.267  0.00  0.00    -0.086 HD
ATOM     14  H   UNL     1       4.851   2.099   7.411  0.00  0.00    -0.086 HD
ENDROOT
BRANCH  11  15
ATOM     15  C   UNL     1       7.937  -0.377   0.546  0.00  0.00    +0.044 C 
ATOM     16  C   UNL     1       7.174  -1.547  -0.079  0.00  0.00    +0.016 C 
ATOM     17  C   UNL     1       7.645  -2.858   0.553  0.00  0.00    +0.001 C 
ATOM     18  C   UNL     1       9.144  -3.035   0.304  0.00  0.00    +0.000 C 
ATOM     19  C   UNL     1       9.907  -1.865   0.929  0.00  0.00    +0.001 C 
ATOM     20  C   UNL     1       9.436  -0.553   0.297  0.00  0.00    +0.016 C 
ATOM     21  C   UNL     1       7.466   0.935  -0.086  0.00  0.00    +0.021 C 
ENDBRANCH  11  15
BRANCH   1  23
ATOM     22  N   UNL     1       1.774   1.028   2.540  0.00  0.00    -0.312 N 
ATOM     23  C   UNL     1       2.799   0.166   2.390  0.00  0.00    +0.218 C 
ATOM     24  O   UNL     1       2.580  -1.020   2.259  0.00  0.00    -0.275 OA
ATOM     25  H   UNL     1       1.949   1.976   2.644  0.00  0.00    +0.149 HD
BRANCH  22  32
ATOM     26  C   UNL     1       0.010   1.630   4.757  0.00  0.00    +0.009 C 
ATOM     27  C   UNL     1      -0.495   1.509   3.317  0.00  0.00    +0.006 C 
ATOM     28  C   UNL     1      -1.935   0.992   3.323  0.00  0.00    +0.005 C 
ATOM     29  C   UNL     1      -2.439   0.871   1.884  0.00  0.00    +0.000 C 
ATOM     30  C   UNL     1      -1.549  -0.105   1.112  0.00  0.00    +0.002 C 
ATOM     31  C   UNL     1      -0.109   0.412   1.106  0.00  0.00    +0.022 C 
ATOM     32  C   UNL     1       0.395   0.533   2.546  0.00  0.00    +0.076 C 
ENDBRANCH  22  32
ENDBRANCH   1  23
TORSDOF 3
