REMARK  Name = ZINC13064589
REMARK  11 active torsions:
REMARK  status: ('A' for Active; 'I' for Inactive)
REMARK    1  A    between atoms: C_1  and  C_2
REMARK    2  A    between atoms: C_2  and  C_3
REMARK    3  A    between atoms: C_3  and  C_5
REMARK    4  A    between atoms: C_3  and  N_70
REMARK    5  A    between atoms: N_9  and  C_10
REMARK    6  A    between atoms: C_15  and  C_16
REMARK    7  A    between atoms: C_15  and  N_70
REMARK    8  A    between atoms: C_20  and  C_29
REMARK    9  A    between atoms: C_21  and  C_28
REMARK   10  A    between atoms: C_30  and  C_31
REMARK   11  A    between atoms: C_30  and  N_70
REMARK                            x       y       z     vdW  Elec       q    Type
REMARK                         _______ _______ _______ _____ _____    ______ ____
ROOT
ATOM      1  N   UNL     1       4.561  -1.721   1.291  0.00  0.00    +0.391 N 
ATOM      2  H   UNL     1       3.967  -2.436   1.727  0.00  0.00    -0.080 HD
ENDROOT
BRANCH   1   3
ATOM      3  C   UNL     1       5.486  -2.378   0.343  0.00  0.00    +0.003 C 
BRANCH   3   4
ATOM      4  C   UNL     1       4.776  -3.550  -0.286  0.00  0.00    +0.138 A 
ATOM      5  N   UNL     1       3.534  -3.581  -0.702  0.00  0.00    -0.115 NA
ATOM      6  N   UNL     1       3.303  -4.755  -1.178  0.00  0.00    -0.023 NA
ATOM      7  N   UNL     1       4.364  -5.477  -1.069  0.00  0.00    -0.044 NA
ATOM      8  N   UNL     1       5.294  -4.769  -0.524  0.00  0.00    -0.228 N 
BRANCH   8   9
ATOM      9  C   UNL     1       6.658  -5.209  -0.220  0.00  0.00    +0.111 C 
ATOM     10  C   UNL     1       7.351  -5.709  -1.505  0.00  0.00    +0.027 C 
ATOM     11  C   UNL     1       8.205  -6.911  -1.033  0.00  0.00    +0.002 C 
ATOM     12  C   UNL     1       7.295  -7.584   0.024  0.00  0.00    +0.002 C 
ATOM     13  C   UNL     1       6.623  -6.402   0.752  0.00  0.00    +0.027 C 
ENDBRANCH   8   9
ENDBRANCH   3   4
BRANCH   3  15
ATOM     14  C   UNL     1       6.688  -0.237  -0.117  0.00  0.00    +0.002 C 
ATOM     15  C   UNL     1       5.916  -1.397  -0.749  0.00  0.00    -0.011 C 
ENDBRANCH   3  15
ENDBRANCH   1   3
BRANCH   1  16
ATOM     16  C   UNL     1       3.702  -0.756   0.573  0.00  0.00    -0.036 C 
BRANCH  16  17
ATOM     17  C   UNL     1       2.546  -0.381   1.464  0.00  0.00    +0.001 A 
ATOM     18  C   UNL     1       2.612   0.745   2.218  0.00  0.00    +0.017 A 
ATOM     19  C   UNL     1       1.472   1.082   3.072  0.00  0.00    -0.001 A 
ATOM     20  C   UNL     1       1.482   2.229   3.873  0.00  0.00    +0.013 A 
ATOM     21  C   UNL     1       0.403   2.515   4.660  0.00  0.00    -0.047 A 
ATOM     22  C   UNL     1      -0.704   1.677   4.673  0.00  0.00    -0.046 A 
ATOM     23  C   UNL     1      -0.734   0.539   3.895  0.00  0.00    +0.030 A 
ATOM     24  C   UNL     1       0.352   0.230   3.082  0.00  0.00    +0.049 A 
ATOM     25  N   UNL     1       0.347  -0.900   2.292  0.00  0.00    -0.322 N 
ATOM     26  H   UNL     1      -0.426  -1.486   2.300  0.00  0.00    +0.169 HD
ATOM     27  C   UNL     1       1.399  -1.201   1.510  0.00  0.00    +0.251 A 
ATOM     28  O   UNL     1       1.360  -2.208   0.824  0.00  0.00    -0.268 OA
ATOM     29  C   UNL     1      -1.883   2.012   5.549  0.00  0.00    +0.044 C 
ATOM     30  C   UNL     1       0.414   3.751   5.522  0.00  0.00    +0.044 C 
ENDBRANCH  16  17
ENDBRANCH   1  16
BRANCH   1  31
ATOM     31  C   UNL     1       5.329  -1.026   2.346  0.00  0.00    -0.045 C 
BRANCH  31  32
ATOM     32  C   UNL     1       5.840  -2.066   3.346  0.00  0.00    +0.102 C 
ATOM     33  C   UNL     1       6.489  -1.369   4.562  0.00  0.00    +0.032 C 
ATOM     34  C   UNL     1       7.687  -2.276   4.920  0.00  0.00    +0.030 C 
ATOM     35  C   UNL     1       7.621  -3.414   3.877  0.00  0.00    +0.160 C 
ATOM     36  O   UNL     1       6.903  -2.848   2.759  0.00  0.00    -0.378 OA
ENDBRANCH  31  32
ENDBRANCH   1  31
TORSDOF 8
