REMARK  Name = ZINC05748690
REMARK  4 active torsions:
REMARK  status: ('A' for Active; 'I' for Inactive)
REMARK    1  A    between atoms: C_1  and  C_2
REMARK    2  A    between atoms: C_8  and  C_10
REMARK    3  A    between atoms: C_15  and  O_16
REMARK    4  A    between atoms: O_16  and  C_17
REMARK                            x       y       z     vdW  Elec       q    Type
REMARK                         _______ _______ _______ _____ _____    ______ ____
ROOT
ATOM      1  C   UNL     1      -0.013   1.086   0.008  0.00  0.00    +0.066 C 
ATOM      2  C   UNL     1      -0.718   1.572   1.248  0.00  0.00    +0.047 A 
ATOM      3  C   UNL     1      -2.056   1.790   1.244  0.00  0.00    +0.071 A 
ATOM      4  S   UNL     1      -2.309   2.331   2.928  0.00  0.00    -0.060 S 
ATOM      5  C   UNL     1      -0.656   2.225   3.450  0.00  0.00    +0.165 A 
ATOM      6  N   UNL     1      -0.047   1.800   2.360  0.00  0.00    -0.230 NA
ATOM      7  N   UNL     1      -0.114   2.514   4.696  0.00  0.00    -0.261 N 
ATOM      8  C   UNL     1      -0.911   2.942   5.695  0.00  0.00    +0.253 C 
ATOM      9  O   UNL     1      -2.105   3.076   5.505  0.00  0.00    -0.270 OA
ATOM     10  H   UNL     1       0.838   2.408   4.847  0.00  0.00    +0.157 HD
ENDROOT
BRANCH   8  11
ATOM     11  C   UNL     1      -0.336   3.249   7.018  0.00  0.00    +0.081 A 
ATOM     12  C   UNL     1       1.036   3.097   7.240  0.00  0.00    +0.032 A 
ATOM     13  C   UNL     1       1.567   3.385   8.479  0.00  0.00    +0.020 A 
ATOM     14  C   UNL     1       0.748   3.826   9.506  0.00  0.00    +0.034 A 
ATOM     15  C   UNL     1      -0.609   3.981   9.300  0.00  0.00    +0.061 A 
ATOM     16  C   UNL     1      -1.160   3.700   8.057  0.00  0.00    +0.146 A 
ATOM     17 BR   UNL     1      -1.716   4.584  10.709  0.00  0.00    -0.046 Br
ATOM     18 BR   UNL     1       3.423   3.179   8.777  0.00  0.00    -0.050 Br
BRANCH  16  19
ATOM     19  O   UNL     1      -2.492   3.856   7.851  0.00  0.00    -0.493 OA
ATOM     20  C   UNL     1      -3.327   2.728   8.118  0.00  0.00    +0.277 C 
ENDBRANCH  16  19
ENDBRANCH   8  11
TORSDOF 2
