REMARK  Name = ZINC65011139
REMARK  9 active torsions:
REMARK  status: ('A' for Active; 'I' for Inactive)
REMARK    1  A    between atoms: C_1  and  C_2
REMARK    2  A    between atoms: C_2  and  C_3
REMARK    3  A    between atoms: C_3  and  C_4
REMARK    4  A    between atoms: C_5  and  C_16
REMARK    5  A    between atoms: C_19  and  C_34
REMARK    6  A    between atoms: C_20  and  S_22
REMARK    7  A    between atoms: S_22  and  N_25
REMARK    8  A    between atoms: N_25  and  C_26
REMARK    9  A    between atoms: C_29  and  C_33
REMARK                            x       y       z     vdW  Elec       q    Type
REMARK                         _______ _______ _______ _____ _____    ______ ____
ROOT
ATOM      1  C   UNL     1       2.835  -1.936   0.105  0.00  0.00    -0.011 A 
ATOM      2  C   UNL     1       3.854  -1.256  -0.561  0.00  0.00    +0.009 A 
ATOM      3  C   UNL     1       4.970  -0.838   0.134  0.00  0.00    +0.006 A 
ATOM      4  C   UNL     1       5.079  -1.091   1.490  0.00  0.00    -0.024 A 
ATOM      5  C   UNL     1       4.072  -1.765   2.156  0.00  0.00    +0.112 A 
ATOM      6  C   UNL     1       2.948  -2.183   1.472  0.00  0.00    +0.037 A 
ATOM      7  C   UNL     1       6.300  -0.630   2.243  0.00  0.00    +0.046 C 
ENDROOT
BRANCH   1   9
ATOM      8  C   UNL     1       0.678  -1.563  -1.257  0.00  0.00    +0.073 A 
ATOM      9  C   UNL     1       1.633  -2.389  -0.636  0.00  0.00    +0.045 A 
ATOM     10  C   UNL     1       1.245  -3.708  -0.846  0.00  0.00    +0.139 A 
ATOM     11  N   UNL     1       0.129  -3.671  -1.619  0.00  0.00    -0.185 N 
ATOM     12  N   UNL     1      -0.222  -2.321  -1.812  0.00  0.00    -0.167 NA
ATOM     13  C   UNL     1      -0.551  -4.684  -2.199  0.00  0.00    +0.250 C 
ATOM     14  O   UNL     1      -1.595  -4.434  -2.754  0.00  0.00    -0.271 OA
ATOM     15  C   UNL     1      -0.078  -6.080  -2.185  0.00  0.00    +0.110 C 
ATOM     16  C   UNL     1       1.419  -6.236  -2.226  0.00  0.00    +0.105 C 
ATOM     17  C   UNL     1       2.037  -5.994  -0.888  0.00  0.00    +0.219 C 
ATOM     18  O   UNL     1       2.642  -6.883  -0.328  0.00  0.00    -0.275 OA
ATOM     19  N   UNL     1       1.918  -4.783  -0.304  0.00  0.00    -0.270 N 
ATOM     20  H   UNL     1       2.337  -4.660   0.562  0.00  0.00    +0.156 HD
BRANCH   8  21
ATOM     21  C   UNL     1       0.692  -0.056  -1.271  0.00  0.00    +0.058 C 
BRANCH  21  23
ATOM     22  C   UNL     1      -0.058   2.003  -0.070  0.00  0.00    +0.004 C 
ATOM     23  C   UNL     1      -0.072   0.473  -0.056  0.00  0.00    +0.003 C 
ENDBRANCH  21  23
ENDBRANCH   8  21
ENDBRANCH   1   9
BRANCH   5  24
ATOM     24  S   UNL     1       4.220  -2.083   3.882  0.00  0.00    +0.073 S 
ATOM     25  O   UNL     1       4.542  -0.843   4.498  0.00  0.00    -0.150 OA
ATOM     26  O   UNL     1       3.079  -2.844   4.254  0.00  0.00    -0.150 OA
BRANCH  24  27
ATOM     27  N   UNL     1       5.534  -3.069   4.088  0.00  0.00    -0.213 N 
ATOM     28  H   UNL     1       6.324  -2.736   4.541  0.00  0.00    +0.174 HD
BRANCH  27  29
ATOM     29  C   UNL     1       5.505  -4.382   3.608  0.00  0.00    +0.083 A 
ATOM     30  C   UNL     1       4.840  -4.676   2.425  0.00  0.00    +0.027 A 
ATOM     31  C   UNL     1       4.813  -5.975   1.954  0.00  0.00    +0.005 A 
ATOM     32  C   UNL     1       5.447  -6.982   2.658  0.00  0.00    -0.048 A 
ATOM     33  C   UNL     1       6.110  -6.694   3.837  0.00  0.00    +0.043 A 
ATOM     34  C   UNL     1       6.146  -5.396   4.312  0.00  0.00    +0.146 A 
ATOM     35  F   UNL     1       6.799  -5.114   5.461  0.00  0.00    -0.203 F 
ATOM     36  C   UNL     1       5.414  -8.397   2.140  0.00  0.00    +0.044 C 
ENDBRANCH  27  29
ENDBRANCH  24  27
ENDBRANCH   5  24
TORSDOF 6
