REMARK  Name = ZINC55154220
REMARK  11 active torsions:
REMARK  status: ('A' for Active; 'I' for Inactive)
REMARK    1  A    between atoms: C_1  and  C_2
REMARK    2  A    between atoms: C_2  and  S_3
REMARK    3  A    between atoms: S_3  and  C_4
REMARK    4  A    between atoms: C_9  and  N_10
REMARK    5  A    between atoms: N_10  and  C_11
REMARK    6  A    between atoms: C_11  and  C_13
REMARK    7  A    between atoms: C_11  and  C_14
REMARK    8  A    between atoms: N_19  and  C_20
REMARK    9  A    between atoms: C_20  and  C_21
REMARK   10  A    between atoms: C_20  and  C_22
REMARK   11  A    between atoms: C_20  and  C_23
REMARK                            x       y       z     vdW  Elec       q    Type
REMARK                         _______ _______ _______ _____ _____    ______ ____
ROOT
ATOM      1  C   UNL     1       2.578  -3.393  -4.495  0.00  0.00    +0.154 C 
ATOM      2  C   UNL     1       1.499  -3.801  -5.501  0.00  0.00    +0.038 C 
ENDROOT
BRANCH   1   3
ATOM      3  C   UNL     1       3.660  -2.621  -5.205  0.00  0.00    +0.240 C 
ATOM      4  O   UNL     1       3.908  -1.481  -4.874  0.00  0.00    -0.273 OA
ATOM      5  N   UNL     1       4.352  -3.197  -6.207  0.00  0.00    -0.239 N 
ATOM      6  C   UNL     1       5.320  -2.507  -6.842  0.00  0.00    +0.306 C 
ATOM      7  O   UNL     1       5.569  -1.365  -6.510  0.00  0.00    -0.252 OA
ATOM      8  N   UNL     1       6.012  -3.083  -7.845  0.00  0.00    -0.294 N 
ATOM      9  H   UNL     1       4.153  -4.109  -6.472  0.00  0.00    +0.159 HD
ATOM     10  H   UNL     1       5.813  -3.995  -8.110  0.00  0.00    +0.151 HD
BRANCH   8  11
ATOM     11  C   UNL     1       7.064  -2.333  -8.534  0.00  0.00    +0.028 C 
ATOM     12  C   UNL     1       8.142  -1.925  -7.529  0.00  0.00    +0.031 C 
ATOM     13  C   UNL     1       7.687  -3.211  -9.622  0.00  0.00    +0.031 C 
ATOM     14  C   UNL     1       6.462  -1.080  -9.174  0.00  0.00    +0.031 C 
ENDBRANCH   8  11
ENDBRANCH   1   3
BRANCH   1  15
ATOM     15  N   UNL     1       1.981  -2.552  -3.454  0.00  0.00    -0.332 N 
ATOM     16  H   UNL     1       2.015  -1.586  -3.532  0.00  0.00    +0.147 HD
BRANCH  15  22
ATOM     17  C   UNL     1       0.792  -2.345  -1.354  0.00  0.00    +0.029 A 
ATOM     18  C   UNL     1       0.175  -2.937  -0.262  0.00  0.00    +0.016 A 
ATOM     19  C   UNL     1       0.130  -4.315  -0.157  0.00  0.00    +0.001 A 
ATOM     20  C   UNL     1       0.699  -5.106  -1.138  0.00  0.00    +0.002 A 
ATOM     21  C   UNL     1       1.317  -4.524  -2.230  0.00  0.00    +0.024 A 
ATOM     22  C   UNL     1       1.361  -3.143  -2.346  0.00  0.00    +0.041 A 
BRANCH  17  23
ATOM     23  S   UNL     1       0.851  -0.589  -1.490  0.00  0.00    -0.124 S 
BRANCH  23  25
ATOM     24  C   UNL     1      -0.019   1.526   0.010  0.00  0.00    +0.015 C 
ATOM     25  C   UNL     1       0.002  -0.004   0.002  0.00  0.00    +0.071 C 
ENDBRANCH  23  25
ENDBRANCH  17  23
ENDBRANCH  15  22
ENDBRANCH   1  15
TORSDOF 6
