REMARK  Name = ZINC01030784
REMARK  6 active torsions:
REMARK  status: ('A' for Active; 'I' for Inactive)
REMARK    1  A    between atoms: C_1  and  O_2
REMARK    2  A    between atoms: O_2  and  C_3
REMARK    3  A    between atoms: C_5  and  C_17
REMARK    4  A    between atoms: C_8  and  O_9
REMARK    5  A    between atoms: O_9  and  C_10
REMARK    6  A    between atoms: C_10  and  C_11
REMARK                            x       y       z     vdW  Elec       q    Type
REMARK                         _______ _______ _______ _____ _____    ______ ____
ROOT
ATOM      1  C   UNL     1      -0.044   3.845   0.022  0.00  0.00    +0.162 A 
ATOM      2  C   UNL     1       1.163   3.164   0.007  0.00  0.00    +0.056 A 
ATOM      3  C   UNL     1       1.176   1.782   0.000  0.00  0.00    -0.006 A 
ATOM      4  C   UNL     1      -0.013   1.076   0.008  0.00  0.00    +0.011 A 
ATOM      5  C   UNL     1      -1.220   1.749   0.017  0.00  0.00    +0.050 A 
ATOM      6  C   UNL     1      -1.240   3.135   0.030  0.00  0.00    +0.162 A 
ENDROOT
BRANCH   3   7
ATOM      7  C   UNL     1       2.489   1.043  -0.016  0.00  0.00    +0.190 C 
ATOM      8  N   UNL     1       2.329  -0.248   0.665  0.00  0.00    -0.322 N 
ATOM      9  C   UNL     1       2.264  -0.268   2.050  0.00  0.00    +0.041 A 
ATOM     10  C   UNL     1       1.546  -1.230   2.738  0.00  0.00    +0.024 A 
ATOM     11  C   UNL     1       1.508  -1.198   4.119  0.00  0.00    +0.002 A 
ATOM     12  C   UNL     1       2.183  -0.210   4.820  0.00  0.00    +0.001 A 
ATOM     13  C   UNL     1       2.905   0.755   4.149  0.00  0.00    +0.015 A 
ATOM     14  C   UNL     1       2.953   0.733   2.758  0.00  0.00    +0.058 A 
ATOM     15  C   UNL     1       3.712   1.738   1.991  0.00  0.00    +0.247 C 
ATOM     16  O   UNL     1       4.514   2.461   2.550  0.00  0.00    -0.270 OA
ATOM     17  N   UNL     1       3.506   1.847   0.662  0.00  0.00    -0.289 N 
ATOM     18  H   UNL     1       2.267  -1.072   0.157  0.00  0.00    +0.148 HD
ATOM     19  H   UNL     1       4.042   2.470   0.147  0.00  0.00    +0.151 HD
ENDBRANCH   3   7
BRANCH   1  21
ATOM     20  C   UNL     1       1.207   5.868   0.018  0.00  0.00    +0.277 C 
ATOM     21  O   UNL     1      -0.059   5.205   0.028  0.00  0.00    -0.491 OA
ENDBRANCH   1  21
BRANCH   6  22
ATOM     22  O   UNL     1      -2.427   3.799   0.044  0.00  0.00    -0.484 OA
BRANCH  22  23
ATOM     23  C   UNL     1      -3.615   3.004   0.052  0.00  0.00    +0.264 C 
BRANCH  23  24
ATOM     24  C   UNL     1      -4.822   3.906   0.068  0.00  0.00    -0.010 A 
ATOM     25  C   UNL     1      -5.368   4.309   1.272  0.00  0.00    +0.007 A 
ATOM     26  C   UNL     1      -6.473   5.140   1.286  0.00  0.00    +0.000 A 
ATOM     27  C   UNL     1      -7.038   5.559   0.097  0.00  0.00    +0.000 A 
ATOM     28  C   UNL     1      -6.495   5.152  -1.108  0.00  0.00    +0.000 A 
ATOM     29  C   UNL     1      -5.388   4.325  -1.122  0.00  0.00    +0.007 A 
ENDBRANCH  23  24
ENDBRANCH  22  23
ENDBRANCH   6  22
TORSDOF 5
