REMARK  Name = ZINC08685252
REMARK  7 active torsions:
REMARK  status: ('A' for Active; 'I' for Inactive)
REMARK    1  A    between atoms: C_3  and  C_6
REMARK    2  A    between atoms: C_6  and  C_8
REMARK    3  A    between atoms: C_6  and  N_23
REMARK    4  A    between atoms: C_8  and  N_9
REMARK    5  A    between atoms: N_9  and  S_10
REMARK    6  A    between atoms: S_10  and  C_13
REMARK    7  A    between atoms: N_26  and  C_29
REMARK                            x       y       z     vdW  Elec       q    Type
REMARK                         _______ _______ _______ _____ _____    ______ ____
ROOT
ATOM      1  C   UNL     1       3.787   0.452  -0.143  0.00  0.00    +0.015 C 
ENDROOT
BRANCH   1   2
ATOM      2  N   UNL     1       4.366  -0.746  -0.764  0.00  0.00    +0.389 N 
ATOM      3  C   UNL     1       5.763  -0.891  -0.336  0.00  0.00    -0.059 C 
ATOM      4  C   UNL     1       6.333  -2.201  -0.891  0.00  0.00    +0.086 C 
ATOM      5  N   UNL     1       6.142  -2.212  -2.349  0.00  0.00    -0.333 N 
ATOM      6  C   UNL     1       4.801  -1.913  -2.874  0.00  0.00    +0.086 C 
ATOM      7  C   UNL     1       4.303  -0.617  -2.225  0.00  0.00    -0.059 C 
ATOM      8  H   UNL     1       3.843  -1.559  -0.477  0.00  0.00    -0.081 HD
BRANCH   5   9
ATOM      9  C   UNL     1       7.204  -2.498  -3.212  0.00  0.00    +0.030 A 
ATOM     10  C   UNL     1       8.487  -2.660  -2.705  0.00  0.00    +0.026 A 
ATOM     11  C   UNL     1       9.535  -2.943  -3.559  0.00  0.00    +0.040 A 
ATOM     12  C   UNL     1       9.307  -3.067  -4.919  0.00  0.00    +0.124 A 
ATOM     13  C   UNL     1       8.029  -2.907  -5.426  0.00  0.00    +0.040 A 
ATOM     14  C   UNL     1       6.977  -2.628  -4.576  0.00  0.00    +0.026 A 
ATOM     15  F   UNL     1      10.334  -3.344  -5.753  0.00  0.00    -0.205 F 
ENDBRANCH   5   9
ENDBRANCH   1   2
BRANCH   1  18
ATOM     16  C   UNL     1       0.333   1.317  -1.092  0.00  0.00    +0.041 A 
ATOM     17  C   UNL     1       1.671   1.683  -0.819  0.00  0.00    +0.043 A 
ATOM     18  C   UNL     1       2.328   0.552  -0.507  0.00  0.00    +0.093 A 
ATOM     19  O   UNL     1       1.464  -0.474  -0.576  0.00  0.00    -0.469 OA
ATOM     20  C   UNL     1       0.252  -0.015  -0.930  0.00  0.00    +0.195 A 
ENDBRANCH   1  18
BRANCH   1  21
ATOM     21  C   UNL     1       3.927   0.356   1.378  0.00  0.00    +0.098 C 
BRANCH  21  22
ATOM     22  N   UNL     1       3.346  -0.905   1.843  0.00  0.00    -0.191 NA
ATOM     23  H   UNL     1       2.748  -1.405   1.267  0.00  0.00    +0.148 HD
BRANCH  22  24
ATOM     24  S   UNL     1       3.709  -1.476   3.355  0.00  0.00    +0.058 S 
ATOM     25  O   UNL     1       2.980  -2.685   3.518  0.00  0.00    -0.153 OA
ATOM     26  O   UNL     1       5.123  -1.416   3.483  0.00  0.00    -0.153 OA
BRANCH  24  27
ATOM     27  C   UNL     1       3.049  -0.330   4.518  0.00  0.00    +0.109 A 
ATOM     28  C   UNL     1       3.819   0.733   4.952  0.00  0.00    +0.032 A 
ATOM     29  C   UNL     1       3.305   1.634   5.866  0.00  0.00    +0.051 A 
ATOM     30  C   UNL     1       2.014   1.475   6.348  0.00  0.00    +0.162 A 
ATOM     31  C   UNL     1       1.239   0.408   5.910  0.00  0.00    +0.164 A 
ATOM     32  C   UNL     1       1.760  -0.491   4.990  0.00  0.00    +0.078 A 
ATOM     33  O   UNL     1      -0.032   0.237   6.364  0.00  0.00    -0.485 OA
ATOM     34  C   UNL     1      -0.390   0.944   7.557  0.00  0.00    +0.270 C 
ATOM     35  C   UNL     1       0.102   2.392   7.423  0.00  0.00    +0.270 C 
ATOM     36  O   UNL     1       1.523   2.369   7.250  0.00  0.00    -0.485 OA
ENDBRANCH  24  27
ENDBRANCH  22  24
ENDBRANCH  21  22
ENDBRANCH   1  21
TORSDOF 7
