REMARK  Name = ZINC03279936
REMARK  11 active torsions:
REMARK  status: ('A' for Active; 'I' for Inactive)
REMARK    1  A    between atoms: C_1  and  C_2
REMARK    2  A    between atoms: C_3  and  C_29
REMARK    3  A    between atoms: C_4  and  C_28
REMARK    4  A    between atoms: C_7  and  C_8
REMARK    5  A    between atoms: C_8  and  O_10
REMARK    6  A    between atoms: O_10  and  C_11
REMARK    7  A    between atoms: C_11  and  C_12
REMARK    8  A    between atoms: N_14  and  C_15
REMARK    9  A    between atoms: C_16  and  C_26
REMARK   10  A    between atoms: C_21  and  C_25
REMARK   11  A    between atoms: C_29  and  C_31
REMARK                            x       y       z     vdW  Elec       q    Type
REMARK                         _______ _______ _______ _____ _____    ______ ____
ROOT
ATOM      1  C   UNL     1      -1.079  -2.238   5.615  0.00  0.00    +0.255 C 
ATOM      2  O   UNL     1      -0.952  -3.357   5.165  0.00  0.00    -0.272 OA
ATOM      3  N   UNL     1      -1.339  -2.064   6.926  0.00  0.00    -0.276 N 
ATOM      4  H   UNL     1      -1.440  -1.169   7.285  0.00  0.00    +0.155 HD
ENDROOT
BRANCH   3   5
ATOM      5  C   UNL     1      -1.462  -3.166   7.761  0.00  0.00    +0.090 A 
ATOM      6  C   UNL     1      -1.731  -3.178   9.120  0.00  0.00    +0.084 A 
ATOM      7  C   UNL     1      -1.810  -4.474   9.770  0.00  0.00    -0.018 A 
ATOM      8  C   UNL     1      -1.607  -5.521   8.941  0.00  0.00    -0.004 A 
ATOM      9  S   UNL     1      -1.327  -4.790   7.355  0.00  0.00    -0.077 S 
ATOM     10  C   UNL     1      -1.625  -6.974   9.305  0.00  0.00    +0.046 C 
ATOM     11  C   UNL     1      -2.283  -7.116  10.685  0.00  0.00    -0.009 C 
ATOM     12  C   UNL     1      -1.657  -6.095  11.640  0.00  0.00    +0.008 C 
ATOM     13  C   UNL     1      -2.095  -4.682  11.250  0.00  0.00    +0.037 C 
ATOM     14  C   UNL     1      -2.050  -8.531  11.220  0.00  0.00    +0.008 C 
BRANCH   6  15
ATOM     15  C   UNL     1      -1.923  -1.963   9.853  0.00  0.00    +0.102 C 
ATOM     16  N   UNL     1      -2.074  -1.000  10.435  0.00  0.00    -0.191 NA
ENDBRANCH   6  15
ENDBRANCH   3   5
BRANCH   1  17
ATOM     17  C   UNL     1      -0.945  -1.042   4.708  0.00  0.00    +0.328 C 
BRANCH  17  18
ATOM     18  O   UNL     1      -0.671  -1.482   3.376  0.00  0.00    -0.451 OA
BRANCH  18  19
ATOM     19  C   UNL     1      -0.522  -0.528   2.434  0.00  0.00    +0.356 C 
ATOM     20  O   UNL     1      -0.622   0.645   2.737  0.00  0.00    -0.243 OA
BRANCH  19  27
ATOM     21  C   UNL     1      -0.132   1.460   0.064  0.00  0.00    +0.047 C 
ATOM     22  C   UNL     1      -0.068  -0.045   0.003  0.00  0.00    -0.008 A 
ATOM     23  C   UNL     1       0.188  -0.831  -1.145  0.00  0.00    +0.041 A 
ATOM     24  C   UNL     1       0.154  -2.158  -0.743  0.00  0.00    +0.024 A 
ATOM     25  N   UNL     1      -0.106  -2.195   0.572  0.00  0.00    -0.352 N 
ATOM     26  H   UNL     1      -0.184  -3.000   1.106  0.00  0.00    +0.166 HD
ATOM     27  C   UNL     1      -0.240  -0.907   1.046  0.00  0.00    +0.128 A 
ATOM     28  C   UNL     1       0.373  -3.354  -1.633  0.00  0.00    +0.064 C 
BRANCH  23  29
ATOM     29  C   UNL     1       0.440  -0.337  -2.502  0.00  0.00    +0.162 C 
ATOM     30  O   UNL     1      -0.486  -0.161  -3.266  0.00  0.00    -0.292 OA
ATOM     31  C   UNL     1       1.850  -0.047  -2.949  0.00  0.00    +0.091 C 
ENDBRANCH  23  29
ENDBRANCH  19  27
ENDBRANCH  18  19
ENDBRANCH  17  18
ENDBRANCH   1  17
TORSDOF 7
