REMARK  Name = ZINC08989795
REMARK  9 active torsions:
REMARK  status: ('A' for Active; 'I' for Inactive)
REMARK    1  A    between atoms: C_4  and  N_7
REMARK    2  A    between atoms: C_8  and  N_34
REMARK    3  A    between atoms: C_9  and  C_32
REMARK    4  A    between atoms: C_10  and  C_12
REMARK    5  A    between atoms: C_12  and  C_30
REMARK    6  A    between atoms: C_13  and  C_14
REMARK    7  A    between atoms: C_17  and  O_20
REMARK    8  A    between atoms: O_20  and  C_21
REMARK    9  A    between atoms: C_21  and  C_22
REMARK                            x       y       z     vdW  Elec       q    Type
REMARK                         _______ _______ _______ _____ _____    ______ ____
ROOT
ATOM      1  C   UNL     1      -0.216   6.722  -1.014  0.00  0.00    +0.081 C 
ATOM      2  C   UNL     1      -1.379   6.521  -1.695  0.00  0.00    +0.029 C 
ENDROOT
BRANCH   2   3
ATOM      3  C   UNL     1      -2.195   7.669  -2.106  0.00  0.00    -0.024 A 
ATOM      4  C   UNL     1      -2.193   8.843  -1.342  0.00  0.00    +0.011 A 
ATOM      5  C   UNL     1      -2.957   9.918  -1.736  0.00  0.00    +0.046 A 
ATOM      6  C   UNL     1      -3.738   9.837  -2.883  0.00  0.00    +0.121 A 
ATOM      7  C   UNL     1      -3.749   8.672  -3.642  0.00  0.00    +0.046 A 
ATOM      8  C   UNL     1      -2.985   7.593  -3.261  0.00  0.00    +0.011 A 
BRANCH   6   9
ATOM      9  O   UNL     1      -4.495  10.899  -3.263  0.00  0.00    -0.487 OA
BRANCH   9  10
ATOM     10  C   UNL     1      -4.438  12.064  -2.438  0.00  0.00    +0.266 C 
BRANCH  10  11
ATOM     11  C   UNL     1      -5.335  13.130  -3.013  0.00  0.00    +0.008 A 
ATOM     12  C   UNL     1      -6.048  12.883  -4.170  0.00  0.00    +0.010 A 
ATOM     13  C   UNL     1      -6.871  13.860  -4.698  0.00  0.00    +0.020 A 
ATOM     14  C   UNL     1      -6.981  15.086  -4.067  0.00  0.00    +0.042 A 
ATOM     15  C   UNL     1      -6.268  15.335  -2.908  0.00  0.00    +0.040 A 
ATOM     16  C   UNL     1      -5.448  14.354  -2.378  0.00  0.00    +0.049 A 
ATOM     17 CL   UNL     1      -4.556  14.662  -0.921  0.00  0.00    -0.083 Cl
ATOM     18 CL   UNL     1      -8.015  16.314  -4.729  0.00  0.00    -0.083 Cl
ENDBRANCH  10  11
ENDBRANCH   9  10
ENDBRANCH   6   9
ENDBRANCH   2   3
BRANCH   1  22
ATOM     19  N   UNL     1       1.147   3.511   0.075  0.00  0.00    -0.217 N 
ATOM     20  C   UNL     1       2.115   4.305   0.596  0.00  0.00    +0.138 A 
ATOM     21  C   UNL     1       1.791   5.622   0.283  0.00  0.00    +0.119 A 
ATOM     22  C   UNL     1       0.531   5.567  -0.468  0.00  0.00    +0.123 A 
ATOM     23  N   UNL     1       0.189   4.302  -0.566  0.00  0.00    -0.163 NA
BRANCH  19  27
ATOM     24  C   UNL     1       1.034  -0.645   0.357  0.00  0.00    +0.000 A 
ATOM     25  C   UNL     1      -0.142   0.081   0.394  0.00  0.00    +0.002 A 
ATOM     26  C   UNL     1      -0.108   1.459   0.301  0.00  0.00    +0.028 A 
ATOM     27  C   UNL     1       1.109   2.115   0.170  0.00  0.00    +0.067 A 
ATOM     28  C   UNL     1       2.288   1.382   0.134  0.00  0.00    +0.028 A 
ATOM     29  C   UNL     1       2.247   0.005   0.227  0.00  0.00    +0.002 A 
ENDBRANCH  19  27
BRANCH  20  30
ATOM     30  N   UNL     1       3.224   3.884   1.305  0.00  0.00    -0.342 N 
ATOM     31  H   UNL     1       3.363   2.938   1.470  0.00  0.00    +0.144 HD
ATOM     32  H   UNL     1       3.862   4.534   1.638  0.00  0.00    +0.144 HD
ENDBRANCH  20  30
BRANCH  21  33
ATOM     33  C   UNL     1       2.534   6.795   0.630  0.00  0.00    +0.105 C 
ATOM     34  N   UNL     1       3.123   7.727   0.906  0.00  0.00    -0.191 NA
ENDBRANCH  21  33
ENDBRANCH   1  22
BRANCH   1  35
ATOM     35  C   UNL     1       0.284   8.051  -0.826  0.00  0.00    +0.101 C 
ATOM     36  N   UNL     1       0.680   9.105  -0.676  0.00  0.00    -0.191 NA
ENDBRANCH   1  35
TORSDOF 9
