REMARK  Name = ZINC22509056
REMARK  10 active torsions:
REMARK  status: ('A' for Active; 'I' for Inactive)
REMARK    1  A    between atoms: C_1  and  C_2
REMARK    2  A    between atoms: C_2  and  C_3
REMARK    3  A    between atoms: C_2  and  C_4
REMARK    4  A    between atoms: C_4  and  C_5
REMARK    5  A    between atoms: C_5  and  N_6
REMARK    6  A    between atoms: C_10  and  N_20
REMARK    7  A    between atoms: C_15  and  C_18
REMARK    8  A    between atoms: C_15  and  C_19
REMARK    9  A    between atoms: N_23  and  C_24
REMARK   10  A    between atoms: C_24  and  C_25
REMARK                            x       y       z     vdW  Elec       q    Type
REMARK                         _______ _______ _______ _____ _____    ______ ____
ROOT
ATOM      1  N   UNL     1       0.653  -1.585   0.107  0.00  0.00    -0.268 N 
ATOM      2  C   UNL     1       0.807  -0.214  -0.149  0.00  0.00    +0.078 A 
ATOM      3  C   UNL     1       2.038   0.399   0.018  0.00  0.00    +0.029 A 
ATOM      4  C   UNL     1       2.174   1.752  -0.231  0.00  0.00    +0.025 A 
ATOM      5  C   UNL     1       1.079   2.496  -0.649  0.00  0.00    +0.038 A 
ATOM      6  C   UNL     1      -0.155   1.884  -0.820  0.00  0.00    +0.071 A 
ATOM      7  C   UNL     1      -0.293   0.530  -0.572  0.00  0.00    +0.144 A 
ATOM      8  O   UNL     1      -1.494  -0.083  -0.745  0.00  0.00    -0.489 OA
ATOM      9  C   UNL     1      -1.649  -0.897  -1.905  0.00  0.00    +0.244 C 
ATOM     10  C   UNL     1      -0.412  -1.766  -2.118  0.00  0.00    +0.076 C 
ATOM     11  C   UNL     1       0.032  -2.364  -0.807  0.00  0.00    +0.229 C 
ATOM     12  O   UNL     1      -0.169  -3.537  -0.574  0.00  0.00    -0.275 OA
ATOM     13  C   UNL     1       0.718  -0.909  -2.692  0.00  0.00    +0.024 C 
ATOM     14  C   UNL     1      -0.747  -2.889  -3.100  0.00  0.00    +0.024 C 
ENDROOT
BRANCH   5  15
ATOM     15  N   UNL     1       1.221   3.868  -0.900  0.00  0.00    -0.269 N 
ATOM     16  C   UNL     1       0.195   4.707  -0.655  0.00  0.00    +0.304 C 
ATOM     17  O   UNL     1      -0.819   4.290  -0.129  0.00  0.00    -0.252 OA
ATOM     18  N   UNL     1       0.293   6.008  -0.993  0.00  0.00    -0.295 N 
ATOM     19  H   UNL     1       2.169   4.259  -1.297  0.00  0.00    +0.156 HD
ATOM     20  H   UNL     1       1.210   6.385  -1.469  0.00  0.00    +0.151 HD
BRANCH  18  21
ATOM     21  C   UNL     1      -0.822   6.920  -0.727  0.00  0.00    +0.141 C 
BRANCH  21  22
ATOM     22  C   UNL     1      -0.461   8.305  -1.196  0.00  0.00    -0.030 A 
ATOM     23  C   UNL     1       0.158   9.188  -0.331  0.00  0.00    +0.006 A 
ATOM     24  C   UNL     1       0.495  10.457  -0.763  0.00  0.00    +0.020 A 
ATOM     25  C   UNL     1       0.202  10.848  -2.057  0.00  0.00    +0.041 A 
ATOM     26  C   UNL     1      -0.423   9.966  -2.921  0.00  0.00    +0.020 A 
ATOM     27  C   UNL     1      -0.754   8.695  -2.490  0.00  0.00    +0.006 A 
ATOM     28 CL   UNL     1       0.619  12.444  -2.598  0.00  0.00    -0.084 Cl
ENDBRANCH  21  22
ENDBRANCH  18  21
ENDBRANCH   5  15
BRANCH   1  29
ATOM     29  C   UNL     1       1.161  -2.167   1.352  0.00  0.00    +0.114 C 
BRANCH  29  30
ATOM     30  C   UNL     1       0.070  -2.108   2.424  0.00  0.00    +0.022 C 
BRANCH  30  32
ATOM     31  C   UNL     1      -0.444  -2.545   4.829  0.00  0.00    +0.007 C 
ATOM     32  C   UNL     1       0.600  -2.716   3.724  0.00  0.00    -0.016 C 
ATOM     33  C   UNL     1       0.881  -4.205   3.514  0.00  0.00    +0.007 C 
ENDBRANCH  30  32
ENDBRANCH  29  30
ENDBRANCH   1  29
TORSDOF 6
