REMARK  Name = ZINC64056560
REMARK  12 active torsions:
REMARK  status: ('A' for Active; 'I' for Inactive)
REMARK    1  A    between atoms: C_1  and  C_2
REMARK    2  A    between atoms: C_2  and  C_3
REMARK    3  A    between atoms: C_3  and  N_4
REMARK    4  A    between atoms: C_5  and  C_7
REMARK    5  A    between atoms: C_7  and  S_8
REMARK    6  A    between atoms: S_8  and  C_9
REMARK    7  A    between atoms: C_13  and  S_15
REMARK    8  A    between atoms: S_15  and  C_16
REMARK    9  A    between atoms: C_16  and  C_18
REMARK   10  A    between atoms: C_16  and  C_19
REMARK   11  A    between atoms: C_24  and  C_31
REMARK   12  A    between atoms: C_25  and  C_30
REMARK                            x       y       z     vdW  Elec       q    Type
REMARK                         _______ _______ _______ _____ _____    ______ ____
ROOT
ATOM      1  C   UNL     1       2.130  -6.522  -3.645  0.00  0.00    +0.211 C 
ATOM      2  N   UNL     1       0.739  -7.005  -3.495  0.00  0.00    -0.244 N 
ATOM      3  N   UNL     1       0.468  -7.658  -2.313  0.00  0.00    -0.172 NA
ATOM      4  C   UNL     1       1.355  -7.848  -1.385  0.00  0.00    +0.151 C 
ATOM      5  S   UNL     1       2.835  -7.093  -2.044  0.00  0.00    -0.063 S 
ATOM      6  H   UNL     1       0.065  -6.870  -4.180  0.00  0.00    +0.170 HD
ENDROOT
BRANCH   1   7
ATOM      7  S   UNL     1       2.191  -4.715  -3.786  0.00  0.00    -0.117 S 
BRANCH   7   8
ATOM      8  C   UNL     1       1.341  -4.130  -2.293  0.00  0.00    +0.167 C 
BRANCH   8  10
ATOM      9  N   UNL     1       0.738  -1.962  -1.265  0.00  0.00    -0.315 N 
ATOM     10  C   UNL     1       1.321  -2.623  -2.285  0.00  0.00    +0.223 C 
ATOM     11  O   UNL     1       1.829  -2.004  -3.196  0.00  0.00    -0.275 OA
ATOM     12  H   UNL     1       0.332  -2.457  -0.536  0.00  0.00    +0.149 HD
BRANCH   9  13
ATOM     13  C   UNL     1       0.718  -0.497  -1.257  0.00  0.00    +0.104 C 
BRANCH  13  15
ATOM     14  C   UNL     1      -0.019   1.526   0.010  0.00  0.00    +0.005 C 
ATOM     15  C   UNL     1       0.002  -0.004   0.002  0.00  0.00    +0.015 C 
ENDBRANCH  13  15
ENDBRANCH   9  13
ENDBRANCH   8  10
ENDBRANCH   7   8
ENDBRANCH   1   7
BRANCH   4  16
ATOM     16  S   UNL     1       1.148  -8.662   0.164  0.00  0.00    -0.087 S 
BRANCH  16  17
ATOM     17  C   UNL     1      -0.592  -9.174   0.162  0.00  0.00    +0.116 C 
ATOM     18  C   UNL     1      -1.489  -7.934   0.161  0.00  0.00    +0.027 C 
BRANCH  17  19
ATOM     19  C   UNL     1      -0.875  -9.997   1.392  0.00  0.00    +0.137 C 
ATOM     20  N   UNL     1      -1.864 -10.857   1.349  0.00  0.00    -0.160 NA
ATOM     21  C   UNL     1      -2.194 -11.633   2.388  0.00  0.00    +0.271 C 
ATOM     22  O   UNL     1      -3.120 -12.423   2.314  0.00  0.00    -0.268 OA
ATOM     23  C   UNL     1      -1.388 -11.501   3.643  0.00  0.00    +0.071 C 
ATOM     24  C   UNL     1      -1.533 -12.167   4.798  0.00  0.00    -0.045 C 
ATOM     25  C   UNL     1      -0.577 -11.842   5.923  0.00  0.00    +0.076 C 
ATOM     26  S   UNL     1       0.477 -10.546   5.154  0.00  0.00    -0.098 S 
ATOM     27  C   UNL     1      -0.304 -10.498   3.560  0.00  0.00    +0.111 C 
ATOM     28  N   UNL     1      -0.108  -9.818   2.456  0.00  0.00    -0.226 NA
ATOM     29  C   UNL     1      -1.327 -11.289   7.137  0.00  0.00    +0.024 C 
ATOM     30  C   UNL     1      -2.612 -13.205   4.968  0.00  0.00    +0.041 C 
ENDBRANCH  17  19
ENDBRANCH  16  17
ENDBRANCH   4  16
TORSDOF 8
