REMARK  Name = ZINC15959214
REMARK  13 active torsions:
REMARK  status: ('A' for Active; 'I' for Inactive)
REMARK    1  A    between atoms: CB_1  and  CA_2
REMARK    2  A    between atoms: CA_2  and  C_4
REMARK    3  A    between atoms: CA_2  and  N_15
REMARK    4  A    between atoms: N_6  and  CA_7
REMARK    5  A    between atoms: CA_7  and  CB_9
REMARK    6  A    between atoms: CA_7  and  C_13
REMARK    7  A    between atoms: CB_9  and  CG_10
REMARK    8  A    between atoms: CG_10  and  CD1_11
REMARK    9  A    between atoms: CG_10  and  CD2_12
REMARK   10  A    between atoms: C_13  and  O_14
REMARK   11  A    between atoms: C_16  and  C_18
REMARK   12  A    between atoms: C_20  and  C_33
REMARK   13  A    between atoms: C_20  and  C_34
REMARK                            x       y       z     vdW  Elec       q    Type
REMARK                         _______ _______ _______ _____ _____    ______ ____
ROOT
ATOM      1  N   LEU A   1       0.711  -0.489   1.189  0.00  0.00    -0.303 N 
ATOM      2  C   UNK A   0       0.051  -0.633   2.355  0.00  0.00    +0.236 C 
ATOM      3  O   UNK A   0      -1.129  -0.361   2.423  0.00  0.00    -0.274 OA
ATOM      4  H   LEU A   1       1.654  -0.707   1.135  0.00  0.00    +0.149 HD
ENDROOT
BRANCH   2   5
ATOM      5  C   UNK A   0       0.780  -1.133   3.576  0.00  0.00    +0.179 C 
ATOM      6  C   UNK A   0       1.621   0.027   4.160  0.00  0.00    +0.040 C 
ATOM      7  S   UNK A   0       1.099   0.007   5.931  0.00  0.00    -0.125 S 
ATOM      8  C   UNK A   0       0.326  -1.666   5.915  0.00  0.00    +0.167 C 
ATOM      9  N   UNK A   0      -0.200  -1.673   4.519  0.00  0.00    -0.269 N 
ATOM     10  C   UNK A   0      -1.451  -2.175   4.601  0.00  0.00    +0.249 C 
ATOM     11  O   UNK A   0      -2.061  -2.689   3.684  0.00  0.00    -0.270 OA
ATOM     12  C   UNK A   0      -1.966  -2.004   5.974  0.00  0.00    +0.043 A 
ATOM     13  C   UNK A   0      -0.876  -1.692   6.816  0.00  0.00    -0.005 A 
ATOM     14  C   UNK A   0      -1.060  -1.474   8.161  0.00  0.00    +0.007 A 
ATOM     15  C   UNK A   0      -2.324  -1.590   8.715  0.00  0.00    +0.000 A 
ATOM     16  C   UNK A   0      -3.404  -1.931   7.920  0.00  0.00    +0.001 A 
ATOM     17  C   UNK A   0      -3.239  -2.130   6.529  0.00  0.00    +0.013 A 
ATOM     18  C   UNK A   0       3.118  -0.259   4.026  0.00  0.00    +0.025 C 
ATOM     19  C   UNK A   0       1.257   1.357   3.496  0.00  0.00    +0.025 C 
ENDBRANCH   2   5
BRANCH   1  21
ATOM     20  CB  LEU A   1      -0.019   1.526   0.010  0.00  0.00    +0.038 C 
ATOM     21  CA  LEU A   1       0.002  -0.004   0.002  0.00  0.00    +0.156 C 
BRANCH  21  22
ATOM     22  C   LEU A   1       0.707  -0.490  -1.238  0.00  0.00    +0.233 C 
ATOM     23  O   LEU A   1       1.704  -1.174  -1.140  0.00  0.00    -0.274 OA
ATOM     24  N   LEU A   1       0.231  -0.164  -2.456  0.00  0.00    -0.309 N 
ATOM     25  H   LEU A   1      -0.566   0.383  -2.534  0.00  0.00    +0.149 HD
BRANCH  24  26
ATOM     26  CA  LEU A   1       0.917  -0.637  -3.661  0.00  0.00    +0.099 C 
BRANCH  26  27
ATOM     27  CB  LEU A   1      -0.077  -0.695  -4.823  0.00  0.00    +0.027 C 
BRANCH  27  28
ATOM     28  CG  LEU A   1      -1.147  -1.748  -4.527  0.00  0.00    -0.015 C 
ATOM     29  CD1 LEU A   1      -2.208  -1.720  -5.628  0.00  0.00    +0.007 C 
ATOM     30  CD2 LEU A   1      -0.499  -3.134  -4.478  0.00  0.00    +0.007 C 
ENDBRANCH  27  28
ENDBRANCH  26  27
BRANCH  26  31
ATOM     31  C   LEU A   1       2.054   0.325  -4.011  0.00  0.00    +0.178 C 
BRANCH  31  32
ATOM     32  O   LEU A   1       1.510   1.599  -4.360  0.00  0.00    -0.393 OA
ATOM     33  H   LEU A   1       2.176   2.260  -4.594  0.00  0.00    +0.209 HD
ENDBRANCH  31  32
ENDBRANCH  26  31
ENDBRANCH  24  26
ENDBRANCH  21  22
ENDBRANCH   1  21
TORSDOF 8
