REMARK  Name = ZINC27023234
REMARK  8 active torsions:
REMARK  status: ('A' for Active; 'I' for Inactive)
REMARK    1  A    between atoms: C_1  and  C_2
REMARK    2  A    between atoms: C_3  and  C_24
REMARK    3  A    between atoms: C_12  and  C_13
REMARK    4  A    between atoms: C_16  and  C_19
REMARK    5  A    between atoms: C_19  and  C_20
REMARK    6  A    between atoms: C_19  and  C_21
REMARK    7  A    between atoms: C_19  and  C_22
REMARK    8  A    between atoms: C_24  and  C_25
REMARK                            x       y       z     vdW  Elec       q    Type
REMARK                         _______ _______ _______ _____ _____    ______ ____
ROOT
ATOM      1  C   UNL     1       3.223   8.606   0.693  0.00  0.00    +0.064 C 
ATOM      2  C   UNL     1       4.236   7.504   0.517  0.00  0.00    +0.035 A 
ATOM      3  C   UNL     1       5.543   7.780   0.622  0.00  0.00    +0.043 A 
ATOM      4  C   UNL     1       6.499   6.743   0.457  0.00  0.00    +0.278 A 
ATOM      5  O   UNL     1       7.695   6.976   0.549  0.00  0.00    -0.265 OA
ATOM      6  N   UNL     1       6.059   5.503   0.198  0.00  0.00    -0.184 NA
ATOM      7  C   UNL     1       4.777   5.254   0.099  0.00  0.00    +0.184 A 
ATOM      8  N   UNL     1       3.805   6.208   0.247  0.00  0.00    -0.258 N 
ATOM      9  C   UNL     1       2.521   5.838   0.119  0.00  0.00    +0.271 A 
ATOM     10  O   UNL     1       1.621   6.648   0.236  0.00  0.00    -0.266 OA
ATOM     11  C   UNL     1       2.234   4.424  -0.163  0.00  0.00    +0.081 A 
ATOM     12  C   UNL     1       1.039   3.803  -0.332  0.00  0.00    +0.028 C 
ATOM     13  S   UNL     1       3.886   3.748  -0.231  0.00  0.00    -0.046 S 
ENDROOT
BRANCH  12  14
ATOM     14  C   UNL     1       0.978   2.337  -0.411  0.00  0.00    -0.024 A 
ATOM     15  C   UNL     1       2.113   1.569  -0.124  0.00  0.00    +0.008 A 
ATOM     16  C   UNL     1       2.047   0.194  -0.200  0.00  0.00    +0.005 A 
ATOM     17  C   UNL     1       0.863  -0.427  -0.559  0.00  0.00    -0.042 A 
ATOM     18  C   UNL     1      -0.264   0.325  -0.845  0.00  0.00    +0.005 A 
ATOM     19  C   UNL     1      -0.215   1.700  -0.773  0.00  0.00    +0.008 A 
BRANCH  17  20
ATOM     20  C   UNL     1       0.801  -1.931  -0.640  0.00  0.00    -0.013 C 
ATOM     21  C   UNL     1       1.135  -2.530   0.727  0.00  0.00    +0.015 C 
ATOM     22  C   UNL     1      -0.608  -2.361  -1.054  0.00  0.00    +0.015 C 
ATOM     23  C   UNL     1       1.811  -2.428  -1.676  0.00  0.00    +0.015 C 
ENDBRANCH  17  20
ENDBRANCH  12  14
BRANCH   3  24
ATOM     24  C   UNL     1       5.996   9.187   0.915  0.00  0.00    +0.077 C 
BRANCH  24  25
ATOM     25  C   UNL     1       6.295   9.899  -0.379  0.00  0.00    -0.043 A 
ATOM     26  C   UNL     1       7.542   9.775  -0.964  0.00  0.00    +0.004 A 
ATOM     27  C   UNL     1       7.815  10.423  -2.154  0.00  0.00    +0.000 A 
ATOM     28  C   UNL     1       6.845  11.204  -2.754  0.00  0.00    +0.000 A 
ATOM     29  C   UNL     1       5.600  11.332  -2.167  0.00  0.00    +0.000 A 
ATOM     30  C   UNL     1       5.325  10.679  -0.980  0.00  0.00    +0.004 A 
ENDBRANCH  24  25
ENDBRANCH   3  24
TORSDOF 4
