REMARK  Name = ZINC04767573
REMARK  10 active torsions:
REMARK  status: ('A' for Active; 'I' for Inactive)
REMARK    1  A    between atoms: C_1  and  C_2
REMARK    2  A    between atoms: C_7  and  C_23
REMARK    3  A    between atoms: C_9  and  C_13
REMARK    4  A    between atoms: C_10  and  C_12
REMARK    5  A    between atoms: C_13  and  O_15
REMARK    6  A    between atoms: O_15  and  C_16
REMARK    7  A    between atoms: C_16  and  C_17
REMARK    8  A    between atoms: C_32  and  C_34
REMARK    9  A    between atoms: C_34  and  O_36
REMARK   10  A    between atoms: O_36  and  C_37
REMARK                            x       y       z     vdW  Elec       q    Type
REMARK                         _______ _______ _______ _____ _____    ______ ____
ROOT
ATOM      1  C   UNL     1      -5.059   3.064  -4.866  0.00  0.00    +0.009 C 
ATOM      2  C   UNL     1      -4.242   2.757  -3.609  0.00  0.00    +0.013 C 
ATOM      3  C   UNL     1      -5.152   2.803  -2.380  0.00  0.00    +0.055 C 
ATOM      4  C   UNL     1      -4.358   2.449  -1.147  0.00  0.00    +0.016 C 
ATOM      5  C   UNL     1      -3.307   1.604  -1.216  0.00  0.00    +0.025 C 
ATOM      6  C   UNL     1      -2.519   1.253   0.021  0.00  0.00    +0.095 C 
ATOM      7  C   UNL     1      -3.291   1.590   1.264  0.00  0.00    +0.065 C 
ATOM      8  C   UNL     1      -4.336   2.433   1.229  0.00  0.00    +0.016 C 
ATOM      9  N   UNL     1      -4.728   3.001   0.050  0.00  0.00    -0.321 N 
ATOM     10  C   UNL     1      -5.081   2.754   2.499  0.00  0.00    +0.061 C 
ATOM     11  C   UNL     1      -2.915   1.031  -2.438  0.00  0.00    +0.176 C 
ATOM     12  O   UNL     1      -1.974   0.264  -2.463  0.00  0.00    -0.291 OA
ATOM     13  C   UNL     1      -3.641   1.352  -3.717  0.00  0.00    +0.171 C 
ATOM     14  H   UNL     1      -5.347   3.910   0.068  0.00  0.00    +0.152 HD
ENDROOT
BRANCH   6  15
ATOM     15  C   UNL     1      -1.224   2.023   0.019  0.00  0.00    -0.000 A 
ATOM     16  C   UNL     1      -1.242   3.405   0.031  0.00  0.00    +0.007 A 
ATOM     17  C   UNL     1      -0.054   4.112   0.024  0.00  0.00    +0.000 A 
ATOM     18  C   UNL     1       1.153   3.438   0.009  0.00  0.00    +0.003 A 
ATOM     19  C   UNL     1       1.173   2.056   0.002  0.00  0.00    +0.038 A 
ATOM     20  C   UNL     1      -0.016   1.347   0.009  0.00  0.00    +0.127 A 
ATOM     21  F   UNL     1       0.002  -0.004   0.002  0.00  0.00    -0.205 F 
ENDBRANCH   6  15
BRANCH   7  22
ATOM     22  C   UNL     1      -2.910   1.009   2.496  0.00  0.00    +0.338 C 
ATOM     23  O   UNL     1      -3.527   1.274   3.510  0.00  0.00    -0.245 OA
BRANCH  22  24
ATOM     24  O   UNL     1      -1.862   0.160   2.546  0.00  0.00    -0.457 OA
BRANCH  24  25
ATOM     25  C   UNL     1      -1.534  -0.390   3.824  0.00  0.00    +0.268 C 
BRANCH  25  26
ATOM     26  C   UNL     1      -0.347  -1.308   3.685  0.00  0.00    -0.010 A 
ATOM     27  C   UNL     1      -0.539  -2.651   3.420  0.00  0.00    +0.007 A 
ATOM     28  C   UNL     1       0.551  -3.492   3.289  0.00  0.00    +0.000 A 
ATOM     29  C   UNL     1       1.831  -2.992   3.432  0.00  0.00    +0.000 A 
ATOM     30  C   UNL     1       2.023  -1.650   3.702  0.00  0.00    +0.000 A 
ATOM     31  C   UNL     1       0.934  -0.808   3.829  0.00  0.00    +0.007 A 
ENDBRANCH  25  26
ENDBRANCH  24  25
ENDBRANCH  22  24
ENDBRANCH   7  22
BRANCH  13  32
ATOM     32  C   UNL     1      -2.674   1.304  -4.872  0.00  0.00    +0.318 C 
ATOM     33  O   UNL     1      -2.490   2.288  -5.547  0.00  0.00    -0.250 OA
BRANCH  32  34
ATOM     34  O   UNL     1      -2.017   0.167  -5.150  0.00  0.00    -0.467 OA
ATOM     35  C   UNL     1      -1.101   0.194  -6.276  0.00  0.00    +0.280 C 
ENDBRANCH  32  34
ENDBRANCH  13  32
TORSDOF 7
