REMARK  Name = ZINC11880327
REMARK  8 active torsions:
REMARK  status: ('A' for Active; 'I' for Inactive)
REMARK    1  A    between atoms: C_6  and  C_7
REMARK    2  A    between atoms: C_7  and  C_8
REMARK    3  A    between atoms: C_8  and  C_14
REMARK    4  A    between atoms: C_14  and  C_15
REMARK    5  A    between atoms: C_15  and  C_16
REMARK    6  A    between atoms: N_18  and  C_19
REMARK    7  A    between atoms: C_19  and  C_20
REMARK    8  A    between atoms: C_20  and  N_68
REMARK                            x       y       z     vdW  Elec       q    Type
REMARK                         _______ _______ _______ _____ _____    ______ ____
ROOT
ATOM      1  C   UNL     1       0.779   2.818  -5.216  0.00  0.00    +0.213 C 
ATOM      2  O   UNL     1       1.872   2.634  -4.725  0.00  0.00    -0.276 OA
ATOM      3  N   UNL     1       0.654   2.964  -6.550  0.00  0.00    -0.317 N 
ATOM      4  H   UNL     1      -0.220   3.111  -6.942  0.00  0.00    +0.149 HD
ENDROOT
BRANCH   1   5
ATOM      5  C   UNL     1      -0.442   2.883  -4.334  0.00  0.00    +0.098 C 
BRANCH   5   6
ATOM      6  C   UNL     1      -0.027   2.688  -2.874  0.00  0.00    +0.035 C 
BRANCH   6   7
ATOM      7  C   UNL     1      -1.272   2.689  -1.985  0.00  0.00    +0.039 C 
ATOM      8  C   UNL     1      -0.866   2.631  -0.496  0.00  0.00    +0.035 C 
ATOM      9  C   UNL     1      -1.949   3.518   0.162  0.00  0.00    +0.098 C 
ATOM     10  C   UNL     1      -2.404   4.435  -0.953  0.00  0.00    +0.214 C 
ATOM     11  O   UNL     1      -3.035   5.459  -0.795  0.00  0.00    -0.276 OA
ATOM     12  N   UNL     1      -2.007   3.950  -2.142  0.00  0.00    -0.309 N 
ATOM     13  H   UNL     1      -2.183   4.379  -2.994  0.00  0.00    +0.149 HD
BRANCH   7  14
ATOM     14  C   UNL     1      -2.175   1.504  -2.335  0.00  0.00    +0.061 C 
BRANCH  14  20
ATOM     15  C   UNL     1      -3.440   0.773  -0.303  0.00  0.00    +0.005 A 
ATOM     16  C   UNL     1      -4.562   0.800   0.503  0.00  0.00    +0.020 A 
ATOM     17  C   UNL     1      -5.650   1.577   0.148  0.00  0.00    +0.041 A 
ATOM     18  C   UNL     1      -5.612   2.331  -1.012  0.00  0.00    +0.020 A 
ATOM     19  C   UNL     1      -4.487   2.308  -1.815  0.00  0.00    +0.005 A 
ATOM     20  C   UNL     1      -3.401   1.531  -1.459  0.00  0.00    -0.045 A 
ATOM     21 CL   UNL     1      -7.063   1.606   1.156  0.00  0.00    -0.084 Cl
ENDBRANCH  14  20
ENDBRANCH   7  14
ENDBRANCH   6   7
ENDBRANCH   5   6
ENDBRANCH   1   5
BRANCH   3  22
ATOM     22  C   UNL     1       1.841   2.900  -7.407  0.00  0.00    +0.092 C 
BRANCH  22  23
ATOM     23  C   UNL     1       1.415   2.983  -8.874  0.00  0.00    -0.049 C 
ATOM     24  C   UNL     1       2.643   2.818  -9.772  0.00  0.00    -0.010 C 
ATOM     25  C   UNL     1       3.649   3.930  -9.469  0.00  0.00    -0.001 C 
ATOM     26  C   UNL     1       3.001   5.290  -9.736  0.00  0.00    -0.000 C 
ATOM     27  C   UNL     1       1.773   5.455  -8.839  0.00  0.00    -0.001 C 
ATOM     28  C   UNL     1       0.767   4.343  -9.141  0.00  0.00    -0.010 C 
BRANCH  23  34
ATOM     29  C   UNL     1       1.006   0.596  -8.831  0.00  0.00    -0.049 C 
ATOM     30  C   UNL     1      -0.052  -0.479  -9.092  0.00  0.00    +0.141 C 
ATOM     31  O   UNL     1      -0.479  -0.401 -10.455  0.00  0.00    -0.383 OA
ATOM     32  C   UNL     1      -1.027   0.871 -10.814  0.00  0.00    +0.141 C 
ATOM     33  C   UNL     1       0.021   1.960 -10.570  0.00  0.00    -0.049 C 
ATOM     34  N   UNL     1       0.426   1.918  -9.149  0.00  0.00    +0.387 N 
ATOM     35  H   UNL     1      -0.401   2.071  -8.561  0.00  0.00    -0.081 HD
ENDBRANCH  23  34
ENDBRANCH  22  23
ENDBRANCH   3  22
TORSDOF 8
