REMARK  Name = ZINC17373790
REMARK  8 active torsions:
REMARK  status: ('A' for Active; 'I' for Inactive)
REMARK    1  A    between atoms: C_5  and  C_7
REMARK    2  A    between atoms: N_11  and  C_15
REMARK    3  A    between atoms: C_15  and  C_16
REMARK    4  A    between atoms: C_16  and  C_17
REMARK    5  A    between atoms: C_17  and  C_18
REMARK    6  A    between atoms: N_20  and  N_21
REMARK    7  A    between atoms: C_22  and  C_24
REMARK    8  A    between atoms: C_27  and  N_30
REMARK                            x       y       z     vdW  Elec       q    Type
REMARK                         _______ _______ _______ _____ _____    ______ ____
ROOT
ATOM      1  C   UNL     1       5.874   0.167   0.667  0.00  0.00    +0.099 C 
ENDROOT
BRANCH   1   2
ATOM      2  C   UNL     1       6.771   0.111  -0.542  0.00  0.00    +0.229 C 
ATOM      3  O   UNL     1       6.301   0.252  -1.652  0.00  0.00    -0.274 OA
ATOM      4  N   UNL     1       8.094  -0.095  -0.392  0.00  0.00    -0.234 N 
ATOM      5  H   UNL     1       8.469  -0.207   0.496  0.00  0.00    +0.173 HD
BRANCH   4   6
ATOM      6  N   UNL     1       8.928  -0.146  -1.516  0.00  0.00    -0.230 N 
ATOM      7  C   UNL     1      10.251  -0.352  -1.365  0.00  0.00    +0.260 C 
ATOM      8  O   UNL     1      10.721  -0.493  -0.253  0.00  0.00    -0.269 OA
ATOM      9  H   UNL     1       8.552  -0.034  -2.404  0.00  0.00    +0.173 HD
BRANCH   7  10
ATOM     10  C   UNL     1      11.131  -0.407  -2.552  0.00  0.00    +0.038 A 
ATOM     11  C   UNL     1      10.593  -0.251  -3.831  0.00  0.00    +0.015 A 
ATOM     12  C   UNL     1      11.420  -0.299  -4.934  0.00  0.00    +0.033 A 
ATOM     13  C   UNL     1      12.778  -0.510  -4.776  0.00  0.00    +0.126 A 
ATOM     14  C   UNL     1      13.317  -0.670  -3.511  0.00  0.00    +0.033 A 
ATOM     15  C   UNL     1      12.502  -0.620  -2.400  0.00  0.00    +0.015 A 
BRANCH  13  16
ATOM     16  N   UNL     1      13.659  -0.566  -5.964  0.00  0.00    +0.056 N 
ATOM     17  O   UNL     1      14.855  -0.751  -5.828  0.00  0.00    -0.126 OA
ATOM     18  O   UNL     1      13.188  -0.425  -7.078  0.00  0.00    -0.126 OA
ENDBRANCH  13  16
ENDBRANCH   7  10
ENDBRANCH   4   6
ENDBRANCH   1   2
BRANCH   1  19
ATOM     19  C   UNL     1       4.431   0.409   0.222  0.00  0.00    +0.029 C 
BRANCH  19  20
ATOM     20  C   UNL     1       3.520   0.466   1.450  0.00  0.00    +0.115 C 
BRANCH  20  25
ATOM     21  C   UNL     1      -1.031  -0.883   0.008  0.00  0.00    +0.029 C 
ATOM     22  C   UNL     1      -0.023  -0.037   0.336  0.00  0.00    +0.077 C 
ATOM     23  C   UNL     1       1.360  -0.339   0.762  0.00  0.00    +0.258 C 
ATOM     24  O   UNL     1       1.761  -1.482   0.868  0.00  0.00    -0.269 OA
ATOM     25  N   UNL     1       2.138   0.698   1.023  0.00  0.00    -0.255 N 
ATOM     26  C   UNL     1       1.689   1.964   0.906  0.00  0.00    +0.121 C 
ATOM     27  S   UNL     1       2.536   3.424   1.195  0.00  0.00    -0.027 S 
ATOM     28  S   UNL     1      -0.003   1.750   0.374  0.00  0.00    -0.061 S 
BRANCH  21  33
ATOM     29  C   UNL     1       0.634  -4.132  -0.846  0.00  0.00    +0.001 A 
ATOM     30  C   UNL     1      -0.279  -5.042  -0.341  0.00  0.00    +0.001 A 
ATOM     31  C   UNL     1      -1.436  -4.603   0.278  0.00  0.00    +0.020 A 
ATOM     32  C   UNL     1      -1.686  -3.251   0.401  0.00  0.00    +0.048 A 
ATOM     33  C   UNL     1      -0.770  -2.324  -0.113  0.00  0.00    -0.005 A 
ATOM     34  C   UNL     1       0.397  -2.778  -0.737  0.00  0.00    +0.009 A 
ATOM     35 CL   UNL     1      -3.135  -2.701   1.184  0.00  0.00    -0.083 Cl
ENDBRANCH  21  33
ENDBRANCH  20  25
ENDBRANCH  19  20
ENDBRANCH   1  19
TORSDOF 8
