REMARK  Name = ZINC34367680
REMARK  10 active torsions:
REMARK  status: ('A' for Active; 'I' for Inactive)
REMARK    1  A    between atoms: C_1  and  O_2
REMARK    2  A    between atoms: O_2  and  C_3
REMARK    3  A    between atoms: C_3  and  C_5
REMARK    4  A    between atoms: C_8  and  C_11
REMARK    5  A    between atoms: N_19  and  C_22
REMARK    6  A    between atoms: C_22  and  C_23
REMARK    7  A    between atoms: C_23  and  O_24
REMARK    8  A    between atoms: C_25  and  C_27
REMARK    9  A    between atoms: C_25  and  C_38
REMARK   10  A    between atoms: C_27  and  C_28
REMARK                            x       y       z     vdW  Elec       q    Type
REMARK                         _______ _______ _______ _____ _____    ______ ____
ROOT
ATOM      1  C   UNL     1      -1.413  -6.381  -0.019  0.00  0.00    -0.027 C 
ATOM      2  C   UNL     1      -1.733  -6.915   1.374  0.00  0.00    +0.077 C 
ATOM      3  C   UNL     1      -2.190  -8.357   0.931  0.00  0.00    +0.086 C 
ATOM      4  C   UNL     1      -2.120  -9.088   2.173  0.00  0.00    +0.225 C 
ATOM      5  O   UNL     1      -2.834  -9.998   2.535  0.00  0.00    -0.275 OA
ATOM      6  N   UNL     1      -1.068  -8.529   2.855  0.00  0.00    -0.240 N 
ATOM      7  C   UNL     1      -0.643  -7.335   2.309  0.00  0.00    +0.224 C 
ATOM      8  O   UNL     1       0.394  -6.748   2.530  0.00  0.00    -0.275 OA
ATOM      9  C   UNL     1      -3.124  -8.096  -0.172  0.00  0.00    +0.052 C 
ATOM     10  N   UNL     1      -2.568  -6.862  -0.845  0.00  0.00    +0.396 N 
ATOM     11  H   UNL     1      -3.283  -6.151  -0.881  0.00  0.00    -0.083 HD
ATOM     12  H   UNL     1      -2.254  -7.082  -1.778  0.00  0.00    -0.083 HD
ENDROOT
BRANCH   1  16
ATOM     13  C   UNL     1      -1.247  -2.108   0.003  0.00  0.00    +0.059 A 
ATOM     14  C   UNL     1      -0.068  -2.856  -0.007  0.00  0.00    +0.015 A 
ATOM     15  C   UNL     1      -0.129  -4.234  -0.014  0.00  0.00    +0.003 A 
ATOM     16  C   UNL     1      -1.354  -4.875  -0.011  0.00  0.00    -0.061 A 
ATOM     17  C   UNL     1      -2.527  -4.141  -0.002  0.00  0.00    +0.003 A 
ATOM     18  C   UNL     1      -2.481  -2.762   0.011  0.00  0.00    +0.015 A 
BRANCH  13  19
ATOM     19  C   UNL     1      -1.190  -0.632   0.010  0.00  0.00    +0.339 C 
ATOM     20  O   UNL     1      -2.217   0.016   0.023  0.00  0.00    -0.245 OA
BRANCH  19  22
ATOM     21  C   UNL     1      -0.017   1.425   0.010  0.00  0.00    +0.280 C 
ATOM     22  O   UNL     1       0.002  -0.004   0.002  0.00  0.00    -0.464 OA
ENDBRANCH  19  22
ENDBRANCH  13  19
ENDBRANCH   1  16
BRANCH   9  23
ATOM     23  C   UNL     1      -4.512  -7.853   0.363  0.00  0.00    +0.347 C 
ATOM     24  O   UNL     1      -5.072  -6.792   0.146  0.00  0.00    -0.248 OA
ATOM     25  O   UNL     1      -5.075  -8.718   1.012  0.00  0.00    -0.248 OA
ENDBRANCH   9  23
BRANCH   6  26
ATOM     26  C   UNL     1      -0.464  -9.128   4.048  0.00  0.00    +0.144 C 
BRANCH  26  27
ATOM     27  C   UNL     1       0.672 -10.063   3.629  0.00  0.00    +0.175 C 
BRANCH  27  28
ATOM     28  O   UNL     1       1.716  -9.302   3.020  0.00  0.00    -0.393 OA
ATOM     29  H   UNL     1       2.471  -9.831   2.729  0.00  0.00    +0.209 HD
ENDBRANCH  27  28
ENDBRANCH  26  27
ENDBRANCH   6  26
BRANCH   9  30
ATOM     30  C   UNL     1      -3.127  -9.266  -1.157  0.00  0.00    +0.035 C 
BRANCH  30  31
ATOM     31  C   UNL     1      -3.998  -8.925  -2.339  0.00  0.00    -0.048 A 
ATOM     32  C   UNL     1      -5.355  -9.241  -2.306  0.00  0.00    +0.004 A 
ATOM     33  C   UNL     1      -6.168  -8.947  -3.357  0.00  0.00    +0.009 A 
ATOM     34  C   UNL     1      -5.635  -8.316  -4.494  0.00  0.00    -0.018 A 
ATOM     35  C   UNL     1      -6.443  -7.997  -5.598  0.00  0.00    +0.008 A 
ATOM     36  C   UNL     1      -5.892  -7.385  -6.681  0.00  0.00    +0.001 A 
ATOM     37  C   UNL     1      -4.535  -7.069  -6.714  0.00  0.00    +0.001 A 
ATOM     38  C   UNL     1      -3.722  -7.363  -5.663  0.00  0.00    +0.008 A 
ATOM     39  C   UNL     1      -4.255  -7.995  -4.527  0.00  0.00    -0.018 A 
ATOM     40  C   UNL     1      -3.447  -8.309  -3.420  0.00  0.00    +0.012 A 
ENDBRANCH  30  31
ENDBRANCH   9  30
TORSDOF 9
