REMARK  Name = ZINC39232743
REMARK  7 active torsions:
REMARK  status: ('A' for Active; 'I' for Inactive)
REMARK    1  A    between atoms: C_1  and  C_2
REMARK    2  A    between atoms: C_4  and  C_25
REMARK    3  A    between atoms: N_10  and  C_11
REMARK    4  A    between atoms: C_11  and  C_12
REMARK    5  A    between atoms: C_12  and  C_13
REMARK    6  A    between atoms: C_16  and  O_22
REMARK    7  A    between atoms: O_22  and  C_23
REMARK                            x       y       z     vdW  Elec       q    Type
REMARK                         _______ _______ _______ _____ _____    ______ ____
ROOT
ATOM      1  C   UNL     1       0.349   1.495   0.444  0.00  0.00    +0.027 C 
ATOM      2  C   UNL     1       0.167  -0.021   0.354  0.00  0.00    +0.070 C 
ATOM      3  C   UNL     1      -1.319  -0.353   0.189  0.00  0.00    +0.128 C 
ATOM      4  C   UNL     1      -2.042  -0.081   1.482  0.00  0.00    +0.257 C 
ATOM      5  O   UNL     1      -3.383   0.054   1.470  0.00  0.00    -0.270 OA
ATOM      6  N   UNL     1      -1.405   0.024   2.605  0.00  0.00    -0.199 NA
ATOM      7  C   UNL     1      -0.049  -0.099   2.672  0.00  0.00    +0.102 C 
ATOM      8  N   UNL     1       0.657  -0.653   1.592  0.00  0.00    -0.377 NA
ATOM      9  C   UNL     1       0.604   0.304   3.756  0.00  0.00    +0.054 C 
ATOM     10  H   UNL     1       0.493  -1.648   1.554  0.00  0.00    +0.128 HD
ENDROOT
BRANCH   3  11
ATOM     11  C   UNL     1      -1.906   0.503  -0.903  0.00  0.00    -0.034 A 
ATOM     12  C   UNL     1      -2.243   1.819  -0.645  0.00  0.00    +0.004 A 
ATOM     13  C   UNL     1      -2.781   2.604  -1.647  0.00  0.00    +0.000 A 
ATOM     14  C   UNL     1      -2.983   2.074  -2.908  0.00  0.00    +0.000 A 
ATOM     15  C   UNL     1      -2.645   0.759  -3.166  0.00  0.00    +0.000 A 
ATOM     16  C   UNL     1      -2.102  -0.025  -2.166  0.00  0.00    +0.004 A 
ENDBRANCH   3  11
BRANCH   8  17
ATOM     17  C   UNL     1       2.095  -0.392   1.746  0.00  0.00    +0.091 C 
BRANCH  17  18
ATOM     18  C   UNL     1       2.849  -0.972   0.547  0.00  0.00    +0.054 C 
BRANCH  18  19
ATOM     19  C   UNL     1       4.332  -0.817   0.765  0.00  0.00    -0.021 A 
ATOM     20  C   UNL     1       5.204  -1.730   1.508  0.00  0.00    +0.006 A 
ATOM     21  C   UNL     1       4.992  -2.926   2.196  0.00  0.00    +0.056 A 
ATOM     22  C   UNL     1       6.057  -3.558   2.808  0.00  0.00    +0.121 A 
ATOM     23  C   UNL     1       7.334  -3.008   2.739  0.00  0.00    +0.047 A 
ATOM     24  C   UNL     1       7.554  -1.828   2.063  0.00  0.00    +0.030 A 
ATOM     25  C   UNL     1       6.495  -1.176   1.441  0.00  0.00    +0.047 A 
ATOM     26  N   UNL     1       6.400  -0.012   0.707  0.00  0.00    -0.360 N 
ATOM     27  C   UNL     1       5.106   0.181   0.309  0.00  0.00    +0.087 A 
ATOM     28  H   UNL     1       7.141   0.579   0.501  0.00  0.00    +0.165 HD
BRANCH  22  29
ATOM     29  O   UNL     1       5.857  -4.724   3.480  0.00  0.00    -0.495 OA
ATOM     30  C   UNL     1       7.000  -5.326   4.089  0.00  0.00    +0.277 C 
ENDBRANCH  22  29
ENDBRANCH  18  19
ENDBRANCH  17  18
ENDBRANCH   8  17
TORSDOF 5
