REMARK  Name = ZINC08845181
REMARK  6 active torsions:
REMARK  status: ('A' for Active; 'I' for Inactive)
REMARK    1  A    between atoms: C_7  and  N_19
REMARK    2  A    between atoms: C_8  and  C_10
REMARK    3  A    between atoms: C_10  and  C_12
REMARK    4  A    between atoms: C_20  and  C_22
REMARK    5  A    between atoms: C_24  and  C_28
REMARK    6  A    between atoms: C_33  and  O_34
REMARK                            x       y       z     vdW  Elec       q    Type
REMARK                         _______ _______ _______ _____ _____    ______ ____
ROOT
ATOM      1  C   UNL     1       0.167   1.237   1.219  0.00  0.00    +0.001 A 
ATOM      2  C   UNL     1       1.307   1.991   0.975  0.00  0.00    +0.004 A 
ATOM      3  C   UNL     1       2.436   1.407   0.441  0.00  0.00    +0.047 A 
ATOM      4  C   UNL     1       2.439   0.049   0.143  0.00  0.00    +0.138 A 
ATOM      5  C   UNL     1       1.281  -0.709   0.394  0.00  0.00    +0.042 A 
ATOM      6  C   UNL     1       0.148  -0.099   0.934  0.00  0.00    +0.013 A 
ATOM      7  C   UNL     1       1.601  -2.080  -0.020  0.00  0.00    +0.091 A 
ATOM      8  C   UNL     1       2.904  -2.038  -0.479  0.00  0.00    +0.197 A 
ATOM      9  O   UNL     1       3.373  -0.775  -0.372  0.00  0.00    -0.450 OA
ENDROOT
BRANCH   7  10
ATOM     10  N   UNL     1       0.768  -3.188   0.037  0.00  0.00    -0.277 N 
ATOM     11  C   UNL     1      -0.561  -3.042  -0.129  0.00  0.00    +0.268 C 
ATOM     12  O   UNL     1      -1.040  -1.930  -0.244  0.00  0.00    -0.268 OA
ATOM     13  H   UNL     1       1.143  -4.068   0.197  0.00  0.00    +0.155 HD
BRANCH  11  14
ATOM     14  C   UNL     1      -1.435  -4.231  -0.170  0.00  0.00    +0.148 A 
ATOM     15  C   UNL     1      -2.837  -4.234  -0.343  0.00  0.00    +0.062 A 
ATOM     16  C   UNL     1      -3.205  -5.550  -0.315  0.00  0.00    +0.070 A 
ATOM     17  N   UNL     1      -2.064  -6.274  -0.134  0.00  0.00    -0.276 N 
ATOM     18  H   UNL     1      -2.022  -7.242  -0.075  0.00  0.00    +0.189 HD
ATOM     19  N   UNL     1      -1.051  -5.487  -0.059  0.00  0.00    -0.169 NA
BRANCH  16  20
ATOM     20  C   UNL     1      -4.577  -6.085  -0.453  0.00  0.00    +0.041 A 
ATOM     21  C   UNL     1      -5.648  -5.434   0.157  0.00  0.00    +0.013 A 
ATOM     22  C   UNL     1      -6.926  -5.938   0.024  0.00  0.00    +0.001 A 
ATOM     23  C   UNL     1      -7.149  -7.088  -0.712  0.00  0.00    +0.004 A 
ATOM     24  C   UNL     1      -6.095  -7.742  -1.321  0.00  0.00    +0.046 A 
ATOM     25  C   UNL     1      -4.807  -7.245  -1.202  0.00  0.00    +0.126 A 
BRANCH  25  26
ATOM     26  O   UNL     1      -3.771  -7.884  -1.805  0.00  0.00    -0.506 OA
ATOM     27  H   UNL     1      -3.352  -8.560  -1.255  0.00  0.00    +0.292 HD
ENDBRANCH  25  26
ENDBRANCH  16  20
ENDBRANCH  11  14
ENDBRANCH   7  10
BRANCH   8  28
ATOM     28  C   UNL     1       3.632  -3.143  -0.982  0.00  0.00    +0.230 C 
ATOM     29  O   UNL     1       3.077  -4.216  -1.142  0.00  0.00    -0.283 OA
BRANCH  28  30
ATOM     30  C   UNL     1       5.066  -2.996  -1.312  0.00  0.00    +0.026 A 
ATOM     31  C   UNL     1       5.740  -1.816  -0.994  0.00  0.00    +0.013 A 
ATOM     32  C   UNL     1       7.078  -1.684  -1.303  0.00  0.00    +0.021 A 
ATOM     33  C   UNL     1       7.752  -2.720  -1.929  0.00  0.00    +0.041 A 
ATOM     34  C   UNL     1       7.087  -3.893  -2.248  0.00  0.00    +0.021 A 
ATOM     35  C   UNL     1       5.752  -4.039  -1.938  0.00  0.00    +0.013 A 
ATOM     36 CL   UNL     1       9.435  -2.547  -2.316  0.00  0.00    -0.084 Cl
ENDBRANCH  28  30
ENDBRANCH   8  28
TORSDOF 6
