REMARK  Name = ZINC24720037
REMARK  9 active torsions:
REMARK  status: ('A' for Active; 'I' for Inactive)
REMARK    1  A    between atoms: C_1  and  C_2
REMARK    2  A    between atoms: C_2  and  C_4
REMARK    3  A    between atoms: C_2  and  S_19
REMARK    4  A    between atoms: N_6  and  C_7
REMARK    5  A    between atoms: C_8  and  C_17
REMARK    6  A    between atoms: S_19  and  C_20
REMARK    7  A    between atoms: N_25  and  C_26
REMARK    8  A    between atoms: C_26  and  C_27
REMARK    9  A    between atoms: C_27  and  C_28
REMARK                            x       y       z     vdW  Elec       q    Type
REMARK                         _______ _______ _______ _____ _____    ______ ____
ROOT
ATOM      1  C   UNL     1      -3.401  -4.641   7.683  0.00  0.00    +0.029 C 
ATOM      2  C   UNL     1      -4.835  -4.133   7.522  0.00  0.00    +0.136 C 
ENDROOT
BRANCH   2   3
ATOM      3  C   UNL     1      -5.697  -4.705   8.618  0.00  0.00    +0.231 C 
ATOM      4  O   UNL     1      -6.340  -5.714   8.420  0.00  0.00    -0.274 OA
ATOM      5  N   UNL     1      -5.753  -4.095   9.819  0.00  0.00    -0.278 N 
ATOM      6  H   UNL     1      -5.169  -3.180   9.998  0.00  0.00    +0.155 HD
BRANCH   5   7
ATOM      7  C   UNL     1      -6.546  -4.621  10.828  0.00  0.00    +0.090 A 
ATOM      8  C   UNL     1      -6.732  -4.143  12.115  0.00  0.00    +0.084 A 
ATOM      9  C   UNL     1      -7.629  -4.885  12.991  0.00  0.00    -0.018 A 
ATOM     10  C   UNL     1      -8.183  -5.986  12.439  0.00  0.00    -0.004 A 
ATOM     11  S   UNL     1      -7.551  -6.031  10.784  0.00  0.00    -0.077 S 
ATOM     12  C   UNL     1      -9.124  -6.957  13.079  0.00  0.00    +0.043 C 
ATOM     13  C   UNL     1     -10.260  -6.183  13.763  0.00  0.00    +0.005 C 
ATOM     14  C   UNL     1      -9.838  -5.871  15.195  0.00  0.00    +0.001 C 
ATOM     15  C   UNL     1      -8.329  -5.647  15.262  0.00  0.00    +0.005 C 
ATOM     16  C   UNL     1      -7.930  -4.442  14.418  0.00  0.00    +0.037 C 
BRANCH   8  17
ATOM     17  C   UNL     1      -6.066  -2.959  12.568  0.00  0.00    +0.102 C 
ATOM     18  N   UNL     1      -5.538  -2.020  12.928  0.00  0.00    -0.191 NA
ENDBRANCH   8  17
ENDBRANCH   5   7
ENDBRANCH   2   3
BRANCH   2  19
ATOM     19  S   UNL     1      -5.484  -4.653   5.910  0.00  0.00    -0.084 S 
BRANCH  19  20
ATOM     20  C   UNL     1      -4.474  -3.796   4.747  0.00  0.00    +0.161 A 
ATOM     21  N   UNL     1      -3.473  -2.964   4.963  0.00  0.00    -0.133 NA
ATOM     22  N   UNL     1      -2.812  -2.400   3.897  0.00  0.00    -0.125 NA
ATOM     23  C   UNL     1      -3.181  -2.692   2.666  0.00  0.00    +0.182 A 
ATOM     24  S   UNL     1      -4.537  -3.816   2.962  0.00  0.00    -0.025 S 
ATOM     25  N   UNL     1      -2.659  -2.241   1.459  0.00  0.00    -0.322 N 
ATOM     26  H   UNL     1      -3.090  -2.588   0.509  0.00  0.00    +0.148 HD
BRANCH  25  27
ATOM     27  C   UNL     1      -1.533  -1.303   1.453  0.00  0.00    +0.108 C 
BRANCH  27  28
ATOM     28  C   UNL     1      -1.155  -0.969   0.008  0.00  0.00    +0.061 C 
BRANCH  28  29
ATOM     29  C   UNL     1       0.002  -0.004   0.002  0.00  0.00    -0.009 A 
ATOM     30  C   UNL     1       1.332  -0.266  -0.012  0.00  0.00    +0.011 A 
ATOM     31  C   UNL     1       2.223   0.790  -0.015  0.00  0.00    +0.008 A 
ATOM     32  C   UNL     1       1.742   2.057  -0.004  0.00  0.00    +0.045 A 
ATOM     33  S   UNL     1      -0.022   1.781   0.012  0.00  0.00    -0.102 S 
ENDBRANCH  28  29
ENDBRANCH  27  28
ENDBRANCH  25  27
ENDBRANCH  19  20
ENDBRANCH   2  19
TORSDOF 8
