REMARK  Name = ZINC62825352
REMARK  5 active torsions:
REMARK  status: ('A' for Active; 'I' for Inactive)
REMARK    1  A    between atoms: C_5  and  N_10
REMARK    2  A    between atoms: C_6  and  C_7
REMARK    3  A    between atoms: C_11  and  C_13
REMARK    4  A    between atoms: C_13  and  C_14
REMARK    5  A    between atoms: C_14  and  N_15
REMARK                            x       y       z     vdW  Elec       q    Type
REMARK                         _______ _______ _______ _____ _____    ______ ____
ROOT
ATOM      1  C   UNL     1       0.625   1.409  -1.088  0.00  0.00    +0.032 A 
ATOM      2  C   UNL     1       1.162   2.098  -0.021  0.00  0.00    +0.020 A 
ATOM      3  C   UNL     1       1.740   1.412   1.036  0.00  0.00    +0.032 A 
ATOM      4  C   UNL     1       1.783   0.031   1.034  0.00  0.00    +0.041 A 
ATOM      5  C   UNL     1       1.247  -0.680  -0.032  0.00  0.00    +0.062 A 
ATOM      6  C   UNL     1       0.661   0.011  -1.104  0.00  0.00    +0.086 A 
ATOM      7 BR   UNL     1       2.574  -0.891   2.483  0.00  0.00    -0.048 Br
ATOM      8 BR   UNL     1       1.112   3.988  -0.001  0.00  0.00    -0.050 Br
ENDROOT
BRANCH   5   9
ATOM      9  N   UNL     1       1.290  -2.072  -0.036  0.00  0.00    -0.284 N 
ATOM     10  C   UNL     1       2.464  -2.710   0.141  0.00  0.00    +0.215 C 
ATOM     11  O   UNL     1       3.465  -2.077   0.404  0.00  0.00    -0.276 OA
ATOM     12  H   UNL     1       0.476  -2.582  -0.167  0.00  0.00    +0.155 HD
BRANCH  10  13
ATOM     13  C   UNL     1       2.534  -4.210   0.012  0.00  0.00    +0.076 C 
BRANCH  13  14
ATOM     14  C   UNL     1       3.970  -4.677   0.258  0.00  0.00    -0.077 C 
BRANCH  14  15
ATOM     15  N   UNL     1       4.037  -6.139   0.133  0.00  0.00    +0.378 N 
ATOM     16  H   UNL     1       4.984  -6.447   0.295  0.00  0.00    -0.090 HD
ATOM     17  H   UNL     1       3.424  -6.564   0.812  0.00  0.00    -0.090 HD
ATOM     18  H   UNL     1       3.750  -6.410  -0.795  0.00  0.00    -0.090 HD
ENDBRANCH  14  15
ENDBRANCH  13  14
ENDBRANCH  10  13
ENDBRANCH   5   9
BRANCH   6  19
ATOM     19  C   UNL     1       0.088  -0.731  -2.239  0.00  0.00    +0.388 C 
ATOM     20  O   UNL     1      -0.327  -0.126  -3.218  0.00  0.00    -0.241 OA
ATOM     21  O   UNL     1       0.028  -1.952  -2.203  0.00  0.00    -0.241 OA
ENDBRANCH   6  19
TORSDOF 5
