REMARK  Name = ZINC14231935
REMARK  7 active torsions:
REMARK  status: ('A' for Active; 'I' for Inactive)
REMARK    1  A    between atoms: C_1  and  S_2
REMARK    2  A    between atoms: S_2  and  C_3
REMARK    3  A    between atoms: C_3  and  C_4
REMARK    4  A    between atoms: N_6  and  C_10
REMARK    5  A    between atoms: C_10  and  N_11
REMARK    6  A    between atoms: N_14  and  S_17
REMARK    7  A    between atoms: S_17  and  C_20
REMARK                            x       y       z     vdW  Elec       q    Type
REMARK                         _______ _______ _______ _____ _____    ______ ____
ROOT
ATOM      1  N   UNL     1       1.905   3.604   1.387  0.00  0.00    -0.281 NA
ATOM      2  C   UNL     1       0.613   3.662   2.084  0.00  0.00    +0.103 C 
ATOM      3  C   UNL     1       0.849   3.966   3.567  0.00  0.00    +0.125 C 
ATOM      4  N   UNL     1       1.666   5.184   3.670  0.00  0.00    -0.174 NA
ATOM      5  C   UNL     1       2.911   5.255   2.889  0.00  0.00    +0.125 C 
ATOM      6  C   UNL     1       2.593   4.900   1.433  0.00  0.00    +0.103 C 
ENDROOT
BRANCH   4   7
ATOM      7  S   UNL     1       1.197   6.443   4.638  0.00  0.00    +0.061 S 
ATOM      8  O   UNL     1       0.342   5.895   5.631  0.00  0.00    -0.153 OA
ATOM      9  O   UNL     1       2.376   7.167   4.962  0.00  0.00    -0.153 OA
BRANCH   7  10
ATOM     10  C   UNL     1       0.203   7.514   3.654  0.00  0.00    +0.107 A 
ATOM     11  C   UNL     1       0.790   8.550   2.950  0.00  0.00    +0.028 A 
ATOM     12  C   UNL     1       0.011   9.387   2.174  0.00  0.00    +0.003 A 
ATOM     13  C   UNL     1      -1.356   9.197   2.109  0.00  0.00    +0.015 A 
ATOM     14  C   UNL     1      -1.945   8.164   2.816  0.00  0.00    +0.020 A 
ATOM     15  C   UNL     1      -1.164   7.323   3.589  0.00  0.00    +0.043 A 
ATOM     16 BR   UNL     1      -3.816   7.903   2.728  0.00  0.00    -0.050 Br
ENDBRANCH   7  10
ENDBRANCH   4   7
BRANCH   1  17
ATOM     17  C   UNL     1       1.736   3.146   0.001  0.00  0.00    +0.234 C 
BRANCH  17  20
ATOM     18  C   UNL     1       1.283  -0.422  -0.013  0.00  0.00    +0.226 A 
ATOM     19  N   UNL     1       2.067   0.605  -0.014  0.00  0.00    -0.132 NA
ATOM     20  N   UNL     1       1.268   1.758  -0.001  0.00  0.00    -0.209 N 
ATOM     21  C   UNL     1      -0.016   1.340   0.009  0.00  0.00    +0.268 A 
ATOM     22  S   UNL     1      -1.408   2.337   0.022  0.00  0.00    +0.011 S 
ATOM     23  O   UNL     1       0.002  -0.004   0.002  0.00  0.00    -0.415 OA
BRANCH  18  24
ATOM     24  C   UNL     1       1.731  -1.861  -0.025  0.00  0.00    +0.166 C 
BRANCH  24  26
ATOM     25  C   UNL     1       2.462  -4.171   1.492  0.00  0.00    +0.085 C 
ATOM     26  S   UNL     1       1.927  -2.448   1.680  0.00  0.00    -0.155 S 
ENDBRANCH  24  26
ENDBRANCH  18  24
ENDBRANCH  17  20
ENDBRANCH   1  17
TORSDOF 6
