REMARK  Name = ZINC20535006
REMARK  8 active torsions:
REMARK  status: ('A' for Active; 'I' for Inactive)
REMARK    1  A    between atoms: N_9  and  C_11
REMARK    2  A    between atoms: C_11  and  C_12
REMARK    3  A    between atoms: C_12  and  C_14
REMARK    4  A    between atoms: C_12  and  O_32
REMARK    5  A    between atoms: C_14  and  O_15
REMARK    6  A    between atoms: O_15  and  C_16
REMARK    7  A    between atoms: C_19  and  C_22
REMARK    8  A    between atoms: C_22  and  N_23
REMARK                            x       y       z     vdW  Elec       q    Type
REMARK                         _______ _______ _______ _____ _____    ______ ____
ROOT
ATOM      1  O   UNL     1      -0.780   1.605  -6.037  0.00  0.00    -0.489 OA
ENDROOT
BRANCH   1   2
ATOM      2  C   UNL     1      -0.201   1.401  -7.249  0.00  0.00    +0.121 A 
ATOM      3  C   UNL     1       1.143   1.069  -7.330  0.00  0.00    +0.046 A 
ATOM      4  C   UNL     1       1.729   0.857  -8.563  0.00  0.00    +0.005 A 
ATOM      5  C   UNL     1       0.978   0.987  -9.717  0.00  0.00    -0.064 A 
ATOM      6  C   UNL     1      -0.361   1.323  -9.639  0.00  0.00    +0.005 A 
ATOM      7  C   UNL     1      -0.952   1.531  -8.408  0.00  0.00    +0.046 A 
BRANCH   5   8
ATOM      8  C   UNL     1       1.620   0.761 -11.061  0.00  0.00    -0.043 C 
BRANCH   8   9
ATOM      9  N   UNL     1       2.163   2.030 -11.564  0.00  0.00    +0.385 N 
ATOM     10  C   UNL     1       2.554   1.914 -12.976  0.00  0.00    -0.073 C 
ATOM     11  C   UNL     1       2.718   3.326 -13.564  0.00  0.00    +0.024 C 
ATOM     12  C   UNL     1       3.525   4.130 -12.597  0.00  0.00    -0.011 A 
ATOM     13  C   UNL     1       3.807   3.804 -11.304  0.00  0.00    -0.054 A 
ATOM     14  C   UNL     1       4.585   4.712 -10.590  0.00  0.00    +0.009 A 
ATOM     15  C   UNL     1       5.018   5.847 -11.185  0.00  0.00    +0.045 A 
ATOM     16  S   UNL     1       4.331   5.689 -12.827  0.00  0.00    -0.101 S 
ATOM     17  C   UNL     1       3.271   2.499 -10.722  0.00  0.00    -0.042 C 
ATOM     18  H   UNL     1       1.370   2.791 -11.508  0.00  0.00    -0.081 HD
ENDBRANCH   8   9
ENDBRANCH   5   8
ENDBRANCH   1   2
BRANCH   1  19
ATOM     19  C   UNL     1       0.053   1.454  -4.886  0.00  0.00    +0.258 C 
BRANCH  19  20
ATOM     20  C   UNL     1      -0.768   1.720  -3.623  0.00  0.00    +0.135 C 
BRANCH  20  21
ATOM     21  O   UNL     1      -1.190   3.085  -3.608  0.00  0.00    -0.390 OA
ATOM     22  H   UNL     1      -1.819   3.475  -4.421  0.00  0.00    +0.210 HD
ENDBRANCH  20  21
BRANCH  20  23
ATOM     23  C   UNL     1       0.090   1.438  -2.388  0.00  0.00    -0.043 C 
BRANCH  23  32
ATOM     24  C   UNL     1      -4.328   1.027   2.263  0.00  0.00    +0.000 A 
ATOM     25  C   UNL     1      -4.920   0.701   1.057  0.00  0.00    +0.000 A 
ATOM     26  C   UNL     1      -4.157   0.656  -0.093  0.00  0.00    +0.002 A 
ATOM     27  C   UNL     1      -2.799   0.937  -0.046  0.00  0.00    -0.061 A 
ATOM     28  C   UNL     1      -2.210   1.264   1.157  0.00  0.00    -0.048 A 
ATOM     29  C   UNL     1      -2.977   1.307   2.312  0.00  0.00    +0.004 A 
ATOM     30  C   UNL     1      -0.736   1.583   1.260  0.00  0.00    +0.017 C 
ATOM     31  C   UNL     1      -0.013   1.086   0.008  0.00  0.00    -0.074 C 
ATOM     32  N   UNL     1      -0.732   1.577  -1.178  0.00  0.00    +0.384 N 
ATOM     33  C   UNL     1      -2.009   0.871  -1.326  0.00  0.00    -0.043 C 
ATOM     34  H   UNL     1      -0.944   2.648  -1.041  0.00  0.00    -0.081 HD
ENDBRANCH  23  32
ENDBRANCH  20  23
ENDBRANCH  19  20
ENDBRANCH   1  19
TORSDOF 8
