REMARK  Name = ZINC00958867
REMARK  3 active torsions:
REMARK  status: ('A' for Active; 'I' for Inactive)
REMARK    1  A    between atoms: C_6  and  N_7
REMARK    2  A    between atoms: C_8  and  C_10
REMARK    3  A    between atoms: C_10  and  N_11
REMARK                            x       y       z     vdW  Elec       q    Type
REMARK                         _______ _______ _______ _____ _____    ______ ____
ROOT
ATOM      1  N   UNL     1      -6.486   0.270  -0.649  0.00  0.00    -0.201 N 
ATOM      2  C   UNL     1      -5.189   0.430  -1.005  0.00  0.00    +0.279 A 
ATOM      3  O   UNL     1      -4.808   0.288  -2.155  0.00  0.00    -0.265 OA
ATOM      4  C   UNL     1      -4.290   0.778   0.061  0.00  0.00    +0.079 A 
ATOM      5  C   UNL     1      -2.862   1.005  -0.052  0.00  0.00    -0.023 A 
ATOM      6  C   UNL     1      -2.205   1.324   1.090  0.00  0.00    -0.004 A 
ATOM      7  S   UNL     1      -3.451   1.338   2.354  0.00  0.00    -0.071 S 
ATOM      8  C   UNL     1      -4.844   0.916   1.353  0.00  0.00    +0.138 A 
ATOM      9  N   UNL     1      -6.130   0.745   1.638  0.00  0.00    -0.123 NA
ATOM     10  N   UNL     1      -6.928   0.432   0.664  0.00  0.00    -0.061 NA
ATOM     11  C   UNL     1      -0.738   1.603   1.249  0.00  0.00    +0.043 C 
ATOM     12  C   UNL     1      -0.016   1.113  -0.014  0.00  0.00    +0.005 C 
ATOM     13  C   UNL     1      -0.771   1.625  -1.244  0.00  0.00    +0.005 C 
ATOM     14  C   UNL     1      -2.108   0.896  -1.375  0.00  0.00    +0.037 C 
ENDROOT
BRANCH   1  15
ATOM     15  C   UNL     1      -7.462  -0.086  -1.683  0.00  0.00    +0.245 C 
BRANCH  15  17
ATOM     16  N   UNL     1      -8.399  -2.147  -2.679  0.00  0.00    -0.284 N 
ATOM     17  C   UNL     1      -7.558  -1.586  -1.787  0.00  0.00    +0.239 C 
ATOM     18  O   UNL     1      -6.879  -2.289  -1.069  0.00  0.00    -0.273 OA
ATOM     19  H   UNL     1      -8.991  -1.587  -3.205  0.00  0.00    +0.155 HD
BRANCH  16  25
ATOM     20  C   UNL     1      -8.651  -4.084  -4.099  0.00  0.00    +0.024 A 
ATOM     21  C   UNL     1      -8.664  -5.456  -4.260  0.00  0.00    +0.017 A 
ATOM     22  C   UNL     1      -8.457  -6.284  -3.171  0.00  0.00    +0.018 A 
ATOM     23  C   UNL     1      -8.232  -5.741  -1.919  0.00  0.00    +0.017 A 
ATOM     24  C   UNL     1      -8.213  -4.370  -1.753  0.00  0.00    +0.024 A 
ATOM     25  C   UNL     1      -8.419  -3.536  -2.844  0.00  0.00    +0.034 A 
ATOM     26 BR   UNL     1      -8.483  -8.161  -3.395  0.00  0.00    -0.050 Br
ENDBRANCH  16  25
ENDBRANCH  15  17
ENDBRANCH   1  15
TORSDOF 3
