REMARK  Name = ZINC40089826
REMARK  10 active torsions:
REMARK  status: ('A' for Active; 'I' for Inactive)
REMARK    1  A    between atoms: C_1  and  C_2
REMARK    2  A    between atoms: C_2  and  C_3
REMARK    3  A    between atoms: C_3  and  C_5
REMARK    4  A    between atoms: C_3  and  C_11
REMARK    5  A    between atoms: N_13  and  C_14
REMARK    6  A    between atoms: C_14  and  C_15
REMARK    7  A    between atoms: C_20  and  C_21
REMARK    8  A    between atoms: C_21  and  N_22
REMARK    9  A    between atoms: N_25  and  C_28
REMARK   10  A    between atoms: C_28  and  C_29
REMARK                            x       y       z     vdW  Elec       q    Type
REMARK                         _______ _______ _______ _____ _____    ______ ____
ROOT
ATOM      1  C   UNL     1      -1.656  -4.737  -1.650  0.00  0.00    -0.026 A 
ATOM      2  C   UNL     1      -2.050  -5.322  -0.461  0.00  0.00    +0.005 A 
ATOM      3  C   UNL     1      -3.391  -5.551  -0.215  0.00  0.00    +0.000 A 
ATOM      4  C   UNL     1      -4.338  -5.196  -1.158  0.00  0.00    +0.000 A 
ATOM      5  C   UNL     1      -3.944  -4.611  -2.346  0.00  0.00    +0.005 A 
ATOM      6  C   UNL     1      -2.603  -4.377  -2.591  0.00  0.00    -0.029 A 
ENDROOT
BRANCH   1   7
ATOM      7  C   UNL     1      -0.195  -4.486  -1.919  0.00  0.00    +0.139 C 
BRANCH   7  10
ATOM      8  C   UNL     1       1.381  -2.632  -1.787  0.00  0.00    +0.221 C 
ATOM      9  O   UNL     1       2.249  -3.380  -2.185  0.00  0.00    -0.275 OA
ATOM     10  N   UNL     1       0.124  -3.087  -1.620  0.00  0.00    -0.311 N 
ATOM     11  H   UNL     1      -0.571  -2.489  -1.301  0.00  0.00    +0.149 HD
BRANCH   8  12
ATOM     12  C   UNL     1       1.709  -1.194  -1.479  0.00  0.00    +0.105 C 
BRANCH  12  13
ATOM     13  C   UNL     1       3.170  -0.943  -1.748  0.00  0.00    -0.036 A 
ATOM     14  C   UNL     1       4.132  -1.663  -1.064  0.00  0.00    +0.004 A 
ATOM     15  C   UNL     1       5.473  -1.433  -1.310  0.00  0.00    +0.000 A 
ATOM     16  C   UNL     1       5.852  -0.483  -2.240  0.00  0.00    +0.000 A 
ATOM     17  C   UNL     1       4.890   0.236  -2.925  0.00  0.00    +0.000 A 
ATOM     18  C   UNL     1       3.549   0.003  -2.682  0.00  0.00    +0.004 A 
ENDBRANCH  12  13
BRANCH  12  20
ATOM     19  C   UNL     1       1.617   0.584   0.274  0.00  0.00    +0.005 C 
ATOM     20  C   UNL     1       1.403  -0.904  -0.008  0.00  0.00    +0.014 C 
ENDBRANCH  12  20
ENDBRANCH   8  12
ENDBRANCH   7  10
ENDBRANCH   1   7
BRANCH   6  21
ATOM     21  C   UNL     1      -2.174  -3.734  -3.884  0.00  0.00    +0.119 C 
BRANCH  21  22
ATOM     22  N   UNL     1      -1.917  -2.305  -3.659  0.00  0.00    -0.302 NA
ATOM     23  C   UNL     1      -3.171  -1.574  -3.428  0.00  0.00    +0.066 C 
ATOM     24  C   UNL     1      -2.855  -0.105  -3.139  0.00  0.00    -0.063 C 
ATOM     25  N   UNL     1      -2.133   0.475  -4.280  0.00  0.00    +0.381 N 
ATOM     26  C   UNL     1      -0.872  -0.250  -4.483  0.00  0.00    -0.063 C 
ATOM     27  C   UNL     1      -1.171  -1.721  -4.783  0.00  0.00    +0.066 C 
ATOM     28  H   UNL     1      -2.701   0.400  -5.110  0.00  0.00    -0.082 HD
BRANCH  25  29
ATOM     29  C   UNL     1      -1.846   1.890  -4.010  0.00  0.00    -0.082 C 
ATOM     30  C   UNL     1      -1.206   2.525  -5.246  0.00  0.00    -0.017 C 
ENDBRANCH  25  29
ENDBRANCH  21  22
ENDBRANCH   6  21
TORSDOF 8
