REMARK  Name = ZINC09816780
REMARK  6 active torsions:
REMARK  status: ('A' for Active; 'I' for Inactive)
REMARK    1  A    between atoms: C_1  and  C_2
REMARK    2  A    between atoms: C_12  and  C_14
REMARK    3  A    between atoms: C_14  and  S_15
REMARK    4  A    between atoms: S_15  and  C_16
REMARK    5  A    between atoms: N_19  and  N_23
REMARK    6  A    between atoms: C_28  and  N_58
REMARK                            x       y       z     vdW  Elec       q    Type
REMARK                         _______ _______ _______ _____ _____    ______ ____
ROOT
ATOM      1  C   UNL     1       4.017   1.961  -0.026  0.00  0.00    +0.108 A 
ATOM      2  C   UNL     1       5.347   1.487  -0.035  0.00  0.00    +0.006 A 
ATOM      3  C   UNL     1       6.361   2.381  -0.045  0.00  0.00    +0.050 A 
ATOM      4  N   UNL     1       6.070   3.716  -0.036  0.00  0.00    -0.216 N 
ATOM      5  C   UNL     1       4.793   4.136  -0.021  0.00  0.00    +0.367 A 
ATOM      6  O   UNL     1       4.555   5.332  -0.012  0.00  0.00    -0.243 OA
ATOM      7  N   UNL     1       3.784   3.267  -0.017  0.00  0.00    -0.185 NA
ATOM      8  C   UNL     1       7.692   1.664  -0.062  0.00  0.00    +0.056 C 
ATOM      9  C   UNL     1       7.363   0.219  -0.499  0.00  0.00    +0.011 C 
ATOM     10  C   UNL     1       5.892   0.076  -0.052  0.00  0.00    +0.040 C 
ENDROOT
BRANCH   4  11
ATOM     11  N   UNL     1       7.085   4.631  -0.041  0.00  0.00    -0.271 N 
ATOM     12  C   UNL     1       7.083   5.427   1.194  0.00  0.00    +0.106 C 
ATOM     13  C   UNL     1       8.278   6.382   1.184  0.00  0.00    -0.058 C 
ATOM     14  C   UNL     1       8.201   6.454  -1.234  0.00  0.00    -0.058 C 
ATOM     15  C   UNL     1       7.005   5.499  -1.224  0.00  0.00    +0.106 C 
ATOM     16  C   UNL     1       9.290   8.234  -0.005  0.00  0.00    -0.096 C 
ATOM     17  N   UNL     1       8.174   7.264   0.002  0.00  0.00    +0.380 N 
ATOM     18  H   UNL     1       7.286   7.777   0.046  0.00  0.00    -0.082 HD
ENDBRANCH   4  11
BRANCH   1  19
ATOM     19  S   UNL     1       2.672   0.822  -0.019  0.00  0.00    -0.096 S 
BRANCH  19  20
ATOM     20  C   UNL     1       1.280   1.980   0.001  0.00  0.00    +0.172 C 
BRANCH  20  32
ATOM     21  C   UNL     1      -7.911  -2.029   0.030  0.00  0.00    +0.044 C 
ATOM     22  C   UNL     1      -6.479  -1.558   0.025  0.00  0.00    -0.049 A 
ATOM     23  C   UNL     1      -5.439  -2.477   0.016  0.00  0.00    +0.005 A 
ATOM     24  C   UNL     1      -4.129  -2.075   0.012  0.00  0.00    +0.029 A 
ATOM     25  C   UNL     1      -3.795  -0.701   0.017  0.00  0.00    +0.080 A 
ATOM     26  C   UNL     1      -4.879   0.205   0.026  0.00  0.00    +0.041 A 
ATOM     27  C   UNL     1      -6.189  -0.206   0.030  0.00  0.00    +0.020 A 
ATOM     28  S   UNL     1      -4.056   1.780   0.038  0.00  0.00    -0.052 S 
ATOM     29  C   UNL     1      -2.381   1.157   0.020  0.00  0.00    +0.165 A 
ATOM     30  N   UNL     1      -2.565  -0.142   0.014  0.00  0.00    -0.225 NA
ATOM     31  N   UNL     1      -1.191   1.866   0.018  0.00  0.00    -0.264 N 
ATOM     32  C   UNL     1      -0.014   1.208   0.009  0.00  0.00    +0.229 C 
ATOM     33  O   UNL     1       0.002  -0.004   0.002  0.00  0.00    -0.275 OA
ATOM     34  H   UNL     1      -1.204   2.836   0.023  0.00  0.00    +0.157 HD
ENDBRANCH  20  32
ENDBRANCH  19  20
ENDBRANCH   1  19
TORSDOF 4
