REMARK  Name = ZINC47516658
REMARK  8 active torsions:
REMARK  status: ('A' for Active; 'I' for Inactive)
REMARK    1  A    between atoms: C_1  and  O_2
REMARK    2  A    between atoms: O_2  and  C_3
REMARK    3  A    between atoms: C_6  and  C_9
REMARK    4  A    between atoms: C_9  and  C_10
REMARK    5  A    between atoms: N_18  and  C_19
REMARK    6  A    between atoms: C_24  and  S_25
REMARK    7  A    between atoms: S_25  and  C_26
REMARK    8  A    between atoms: C_26  and  C_27
REMARK                            x       y       z     vdW  Elec       q    Type
REMARK                         _______ _______ _______ _____ _____    ______ ____
ROOT
ATOM      1  C   UNL     1       4.115  -2.767  -4.129  0.00  0.00    +0.082 C 
ATOM      2  C   UNL     1       4.733  -3.289  -5.443  0.00  0.00    +0.024 C 
ATOM      3  C   UNL     1       5.639  -4.454  -4.963  0.00  0.00    +0.021 C 
ATOM      4  C   UNL     1       4.806  -5.033  -3.792  0.00  0.00    +0.110 C 
ATOM      5  N   UNL     1       4.195  -3.855  -3.143  0.00  0.00    -0.282 N 
ATOM      6  C   UNL     1       3.780  -3.786  -1.862  0.00  0.00    +0.307 C 
ATOM      7  O   UNL     1       3.203  -2.793  -1.463  0.00  0.00    -0.252 OA
ATOM      8  N   UNL     1       4.005  -4.818  -1.025  0.00  0.00    -0.268 N 
ATOM      9  H   UNL     1       4.396  -5.639  -1.361  0.00  0.00    +0.156 HD
ENDROOT
BRANCH   8  10
ATOM     10  C   UNL     1       3.673  -4.704   0.333  0.00  0.00    +0.048 A 
ATOM     11  C   UNL     1       3.553  -3.452   0.916  0.00  0.00    +0.024 A 
ATOM     12  C   UNL     1       3.227  -3.342   2.255  0.00  0.00    +0.002 A 
ATOM     13  C   UNL     1       3.019  -4.478   3.016  0.00  0.00    +0.001 A 
ATOM     14  C   UNL     1       3.136  -5.730   2.443  0.00  0.00    +0.016 A 
ATOM     15  C   UNL     1       3.458  -5.850   1.099  0.00  0.00    +0.030 A 
BRANCH  15  16
ATOM     16  S   UNL     1       3.601  -7.444   0.363  0.00  0.00    -0.114 S 
BRANCH  16  17
ATOM     17  C   UNL     1       3.240  -8.589   1.723  0.00  0.00    +0.169 C 
BRANCH  17  18
ATOM     18  C   UNL     1       3.329 -10.008   1.222  0.00  0.00    +0.221 C 
ATOM     19  O   UNL     1       3.609 -10.225   0.062  0.00  0.00    -0.275 OA
ATOM     20  N   UNL     1       3.098 -11.035   2.064  0.00  0.00    -0.329 N 
ATOM     21  H   UNL     1       2.874 -10.861   2.991  0.00  0.00    +0.145 HD
ATOM     22  H   UNL     1       3.155 -11.948   1.742  0.00  0.00    +0.145 HD
ENDBRANCH  17  18
ENDBRANCH  16  17
ENDBRANCH  15  16
ENDBRANCH   8  10
BRANCH   1  23
ATOM     23  C   UNL     1       2.653  -2.380  -4.359  0.00  0.00    +0.057 C 
BRANCH  23  27
ATOM     24  C   UNL     1       2.470   1.039  -6.917  0.00  0.00    +0.120 A 
ATOM     25  C   UNL     1       2.515  -0.236  -7.463  0.00  0.00    +0.046 A 
ATOM     26  C   UNL     1       2.574  -1.339  -6.634  0.00  0.00    +0.007 A 
ATOM     27  C   UNL     1       2.589  -1.174  -5.261  0.00  0.00    -0.045 A 
ATOM     28  C   UNL     1       2.545   0.095  -4.715  0.00  0.00    +0.007 A 
ATOM     29  C   UNL     1       2.491   1.202  -5.540  0.00  0.00    +0.046 A 
BRANCH  24  31
ATOM     30  C   UNL     1       2.394   1.882  -9.138  0.00  0.00    +0.277 C 
ATOM     31  O   UNL     1       2.413   2.126  -7.731  0.00  0.00    -0.495 OA
ENDBRANCH  24  31
ENDBRANCH  23  27
ENDBRANCH   1  23
TORSDOF 7
