REMARK  Name = ZINC12376329
REMARK  7 active torsions:
REMARK  status: ('A' for Active; 'I' for Inactive)
REMARK    1  A    between atoms: C_4  and  C_7
REMARK    2  A    between atoms: C_7  and  C_8
REMARK    3  A    between atoms: C_8  and  N_9
REMARK    4  A    between atoms: N_9  and  C_10
REMARK    5  A    between atoms: C_12  and  N_19
REMARK    6  A    between atoms: C_15  and  N_16
REMARK    7  A    between atoms: N_27  and  C_28
REMARK                            x       y       z     vdW  Elec       q    Type
REMARK                         _______ _______ _______ _____ _____    ______ ____
ROOT
ATOM      1  N   UNL     1      -8.452  -0.956   1.761  0.00  0.00    -0.327 N 
ATOM      2  C   UNL     1      -7.612  -0.281   2.759  0.00  0.00    +0.124 C 
ATOM      3  C   UNL     1      -7.150   1.071   2.204  0.00  0.00    +0.128 C 
ATOM      4  N   UNL     1      -6.507   0.845   0.900  0.00  0.00    -0.283 N 
ATOM      5  C   UNL     1      -7.236   0.061  -0.109  0.00  0.00    +0.128 C 
ATOM      6  C   UNL     1      -7.692  -1.255   0.540  0.00  0.00    +0.124 C 
ATOM      7  C   UNL     1      -5.285   1.347   0.636  0.00  0.00    +0.303 C 
ATOM      8  O   UNL     1      -4.806   1.228  -0.475  0.00  0.00    -0.253 OA
ATOM      9  N   UNL     1      -4.593   1.981   1.603  0.00  0.00    -0.294 N 
ATOM     10  H   UNL     1      -5.003   2.141   2.467  0.00  0.00    +0.151 HD
ENDROOT
BRANCH   9  11
ATOM     11  C   UNL     1      -3.221   2.427   1.350  0.00  0.00    +0.037 C 
ATOM     12  C   UNL     1      -2.668   3.112   2.601  0.00  0.00    +0.029 C 
ATOM     13  C   UNL     1      -1.235   3.578   2.337  0.00  0.00    -0.008 C 
ATOM     14  C   UNL     1      -1.227   4.566   1.169  0.00  0.00    +0.007 C 
ATOM     15  C   UNL     1      -1.780   3.881  -0.082  0.00  0.00    -0.008 C 
ATOM     16  C   UNL     1      -3.213   3.415   0.182  0.00  0.00    +0.029 C 
ATOM     17  C   UNL     1      -0.907   2.674  -0.431  0.00  0.00    +0.007 C 
ATOM     18  C   UNL     1      -0.915   1.686   0.737  0.00  0.00    -0.008 C 
ATOM     19  C   UNL     1      -0.362   2.371   1.989  0.00  0.00    +0.007 C 
ATOM     20  C   UNL     1      -2.348   1.220   1.002  0.00  0.00    +0.029 C 
ENDBRANCH   9  11
BRANCH   1  23
ATOM     21  C   UNL     1     -10.425  -4.050   2.035  0.00  0.00    +0.059 A 
ATOM     22  C   UNL     1      -9.857  -2.899   1.505  0.00  0.00    +0.048 A 
ATOM     23  C   UNL     1      -9.025  -2.114   2.291  0.00  0.00    +0.032 A 
ATOM     24  C   UNL     1      -8.759  -2.485   3.603  0.00  0.00    +0.025 A 
ATOM     25  C   UNL     1      -9.331  -3.627   4.130  0.00  0.00    +0.036 A 
ATOM     26  C   UNL     1     -10.159  -4.411   3.350  0.00  0.00    +0.147 A 
BRANCH  26  27
ATOM     27  N   UNL     1     -10.764  -5.638   3.916  0.00  0.00    +0.058 N 
ATOM     28  O   UNL     1     -11.146  -5.650   5.072  0.00  0.00    -0.126 OA
ATOM     29  O   UNL     1     -10.880  -6.634   3.225  0.00  0.00    -0.126 OA
ENDBRANCH  26  27
BRANCH  21  30
ATOM     30  N   UNL     1     -11.262  -4.842   1.247  0.00  0.00    -0.342 N 
ATOM     31  H   UNL     1     -11.744  -5.584   1.646  0.00  0.00    +0.146 HD
BRANCH  30  32
ATOM     32  C   UNL     1     -11.414  -4.554  -0.181  0.00  0.00    +0.106 C 
BRANCH  32  33
ATOM     33  C   UNL     1     -12.379  -5.563  -0.806  0.00  0.00    +0.054 C 
BRANCH  33  37
ATOM     34  C   UNL     1     -12.820  -4.724  -4.971  0.00  0.00    +0.000 A 
ATOM     35  C   UNL     1     -11.830  -5.588  -4.541  0.00  0.00    +0.000 A 
ATOM     36  C   UNL     1     -11.688  -5.859  -3.193  0.00  0.00    +0.004 A 
ATOM     37  C   UNL     1     -12.535  -5.267  -2.275  0.00  0.00    -0.046 A 
ATOM     38  C   UNL     1     -13.528  -4.407  -2.706  0.00  0.00    +0.004 A 
ATOM     39  C   UNL     1     -13.667  -4.131  -4.053  0.00  0.00    +0.000 A 
ENDBRANCH  33  37
ENDBRANCH  32  33
ENDBRANCH  30  32
ENDBRANCH  21  30
ENDBRANCH   1  23
TORSDOF 7
