REMARK  Name = ZINC20764264
REMARK  9 active torsions:
REMARK  status: ('A' for Active; 'I' for Inactive)
REMARK    1  A    between atoms: C_1  and  C_2
REMARK    2  A    between atoms: C_2  and  O_3
REMARK    3  A    between atoms: O_3  and  C_4
REMARK    4  A    between atoms: C_8  and  C_11
REMARK    5  A    between atoms: C_9  and  O_10
REMARK    6  A    between atoms: C_14  and  C_27
REMARK    7  A    between atoms: C_16  and  C_19
REMARK    8  A    between atoms: C_30  and  O_33
REMARK    9  A    between atoms: O_33  and  C_34
REMARK                            x       y       z     vdW  Elec       q    Type
REMARK                         _______ _______ _______ _____ _____    ______ ____
ROOT
ATOM      1  C   UNL     1       1.190   1.507   2.504  0.00  0.00    -0.028 C 
ATOM      2  C   UNL     1       0.177   2.605   2.843  0.00  0.00    +0.044 C 
ATOM      3  C   UNL     1      -0.256   2.462   4.276  0.00  0.00    +0.040 C 
ATOM      4  N   UNL     1       0.378   1.750   5.130  0.00  0.00    -0.299 NA
ATOM      5  C   UNL     1       1.581   0.986   4.827  0.00  0.00    +0.081 C 
ATOM      6  N   UNL     1       2.195   1.459   3.580  0.00  0.00    +0.401 N 
ATOM      7  H   UNL     1       3.005   0.771   3.294  0.00  0.00    -0.081 HD
ATOM      8  H   UNL     1       2.608   2.465   3.741  0.00  0.00    -0.081 HD
ENDROOT
BRANCH   5   9
ATOM      9  C   UNL     1       1.222  -0.470   4.681  0.00  0.00    -0.039 A 
ATOM     10  C   UNL     1       0.159  -0.994   5.393  0.00  0.00    +0.006 A 
ATOM     11  C   UNL     1      -0.172  -2.329   5.261  0.00  0.00    +0.040 A 
ATOM     12  C   UNL     1       0.560  -3.143   4.414  0.00  0.00    +0.137 A 
ATOM     13  C   UNL     1       1.625  -2.618   3.700  0.00  0.00    +0.053 A 
ATOM     14  C   UNL     1       1.951  -1.280   3.830  0.00  0.00    +0.022 A 
ATOM     15 BR   UNL     1       2.628  -3.727   2.543  0.00  0.00    -0.047 Br
ATOM     16  F   UNL     1       0.237  -4.448   4.283  0.00  0.00    -0.204 F 
ENDBRANCH   5   9
BRANCH   1  21
ATOM     17  C   UNL     1       1.845   1.831  -1.210  0.00  0.00    +0.162 A 
ATOM     18  C   UNL     1       3.103   2.412  -1.214  0.00  0.00    +0.049 A 
ATOM     19  C   UNL     1       3.738   2.693  -0.018  0.00  0.00    +0.004 A 
ATOM     20  C   UNL     1       3.120   2.397   1.183  0.00  0.00    +0.006 A 
ATOM     21  C   UNL     1       1.863   1.823   1.193  0.00  0.00    -0.016 A 
ATOM     22  C   UNL     1       1.224   1.533  -0.001  0.00  0.00    +0.160 A 
BRANCH  22  23
ATOM     23  O   UNL     1      -0.011   0.963   0.007  0.00  0.00    -0.503 OA
ATOM     24  H   UNL     1      -0.501   0.727   0.963  0.00  0.00    +0.292 HD
ENDBRANCH  22  23
BRANCH  17  25
ATOM     25  O   UNL     1       1.219   1.555  -2.385  0.00  0.00    -0.489 OA
BRANCH  25  27
ATOM     26  C   UNL     1       1.062   1.506  -4.796  0.00  0.00    +0.048 C 
ATOM     27  C   UNL     1       1.917   1.889  -3.587  0.00  0.00    +0.226 C 
ENDBRANCH  25  27
ENDBRANCH  17  25
ENDBRANCH   1  21
BRANCH   3  28
ATOM     28  C   UNL     1      -1.468   3.176   4.717  0.00  0.00    -0.004 A 
ATOM     29  C   UNL     1      -2.184   3.967   3.814  0.00  0.00    +0.013 A 
ATOM     30  C   UNL     1      -3.319   4.628   4.229  0.00  0.00    +0.046 A 
ATOM     31  C   UNL     1      -3.747   4.517   5.546  0.00  0.00    +0.120 A 
ATOM     32  C   UNL     1      -3.035   3.736   6.449  0.00  0.00    +0.046 A 
ATOM     33  C   UNL     1      -1.903   3.067   6.041  0.00  0.00    +0.013 A 
BRANCH  31  34
ATOM     34  O   UNL     1      -4.863   5.175   5.953  0.00  0.00    -0.495 OA
ATOM     35  C   UNL     1      -5.546   5.960   4.974  0.00  0.00    +0.277 C 
ENDBRANCH  31  34
ENDBRANCH   3  28
TORSDOF 7
