REMARK  Name = ZINC09542876
REMARK  7 active torsions:
REMARK  status: ('A' for Active; 'I' for Inactive)
REMARK    1  A    between atoms: C_1  and  C_2
REMARK    2  A    between atoms: C_5  and  C_8
REMARK    3  A    between atoms: C_10  and  C_23
REMARK    4  A    between atoms: C_12  and  C_15
REMARK    5  A    between atoms: C_20  and  O_21
REMARK    6  A    between atoms: C_26  and  O_30
REMARK    7  A    between atoms: O_30  and  C_31
REMARK                            x       y       z     vdW  Elec       q    Type
REMARK                         _______ _______ _______ _____ _____    ______ ____
ROOT
ATOM      1  C   UNL     1      -2.502   1.009   0.019  0.00  0.00    +0.040 C 
ATOM      2  N   UNL     1      -2.454  -0.270   0.012  0.00  0.00    -0.299 NA
ATOM      3  C   UNL     1      -3.630  -1.132   0.024  0.00  0.00    +0.081 C 
ATOM      4  C   UNL     1      -4.942   0.852   0.420  0.00  0.00    -0.028 C 
ATOM      5  C   UNL     1      -3.790   1.783   0.036  0.00  0.00    +0.044 C 
ATOM      6  N   UNL     1      -4.830  -0.383  -0.379  0.00  0.00    +0.401 N 
ATOM      7  H   UNL     1      -5.662  -0.965  -0.225  0.00  0.00    -0.081 HD
ATOM      8  H   UNL     1      -4.762  -0.140  -1.374  0.00  0.00    -0.081 HD
ENDROOT
BRANCH   1  13
ATOM      9  C   UNL     1       2.452   3.933  -0.001  0.00  0.00    +0.044 C 
ATOM     10  C   UNL     1       1.155   3.167   0.008  0.00  0.00    -0.050 A 
ATOM     11  C   UNL     1       1.172   1.783   0.000  0.00  0.00    +0.004 A 
ATOM     12  C   UNL     1      -0.013   1.076   0.008  0.00  0.00    +0.010 A 
ATOM     13  C   UNL     1      -1.230   1.759   0.017  0.00  0.00    -0.004 A 
ATOM     14  C   UNL     1      -1.240   3.155   0.030  0.00  0.00    +0.010 A 
ATOM     15  C   UNL     1      -0.048   3.850   0.022  0.00  0.00    +0.004 A 
ENDBRANCH   1  13
BRANCH   4  16
ATOM     16  C   UNL     1      -6.260   1.524   0.129  0.00  0.00    -0.018 A 
ATOM     17  C   UNL     1      -6.945   1.227  -1.034  0.00  0.00    +0.025 A 
ATOM     18  C   UNL     1      -8.156   1.839  -1.299  0.00  0.00    +0.041 A 
ATOM     19  C   UNL     1      -8.679   2.759  -0.406  0.00  0.00    +0.023 A 
ATOM     20  C   UNL     1      -7.995   3.062   0.755  0.00  0.00    +0.047 A 
ATOM     21  C   UNL     1      -6.782   2.444   1.025  0.00  0.00    +0.119 A 
ATOM     22 CL   UNL     1      -9.018   1.460  -2.757  0.00  0.00    -0.084 Cl
BRANCH  21  23
ATOM     23  O   UNL     1      -6.107   2.742   2.167  0.00  0.00    -0.507 OA
ATOM     24  H   UNL     1      -5.487   3.478   2.077  0.00  0.00    +0.292 HD
ENDBRANCH  21  23
ENDBRANCH   4  16
BRANCH   3  25
ATOM     25  C   UNL     1      -3.417  -2.274  -0.936  0.00  0.00    -0.039 A 
ATOM     26  C   UNL     1      -2.139  -2.747  -1.174  0.00  0.00    +0.007 A 
ATOM     27  C   UNL     1      -1.941  -3.794  -2.053  0.00  0.00    +0.047 A 
ATOM     28  C   UNL     1      -3.025  -4.372  -2.697  0.00  0.00    +0.134 A 
ATOM     29  C   UNL     1      -4.307  -3.896  -2.458  0.00  0.00    +0.060 A 
ATOM     30  C   UNL     1      -4.500  -2.851  -1.573  0.00  0.00    +0.022 A 
ATOM     31 BR   UNL     1      -5.787  -4.681  -3.333  0.00  0.00    -0.047 Br
BRANCH  28  32
ATOM     32  O   UNL     1      -2.833  -5.402  -3.563  0.00  0.00    -0.494 OA
ATOM     33  C   UNL     1      -1.487  -5.840  -3.762  0.00  0.00    +0.277 C 
ENDBRANCH  28  32
ENDBRANCH   3  25
TORSDOF 5
