REMARK  Name = ZINC19333624
REMARK  7 active torsions:
REMARK  status: ('A' for Active; 'I' for Inactive)
REMARK    1  A    between atoms: C_1  and  C_2
REMARK    2  A    between atoms: C_2  and  C_3
REMARK    3  A    between atoms: C_3  and  C_4
REMARK    4  A    between atoms: C_6  and  C_26
REMARK    5  A    between atoms: C_10  and  C_14
REMARK    6  A    between atoms: C_21  and  O_24
REMARK    7  A    between atoms: O_24  and  C_25
REMARK                            x       y       z     vdW  Elec       q    Type
REMARK                         _______ _______ _______ _____ _____    ______ ____
ROOT
ATOM      1  C   UNL     1       0.763  -2.041   1.233  0.00  0.00    -0.003 C 
ATOM      2  C   UNL     1       1.508  -2.563   2.468  0.00  0.00    +0.018 C 
ATOM      3  C   UNL     1       1.516  -4.096   2.422  0.00  0.00    -0.006 C 
ATOM      4  C   UNL     1       2.209  -4.546   1.131  0.00  0.00    +0.094 C 
ATOM      5  N   UNL     1       1.461  -4.020  -0.021  0.00  0.00    -0.282 NA
ATOM      6  C   UNL     1       1.478  -2.549  -0.024  0.00  0.00    +0.094 C 
ATOM      7  C   UNL     1       0.080  -4.524  -0.016  0.00  0.00    +0.160 C 
ATOM      8  N   UNL     1      -0.603  -4.068   1.203  0.00  0.00    -0.282 NA
ATOM      9  C   UNL     1       0.067  -4.596   2.401  0.00  0.00    +0.094 C 
ATOM     10  C   UNL     1      -0.670  -2.585   1.238  0.00  0.00    +0.094 C 
ATOM     11  C   UNL     1       2.245  -4.653   3.647  0.00  0.00    +0.014 C 
ENDROOT
BRANCH   7  12
ATOM     12  C   UNL     1      -0.650  -4.001  -1.227  0.00  0.00    +0.009 A 
ATOM     13  C   UNL     1      -0.097  -3.620  -2.389  0.00  0.00    +0.090 A 
ATOM     14  N   UNL     1      -1.071  -3.203  -3.255  0.00  0.00    -0.360 N 
ATOM     15  H   UNL     1      -0.915  -2.881  -4.156  0.00  0.00    +0.165 HD
ATOM     16  C   UNL     1      -2.308  -3.309  -2.654  0.00  0.00    +0.047 A 
ATOM     17  C   UNL     1      -2.097  -3.819  -1.360  0.00  0.00    +0.009 A 
ATOM     18  C   UNL     1      -3.184  -4.039  -0.511  0.00  0.00    +0.056 A 
ATOM     19  C   UNL     1      -4.462  -3.756  -0.951  0.00  0.00    +0.121 A 
ATOM     20  C   UNL     1      -4.667  -3.254  -2.233  0.00  0.00    +0.047 A 
ATOM     21  C   UNL     1      -3.602  -3.026  -3.076  0.00  0.00    +0.030 A 
BRANCH  19  22
ATOM     22  O   UNL     1      -5.524  -3.968  -0.128  0.00  0.00    -0.495 OA
ATOM     23  C   UNL     1      -6.818  -3.654  -0.646  0.00  0.00    +0.277 C 
ENDBRANCH  19  22
ENDBRANCH   7  12
BRANCH   1  24
ATOM     24  C   UNL     1       0.742  -0.511   1.242  0.00  0.00    +0.009 C 
BRANCH  24  26
ATOM     25  C   UNL     1      -0.019   1.526   0.010  0.00  0.00    +0.004 C 
ATOM     26  C   UNL     1       0.002  -0.004   0.002  0.00  0.00    -0.003 C 
ENDBRANCH  24  26
ENDBRANCH   1  24
TORSDOF 4
