REMARK  Name = ZINC32180943
REMARK  6 active torsions:
REMARK  status: ('A' for Active; 'I' for Inactive)
REMARK    1  A    between atoms: C_1  and  C_2
REMARK    2  A    between atoms: C_6  and  C_35
REMARK    3  A    between atoms: C_7  and  N_8
REMARK    4  A    between atoms: N_8  and  S_9
REMARK    5  A    between atoms: S_9  and  C_12
REMARK    6  A    between atoms: C_25  and  C_28
REMARK                            x       y       z     vdW  Elec       q    Type
REMARK                         _______ _______ _______ _____ _____    ______ ____
ROOT
ATOM      1  C   UNL     1      -0.645   1.685   0.895  0.00  0.00    +0.109 A 
ATOM      2  C   UNL     1       0.459   0.920   1.227  0.00  0.00    +0.030 A 
ATOM      3  C   UNL     1       1.625   1.541   1.628  0.00  0.00    +0.025 A 
ATOM      4  C   UNL     1       1.685   2.927   1.703  0.00  0.00    +0.031 A 
ATOM      5  C   UNL     1       0.580   3.697   1.375  0.00  0.00    -0.018 A 
ATOM      6  C   UNL     1      -0.588   3.061   0.974  0.00  0.00    +0.034 A 
ATOM      7  C   UNL     1       0.598   5.191   1.436  0.00  0.00    +0.049 C 
ATOM      8  C   UNL     1      -0.161   5.704   2.637  0.00  0.00    -0.023 C 
ATOM      9  C   UNL     1       0.430   6.766   3.128  0.00  0.00    -0.030 C 
ATOM     10  C   UNL     1       1.663   7.111   2.315  0.00  0.00    +0.033 C 
ATOM     11  C   UNL     1       2.017   5.768   1.609  0.00  0.00    +0.029 C 
ATOM     12  C   UNL     1       2.806   4.921   2.611  0.00  0.00    +0.106 C 
ATOM     13  N   UNL     1       2.871   3.541   2.118  0.00  0.00    -0.336 N 
ATOM     14  H   UNL     1       3.837   3.015   2.081  0.00  0.00    +0.147 HD
ENDROOT
BRANCH  12  15
ATOM     15  C   UNL     1       4.201   5.473   2.751  0.00  0.00    -0.013 A 
ATOM     16  C   UNL     1       4.684   6.374   1.820  0.00  0.00    +0.006 A 
ATOM     17  C   UNL     1       5.962   6.885   1.951  0.00  0.00    +0.000 A 
ATOM     18  C   UNL     1       6.761   6.487   3.007  0.00  0.00    +0.001 A 
ATOM     19  C   UNL     1       6.281   5.582   3.935  0.00  0.00    +0.015 A 
ATOM     20  C   UNL     1       5.000   5.075   3.808  0.00  0.00    +0.023 A 
ATOM     21 BR   UNL     1       4.342   3.838   5.077  0.00  0.00    -0.050 Br
ENDBRANCH  12  15
BRANCH   1  22
ATOM     22  S   UNL     1      -2.134   0.897   0.378  0.00  0.00    +0.072 S 
ATOM     23  O   UNL     1      -2.798   1.810  -0.485  0.00  0.00    -0.150 OA
ATOM     24  O   UNL     1      -1.777  -0.416  -0.032  0.00  0.00    -0.150 OA
BRANCH  22  25
ATOM     25  N   UNL     1      -3.091   0.730   1.719  0.00  0.00    -0.216 N 
ATOM     26  H   UNL     1      -3.298  -0.270   2.126  0.00  0.00    +0.174 HD
BRANCH  25  33
ATOM     27  C   UNL     1      -1.948   1.610   4.171  0.00  0.00    +0.046 C 
ATOM     28  C   UNL     1      -3.110   2.325   3.530  0.00  0.00    -0.028 A 
ATOM     29  C   UNL     1      -3.648   3.446   4.131  0.00  0.00    +0.005 A 
ATOM     30  C   UNL     1      -4.718   4.099   3.547  0.00  0.00    +0.001 A 
ATOM     31  C   UNL     1      -5.248   3.636   2.357  0.00  0.00    +0.005 A 
ATOM     32  C   UNL     1      -4.711   2.519   1.748  0.00  0.00    -0.028 A 
ATOM     33  C   UNL     1      -3.637   1.861   2.332  0.00  0.00    +0.054 A 
ATOM     34  C   UNL     1      -5.290   2.016   0.450  0.00  0.00    +0.046 C 
ENDBRANCH  25  33
ENDBRANCH  22  25
ENDBRANCH   1  22
TORSDOF 4
