REMARK  Name = ZINC56611830
REMARK  9 active torsions:
REMARK  status: ('A' for Active; 'I' for Inactive)
REMARK    1  A    between atoms: C_1  and  C_2
REMARK    2  A    between atoms: N_7  and  C_9
REMARK    3  A    between atoms: C_9  and  C_10
REMARK    4  A    between atoms: C_10  and  C_12
REMARK    5  A    between atoms: C_10  and  N_13
REMARK    6  A    between atoms: N_16  and  C_17
REMARK    7  A    between atoms: C_22  and  C_23
REMARK    8  A    between atoms: C_23  and  C_24
REMARK    9  A    between atoms: N_26  and  C_27
REMARK                            x       y       z     vdW  Elec       q    Type
REMARK                         _______ _______ _______ _____ _____    ______ ____
ROOT
ATOM      1  N   UNL     1      -0.083  -4.391   2.381  0.00  0.00    -0.298 N 
ATOM      2  C   UNL     1      -0.388  -5.620   1.920  0.00  0.00    +0.304 C 
ATOM      3  O   UNL     1       0.499  -6.388   1.603  0.00  0.00    -0.253 OA
ATOM      4  N   UNL     1      -1.677  -5.997   1.810  0.00  0.00    -0.269 N 
ATOM      5  H   UNL     1      -0.791  -3.778   2.633  0.00  0.00    +0.150 HD
ATOM      6  H   UNL     1      -2.382  -5.417   2.138  0.00  0.00    +0.156 HD
ENDROOT
BRANCH   4   7
ATOM      7  C   UNL     1      -1.999  -7.226   1.222  0.00  0.00    +0.038 A 
ATOM      8  C   UNL     1      -1.126  -7.814   0.317  0.00  0.00    +0.023 A 
ATOM      9  C   UNL     1      -1.446  -9.027  -0.261  0.00  0.00    +0.002 A 
ATOM     10  C   UNL     1      -2.636  -9.655   0.061  0.00  0.00    +0.000 A 
ATOM     11  C   UNL     1      -3.507  -9.072   0.962  0.00  0.00    +0.006 A 
ATOM     12  C   UNL     1      -3.190  -7.862   1.548  0.00  0.00    -0.017 A 
BRANCH  12  13
ATOM     13  C   UNL     1      -4.138  -7.230   2.534  0.00  0.00    +0.132 C 
BRANCH  13  14
ATOM     14  C   UNL     1      -5.027  -6.247   1.817  0.00  0.00    +0.217 C 
ATOM     15  O   UNL     1      -4.904  -6.077   0.623  0.00  0.00    -0.275 OA
ATOM     16  N   UNL     1      -5.960  -5.557   2.503  0.00  0.00    -0.318 N 
ATOM     17  C   UNL     1      -6.824  -4.602   1.806  0.00  0.00    +0.128 C 
ATOM     18  H   UNL     1      -6.059  -5.693   3.459  0.00  0.00    +0.148 HD
ENDBRANCH  13  14
ENDBRANCH  12  13
ENDBRANCH   4   7
BRANCH   1  19
ATOM     19  C   UNL     1       1.319  -3.981   2.500  0.00  0.00    +0.055 C 
ATOM     20  C   UNL     1       1.879  -4.462   3.840  0.00  0.00    +0.026 C 
BRANCH  19  21
ATOM     21  C   UNL     1       1.412  -2.455   2.427  0.00  0.00    -0.057 C 
BRANCH  21  27
ATOM     22  C   UNL     1      -0.022   1.509  -0.062  0.00  0.00    +0.005 C 
ATOM     23  C   UNL     1      -0.001  -0.021  -0.056  0.00  0.00    -0.031 C 
ATOM     24  C   UNL     1       0.718  -0.527  -1.309  0.00  0.00    -0.001 C 
ATOM     25  C   UNL     1       0.803  -2.055  -1.255  0.00  0.00    -0.018 C 
ATOM     26  C   UNL     1       1.516  -2.475   0.032  0.00  0.00    -0.079 C 
ATOM     27  N   UNL     1       0.766  -1.984   1.194  0.00  0.00    +0.381 N 
ATOM     28  C   UNL     1       0.741  -0.516   1.188  0.00  0.00    -0.076 C 
ATOM     29  H   UNL     1      -0.179  -2.335   1.156  0.00  0.00    -0.082 HD
ENDBRANCH  21  27
ENDBRANCH  19  21
ENDBRANCH   1  19
TORSDOF 6
