REMARK  Name = ZINC22557148
REMARK  3 active torsions:
REMARK  status: ('A' for Active; 'I' for Inactive)
REMARK    1  A    between atoms: C_4  and  C_13
REMARK    2  A    between atoms: C_13  and  S_14
REMARK    3  A    between atoms: S_14  and  C_15
REMARK                            x       y       z     vdW  Elec       q    Type
REMARK                         _______ _______ _______ _____ _____    ______ ____
ROOT
ATOM      1  C   UNL     1      -0.580   8.488   3.702  0.00  0.00    +0.016 A 
ATOM      2  C   UNL     1      -0.664   7.770   2.542  0.00  0.00    +0.013 A 
ATOM      3  C   UNL     1      -0.615   8.431   1.312  0.00  0.00    +0.022 A 
ATOM      4  C   UNL     1      -0.697   7.688   0.051  0.00  0.00    -0.020 A 
ATOM      5  C   UNL     1      -0.637   8.389  -1.111  0.00  0.00    +0.097 A 
ATOM      6  C   UNL     1      -0.495   9.793  -1.077  0.00  0.00    +0.338 A 
ATOM      7  O   UNL     1      -0.443  10.409  -2.126  0.00  0.00    -0.245 OA
ATOM      8  O   UNL     1      -0.416  10.466   0.081  0.00  0.00    -0.422 OA
ATOM      9  C   UNL     1      -0.469   9.829   1.271  0.00  0.00    +0.140 A 
ATOM     10  C   UNL     1      -0.385  10.540   2.461  0.00  0.00    +0.062 A 
ATOM     11  C   UNL     1      -0.440   9.869   3.666  0.00  0.00    +0.021 A 
ATOM     12 BR   UNL     1      -0.325  10.840   5.285  0.00  0.00    -0.050 Br
ENDROOT
BRANCH   4  13
ATOM     13  C   UNL     1      -0.849   6.189   0.044  0.00  0.00    +0.112 C 
BRANCH  13  14
ATOM     14  S   UNL     1       0.788   5.417   0.024  0.00  0.00    -0.092 S 
BRANCH  14  15
ATOM     15  C   UNL     1       0.325   3.717   0.019  0.00  0.00    +0.159 A 
ATOM     16  N   UNL     1      -0.880   3.160   0.028  0.00  0.00    -0.135 NA
ATOM     17  N   UNL     1      -1.034   1.909   0.016  0.00  0.00    -0.149 NA
ATOM     18  C   UNL     1      -0.013   1.076   0.008  0.00  0.00    +0.182 A 
ATOM     19  S   UNL     1       1.344   2.245   0.001  0.00  0.00    -0.048 S 
ENDBRANCH  14  15
ENDBRANCH  13  14
ENDBRANCH   4  13
TORSDOF 3
