REMARK  Name = ZINC36242801
REMARK  5 active torsions:
REMARK  status: ('A' for Active; 'I' for Inactive)
REMARK    1  A    between atoms: C_1  and  C_2
REMARK    2  A    between atoms: C_2  and  C_3
REMARK    3  A    between atoms: C_2  and  C_4
REMARK    4  A    between atoms: C_9  and  N_10
REMARK    5  A    between atoms: C_12  and  N_18
REMARK                            x       y       z     vdW  Elec       q    Type
REMARK                         _______ _______ _______ _____ _____    ______ ____
ROOT
ATOM      1  N   UNL     1      -1.079  -1.471  -2.183  0.00  0.00    -0.298 N 
ATOM      2  C   UNL     1      -1.319  -2.567  -3.009  0.00  0.00    +0.144 A 
ATOM      3  C   UNL     1      -0.431  -2.859  -4.049  0.00  0.00    +0.066 A 
ATOM      4  C   UNL     1      -0.685  -3.956  -4.862  0.00  0.00    +0.043 A 
ATOM      5  C   UNL     1      -1.817  -4.721  -4.607  0.00  0.00    +0.038 A 
ATOM      6  C   UNL     1      -2.648  -4.372  -3.561  0.00  0.00    +0.128 A 
ATOM      7  N   UNL     1      -2.381  -3.327  -2.799  0.00  0.00    -0.237 NA
ATOM      8 BR   UNL     1      -2.214  -6.225  -5.681  0.00  0.00    -0.049 Br
ATOM      9  H   UNL     1      -0.257  -0.964  -2.277  0.00  0.00    +0.154 HD
ENDROOT
BRANCH   1  15
ATOM     10  C   UNL     1      -1.608  -0.541  -0.019  0.00  0.00    -0.024 A 
ATOM     11  C   UNL     1      -2.544  -0.172   0.927  0.00  0.00    +0.006 A 
ATOM     12  C   UNL     1      -3.891  -0.364   0.682  0.00  0.00    +0.000 A 
ATOM     13  C   UNL     1      -4.306  -0.927  -0.511  0.00  0.00    +0.002 A 
ATOM     14  C   UNL     1      -3.376  -1.299  -1.462  0.00  0.00    +0.023 A 
ATOM     15  C   UNL     1      -2.022  -1.101  -1.221  0.00  0.00    +0.036 A 
BRANCH  10  17
ATOM     16  C   UNL     1       0.151   1.167   0.351  0.00  0.00    +0.012 C 
ATOM     17  C   UNL     1      -0.140  -0.331   0.249  0.00  0.00    +0.015 C 
ATOM     18  C   UNL     1       0.241  -1.015   1.563  0.00  0.00    +0.012 C 
ENDBRANCH  10  17
ENDBRANCH   1  15
BRANCH   3  19
ATOM     19  N   UNL     1       0.695  -2.058  -4.268  0.00  0.00    -0.355 N 
ATOM     20  H   UNL     1       0.866  -1.294  -3.695  0.00  0.00    +0.142 HD
ATOM     21  H   UNL     1       1.306  -2.268  -4.992  0.00  0.00    +0.142 HD
ENDBRANCH   3  19
TORSDOF 3
