REMARK  Name = ZINC41513644
REMARK  19 active torsions:
REMARK  status: ('A' for Active; 'I' for Inactive)
REMARK    1  A    between atoms: C_1  and  C_2
REMARK    2  A    between atoms: C_4  and  O_35
REMARK    3  A    between atoms: C_5  and  C_25
REMARK    4  A    between atoms: C_11  and  C_12
REMARK    5  A    between atoms: C_15  and  O_22
REMARK    6  A    between atoms: C_16  and  O_20
REMARK    7  A    between atoms: C_17  and  O_18
REMARK    8  A    between atoms: O_18  and  C_19
REMARK    9  A    between atoms: O_20  and  C_21
REMARK   10  A    between atoms: O_22  and  C_23
REMARK   11  A    between atoms: C_25  and  N_26
REMARK   12  A    between atoms: N_26  and  C_27
REMARK   13  A    between atoms: N_26  and  C_31
REMARK   14  A    between atoms: C_27  and  C_28
REMARK   15  A    between atoms: C_28  and  C_29
REMARK   16  A    between atoms: C_28  and  C_30
REMARK   17  A    between atoms: C_31  and  C_32
REMARK   18  A    between atoms: C_32  and  C_33
REMARK   19  A    between atoms: C_32  and  C_34
REMARK                            x       y       z     vdW  Elec       q    Type
REMARK                         _______ _______ _______ _____ _____    ______ ____
ROOT
ATOM      1  C   UNL     1       1.851  -0.259   0.618  0.00  0.00    +0.045 C 
ATOM      2  C   UNL     1       1.249  -1.638   0.535  0.00  0.00    -0.033 A 
ATOM      3  C   UNL     1       1.000  -2.203  -0.684  0.00  0.00    +0.050 A 
ATOM      4  C   UNL     1       0.444  -3.477  -0.763  0.00  0.00    +0.122 A 
ATOM      5  C   UNL     1       0.137  -4.185   0.387  0.00  0.00    +0.020 A 
ATOM      6  C   UNL     1       0.384  -3.625   1.634  0.00  0.00    +0.145 A 
ATOM      7  C   UNL     1       0.951  -2.341   1.702  0.00  0.00    +0.071 A 
ATOM      8  C   UNL     1       1.098  -2.027   3.135  0.00  0.00    +0.232 C 
ATOM      9  O   UNL     1       1.545  -1.008   3.633  0.00  0.00    -0.283 OA
ATOM     10  C   UNL     1       0.585  -3.215   3.827  0.00  0.00    +0.176 C 
ATOM     11  C   UNL     1       0.516  -3.392   5.173  0.00  0.00    +0.062 C 
ATOM     12  O   UNL     1       0.180  -4.098   2.883  0.00  0.00    -0.451 OA
ENDROOT
BRANCH  11  13
ATOM     13  C   UNL     1       0.801  -2.273   6.075  0.00  0.00    +0.024 A 
ATOM     14  C   UNL     1       0.224  -1.016   5.842  0.00  0.00    +0.015 A 
ATOM     15  C   UNL     1       0.493   0.032   6.691  0.00  0.00    +0.050 A 
ATOM     16  C   UNL     1       1.337  -0.147   7.782  0.00  0.00    +0.165 A 
ATOM     17  C   UNL     1       1.915  -1.389   8.026  0.00  0.00    +0.204 A 
ATOM     18  C   UNL     1       1.648  -2.456   7.182  0.00  0.00    +0.172 A 
BRANCH  18  19
ATOM     19  O   UNL     1       2.207  -3.670   7.420  0.00  0.00    -0.491 OA
ATOM     20  C   UNL     1       3.477  -3.929   6.818  0.00  0.00    +0.277 C 
ENDBRANCH  18  19
BRANCH  17  21
ATOM     21  O   UNL     1       2.740  -1.557   9.096  0.00  0.00    -0.488 OA
ATOM     22  C   UNL     1       2.133  -1.962  10.325  0.00  0.00    +0.277 C 
ENDBRANCH  17  21
BRANCH  16  23
ATOM     23  O   UNL     1       1.597   0.894   8.614  0.00  0.00    -0.491 OA
ATOM     24  C   UNL     1       0.971   2.142   8.307  0.00  0.00    +0.277 C 
ENDBRANCH  16  23
ENDBRANCH  11  13
BRANCH   4  25
ATOM     25  O   UNL     1       0.200  -4.030  -1.979  0.00  0.00    -0.506 OA
ATOM     26  H   UNL     1       0.939  -4.544  -2.333  0.00  0.00    +0.292 HD
ENDBRANCH   4  25
BRANCH   5  27
ATOM     27  C   UNL     1      -0.465  -5.563   0.286  0.00  0.00    -0.036 C 
BRANCH  27  28
ATOM     28  N   UNL     1       0.608  -6.565   0.251  0.00  0.00    +0.383 N 
ATOM     29  H   UNL     1       1.240  -6.354  -0.507  0.00  0.00    -0.081 HD
BRANCH  28  30
ATOM     30  C   UNL     1       1.343  -6.540   1.522  0.00  0.00    -0.075 C 
BRANCH  30  31
ATOM     31  C   UNL     1       2.565  -7.457   1.423  0.00  0.00    -0.034 C 
ATOM     32  C   UNL     1       3.523  -6.915   0.360  0.00  0.00    +0.005 C 
ATOM     33  C   UNL     1       3.278  -7.505   2.775  0.00  0.00    +0.005 C 
ENDBRANCH  30  31
ENDBRANCH  28  30
BRANCH  28  34
ATOM     34  C   UNL     1       0.026  -7.899   0.047  0.00  0.00    -0.075 C 
BRANCH  34  35
ATOM     35  C   UNL     1      -0.127  -8.165  -1.452  0.00  0.00    -0.034 C 
ATOM     36  C   UNL     1      -0.641  -9.590  -1.667  0.00  0.00    +0.005 C 
ATOM     37  C   UNL     1      -1.123  -7.168  -2.048  0.00  0.00    +0.005 C 
ENDBRANCH  34  35
ENDBRANCH  28  34
ENDBRANCH  27  28
ENDBRANCH   5  27
TORSDOF 11
