REMARK  Name = ZINC15804171
REMARK  9 active torsions:
REMARK  status: ('A' for Active; 'I' for Inactive)
REMARK    1  A    between atoms: C_1  and  C_2
REMARK    2  A    between atoms: C_2  and  C_4
REMARK    3  A    between atoms: C_2  and  O_15
REMARK    4  A    between atoms: N_6  and  C_7
REMARK    5  A    between atoms: C_8  and  C_12
REMARK    6  A    between atoms: O_15  and  C_16
REMARK    7  A    between atoms: C_16  and  C_18
REMARK    8  A    between atoms: C_21  and  S_24
REMARK    9  A    between atoms: S_24  and  N_27
REMARK                            x       y       z     vdW  Elec       q    Type
REMARK                         _______ _______ _______ _____ _____    ______ ____
ROOT
ATOM      1  C   UNL     1       1.707  -4.423  -1.586  0.00  0.00    +0.340 C 
ATOM      2  O   UNL     1       1.931  -5.253  -0.728  0.00  0.00    -0.245 OA
ENDROOT
BRANCH   1   3
ATOM      3  C   UNL     1       0.500  -3.575  -1.497  0.00  0.00    +0.059 A 
ATOM      4  C   UNL     1      -0.385  -3.726  -0.428  0.00  0.00    +0.017 A 
ATOM      5  C   UNL     1      -1.510  -2.931  -0.350  0.00  0.00    +0.029 A 
ATOM      6  C   UNL     1      -1.761  -1.986  -1.329  0.00  0.00    +0.106 A 
ATOM      7  C   UNL     1      -0.891  -1.835  -2.394  0.00  0.00    +0.029 A 
ATOM      8  C   UNL     1       0.240  -2.619  -2.481  0.00  0.00    +0.017 A 
BRANCH   6   9
ATOM      9  S   UNL     1      -3.200  -0.975  -1.222  0.00  0.00    +0.061 S 
ATOM     10  O   UNL     1      -4.139  -1.686  -0.427  0.00  0.00    -0.153 OA
ATOM     11  O   UNL     1      -3.493  -0.544  -2.544  0.00  0.00    -0.153 OA
BRANCH   9  12
ATOM     12  N   UNL     1      -2.784   0.380  -0.365  0.00  0.00    -0.177 NA
ATOM     13  C   UNL     1      -2.281   1.542  -1.038  0.00  0.00    +0.109 C 
ATOM     14  C   UNL     1      -0.749   1.592  -1.257  0.00  0.00    +0.017 C 
ATOM     15  C   UNL     1      -0.013   1.086   0.008  0.00  0.00    +0.001 C 
ATOM     16  C   UNL     1      -0.703   1.564   1.253  0.00  0.00    +0.001 C 
ATOM     17  C   UNL     1      -1.581   0.401   1.701  0.00  0.00    +0.017 C 
ATOM     18  C   UNL     1      -2.928   0.411   1.129  0.00  0.00    +0.109 C 
ENDBRANCH   9  12
ENDBRANCH   6   9
ENDBRANCH   1   3
BRANCH   1  19
ATOM     19  O   UNL     1       2.559  -4.275  -2.619  0.00  0.00    -0.449 OA
BRANCH  19  21
ATOM     20  C   UNL     1       3.390  -6.425  -3.404  0.00  0.00    +0.062 C 
ATOM     21  C   UNL     1       3.724  -5.141  -2.642  0.00  0.00    +0.259 C 
BRANCH  21  22
ATOM     22  C   UNL     1       4.864  -4.433  -3.326  0.00  0.00    +0.258 C 
ATOM     23  O   UNL     1       4.710  -3.308  -3.753  0.00  0.00    -0.271 OA
ATOM     24  N   UNL     1       6.055  -5.049  -3.465  0.00  0.00    -0.276 N 
ATOM     25  H   UNL     1       6.178  -5.949  -3.123  0.00  0.00    +0.155 HD
BRANCH  24  26
ATOM     26  C   UNL     1       7.104  -4.397  -4.095  0.00  0.00    +0.084 A 
ATOM     27  C   UNL     1       8.394  -4.859  -4.326  0.00  0.00    +0.065 A 
ATOM     28  C   UNL     1       9.291  -3.963  -5.015  0.00  0.00    +0.022 A 
ATOM     29  C   UNL     1       8.807  -2.758  -5.365  0.00  0.00    +0.048 A 
ATOM     30  S   UNL     1       7.126  -2.806  -4.779  0.00  0.00    -0.081 S 
BRANCH  27  31
ATOM     31  C   UNL     1       8.821  -6.194  -3.894  0.00  0.00    +0.244 C 
ATOM     32  O   UNL     1       8.039  -6.926  -3.317  0.00  0.00    -0.270 OA
ATOM     33  N   UNL     1      10.081  -6.609  -4.135  0.00  0.00    -0.325 N 
ATOM     34  H   UNL     1      10.704  -6.025  -4.594  0.00  0.00    +0.145 HD
ATOM     35  H   UNL     1      10.363  -7.492  -3.849  0.00  0.00    +0.145 HD
ENDBRANCH  27  31
ENDBRANCH  24  26
ENDBRANCH  21  22
ENDBRANCH  19  21
ENDBRANCH   1  19
TORSDOF 8
