REMARK  Name = ZINC40728356
REMARK  4 active torsions:
REMARK  status: ('A' for Active; 'I' for Inactive)
REMARK    1  A    between atoms: C_3  and  N_8
REMARK    2  A    between atoms: C_15  and  N_29
REMARK    3  A    between atoms: C_16  and  N_20
REMARK    4  A    between atoms: N_20  and  C_21
REMARK                            x       y       z     vdW  Elec       q    Type
REMARK                         _______ _______ _______ _____ _____    ______ ____
ROOT
ATOM      1  N   UNL     1       3.514   2.260  -0.020  0.00  0.00    -0.327 N 
ATOM      2  C   UNL     1       3.539   3.727  -0.106  0.00  0.00    +0.124 C 
ATOM      3  C   UNL     1       4.343   4.274   1.080  0.00  0.00    +0.125 C 
ATOM      4  N   UNL     1       5.618   3.547   1.159  0.00  0.00    -0.311 N 
ATOM      5  C   UNL     1       5.593   2.080   1.244  0.00  0.00    +0.125 C 
ATOM      6  C   UNL     1       4.789   1.534   0.064  0.00  0.00    +0.124 C 
ATOM      7  C   UNL     1       6.825   4.235   1.151  0.00  0.00    +0.147 A 
ATOM      8  C   UNL     1       7.460   4.568   2.350  0.00  0.00    +0.106 A 
ATOM      9  C   UNL     1       8.671   5.259   2.285  0.00  0.00    +0.149 A 
ATOM     10  N   UNL     1       9.171   5.572   1.092  0.00  0.00    -0.219 NA
ATOM     11  C   UNL     1       8.541   5.239  -0.016  0.00  0.00    +0.225 A 
ATOM     12  N   UNL     1       7.398   4.582   0.001  0.00  0.00    -0.219 NA
ENDROOT
BRANCH   1  15
ATOM     13  C   UNL     1       1.088  -0.500  -0.050  0.00  0.00    +0.003 A 
ATOM     14  C   UNL     1       2.290   0.181  -0.058  0.00  0.00    +0.023 A 
ATOM     15  C   UNL     1       2.301   1.569  -0.013  0.00  0.00    +0.031 A 
ATOM     16  C   UNL     1       1.102   2.268   0.041  0.00  0.00    +0.043 A 
ATOM     17  C   UNL     1      -0.097   1.581   0.049  0.00  0.00    +0.043 A 
ATOM     18  C   UNL     1      -0.104   0.198   0.004  0.00  0.00    +0.020 A 
ATOM     19 CL   UNL     1      -1.597   2.454   0.116  0.00  0.00    -0.083 Cl
ENDBRANCH   1  15
BRANCH   8  20
ATOM     20  N   UNL     1       6.894   4.217   3.586  0.00  0.00    -0.353 N 
ATOM     21  H   UNL     1       6.091   3.675   3.616  0.00  0.00    +0.143 HD
ATOM     22  H   UNL     1       7.307   4.518   4.411  0.00  0.00    +0.143 HD
ENDBRANCH   8  20
BRANCH   9  23
ATOM     23  N   UNL     1       9.343   5.615   3.449  0.00  0.00    -0.296 N 
ATOM     24  H   UNL     1       8.945   5.433   4.314  0.00  0.00    +0.154 HD
BRANCH  23  25
ATOM     25  C   UNL     1      10.594   6.237   3.371  0.00  0.00    +0.068 A 
ATOM     26  C   UNL     1      10.875   7.107   2.327  0.00  0.00    +0.027 A 
ATOM     27  C   UNL     1      12.111   7.720   2.252  0.00  0.00    +0.017 A 
ATOM     28  C   UNL     1      13.070   7.466   3.217  0.00  0.00    +0.021 A 
ATOM     29  C   UNL     1      12.795   6.599   4.260  0.00  0.00    +0.055 A 
ATOM     30  C   UNL     1      11.557   5.988   4.343  0.00  0.00    +0.145 A 
ATOM     31  F   UNL     1      11.286   5.146   5.364  0.00  0.00    -0.204 F 
ATOM     32 BR   UNL     1      14.761   8.306   3.110  0.00  0.00    -0.050 Br
ENDBRANCH  23  25
ENDBRANCH   9  23
TORSDOF 4
