REMARK  Name = ZINC67514404
REMARK  7 active torsions:
REMARK  status: ('A' for Active; 'I' for Inactive)
REMARK    1  A    between atoms: C_1  and  C_2
REMARK    2  A    between atoms: C_7  and  C_8
REMARK    3  A    between atoms: C_8  and  C_10
REMARK    4  A    between atoms: C_8  and  N_25
REMARK    5  A    between atoms: C_10  and  C_11
REMARK    6  A    between atoms: N_13  and  C_14
REMARK    7  A    between atoms: C_17  and  C_19
REMARK                            x       y       z     vdW  Elec       q    Type
REMARK                         _______ _______ _______ _____ _____    ______ ____
ROOT
ATOM      1  C   UNL     1       0.024   0.045   2.505  0.00  0.00    +0.114 C 
ENDROOT
BRANCH   1   8
ATOM      2  C   UNL     1       2.552  -0.399   1.178  0.00  0.00    +0.044 C 
ATOM      3  C   UNL     1       1.274  -0.898   0.553  0.00  0.00    -0.045 A 
ATOM      4  C   UNL     1       1.312  -1.573  -0.653  0.00  0.00    +0.004 A 
ATOM      5  C   UNL     1       0.141  -2.030  -1.227  0.00  0.00    +0.000 A 
ATOM      6  C   UNL     1      -1.069  -1.812  -0.594  0.00  0.00    +0.000 A 
ATOM      7  C   UNL     1      -1.107  -1.138   0.612  0.00  0.00    +0.006 A 
ATOM      8  C   UNL     1       0.065  -0.685   1.188  0.00  0.00    -0.024 A 
ENDBRANCH   1   8
BRANCH   1   9
ATOM      9  N   UNL     1       0.520  -0.834   3.567  0.00  0.00    -0.292 N 
ATOM     10  C   UNL     1      -0.067  -2.029   3.781  0.00  0.00    +0.298 C 
ATOM     11  O   UNL     1      -0.946  -2.416   3.036  0.00  0.00    -0.253 OA
ATOM     12  N   UNL     1       0.321  -2.793   4.821  0.00  0.00    -0.313 N 
ATOM     13  H   UNL     1       1.270  -0.557   4.116  0.00  0.00    +0.151 HD
ATOM     14  H   UNL     1       1.022  -2.484   5.415  0.00  0.00    +0.146 HD
ATOM     15  H   UNL     1      -0.102  -3.653   4.975  0.00  0.00    +0.146 HD
ENDBRANCH   1   9
BRANCH   1  16
ATOM     16  C   UNL     1      -1.416   0.458   2.815  0.00  0.00    +0.123 C 
BRANCH  16  17
ATOM     17  C   UNL     1      -1.441   1.293   4.069  0.00  0.00    +0.215 C 
ATOM     18  O   UNL     1      -0.408   1.535   4.657  0.00  0.00    -0.276 OA
ATOM     19  N   UNL     1      -2.610   1.772   4.537  0.00  0.00    -0.312 N 
ATOM     20  H   UNL     1      -3.437   1.578   4.067  0.00  0.00    +0.149 HD
BRANCH  19  21
ATOM     21  C   UNL     1      -2.634   2.584   5.756  0.00  0.00    +0.081 C 
ATOM     22  C   UNL     1      -3.508   3.840   5.752  0.00  0.00    +0.033 C 
ATOM     23  C   UNL     1      -3.936   2.613   6.561  0.00  0.00    +0.041 C 
BRANCH  23  24
ATOM     24  C   UNL     1      -3.825   2.696   8.061  0.00  0.00    -0.042 A 
ATOM     25  C   UNL     1      -3.193   3.776   8.649  0.00  0.00    +0.004 A 
ATOM     26  C   UNL     1      -3.091   3.852  10.025  0.00  0.00    +0.000 A 
ATOM     27  C   UNL     1      -3.621   2.848  10.814  0.00  0.00    +0.000 A 
ATOM     28  C   UNL     1      -4.253   1.768  10.226  0.00  0.00    +0.000 A 
ATOM     29  C   UNL     1      -4.359   1.694   8.850  0.00  0.00    +0.004 A 
ENDBRANCH  23  24
ENDBRANCH  19  21
ENDBRANCH  16  17
ENDBRANCH   1  16
TORSDOF 6
