REMARK  Name = ZINC21878912
REMARK  11 active torsions:
REMARK  status: ('A' for Active; 'I' for Inactive)
REMARK    1  A    between atoms: C_1  and  C_2
REMARK    2  A    between atoms: C_2  and  C_4
REMARK    3  A    between atoms: C_2  and  S_12
REMARK    4  A    between atoms: N_6  and  C_7
REMARK    5  A    between atoms: C_7  and  C_8
REMARK    6  A    between atoms: C_8  and  C_9
REMARK    7  A    between atoms: C_9  and  C_10
REMARK    8  A    between atoms: C_9  and  C_11
REMARK    9  A    between atoms: S_12  and  C_13
REMARK   10  A    between atoms: C_16  and  C_19
REMARK   11  A    between atoms: N_17  and  N_18
REMARK                            x       y       z     vdW  Elec       q    Type
REMARK                         _______ _______ _______ _____ _____    ______ ____
ROOT
ATOM      1  C   UNL     1      -2.335  -0.110   1.573  0.00  0.00    +0.209 A 
ATOM      2  N   UNL     1      -1.690   0.581   2.485  0.00  0.00    -0.121 NA
ATOM      3  N   UNL     1      -2.449   0.790   3.501  0.00  0.00    -0.126 NA
ATOM      4  C   UNL     1      -3.628   0.245   3.300  0.00  0.00    +0.188 A 
ATOM      5  N   UNL     1      -3.593  -0.344   2.056  0.00  0.00    -0.223 N 
ENDROOT
BRANCH   4   6
ATOM      6  C   UNL     1      -4.771   0.265   4.227  0.00  0.00    +0.058 A 
ATOM      7  C   UNL     1      -4.978   1.057   5.328  0.00  0.00    +0.019 A 
ATOM      8  C   UNL     1      -6.138   0.894   6.051  0.00  0.00    +0.008 A 
ATOM      9  C   UNL     1      -7.040  -0.041   5.654  0.00  0.00    +0.046 A 
ATOM     10  S   UNL     1      -6.254  -0.729   4.207  0.00  0.00    -0.093 S 
ENDBRANCH   4   6
BRANCH   5  11
ATOM     11  N   UNL     1      -4.603  -1.022   1.434  0.00  0.00    -0.295 N 
ATOM     12  H   UNL     1      -4.571  -2.005   1.660  0.00  0.00    +0.163 HD
ATOM     13  H   UNL     1      -5.501  -0.626   1.667  0.00  0.00    +0.163 HD
ENDBRANCH   5  11
BRANCH   1  14
ATOM     14  S   UNL     1      -1.700  -0.632   0.015  0.00  0.00    -0.072 S 
BRANCH  14  16
ATOM     15  C   UNL     1      -0.019   1.526   0.010  0.00  0.00    +0.029 C 
ATOM     16  C   UNL     1       0.002  -0.004   0.002  0.00  0.00    +0.137 C 
BRANCH  16  17
ATOM     17  C   UNL     1       0.707  -0.490  -1.238  0.00  0.00    +0.226 C 
ATOM     18  O   UNL     1       0.066  -0.782  -2.225  0.00  0.00    -0.275 OA
ATOM     19  N   UNL     1       2.051  -0.601  -1.250  0.00  0.00    -0.314 N 
ATOM     20  H   UNL     1       2.563  -0.367  -0.460  0.00  0.00    +0.149 HD
BRANCH  19  21
ATOM     21  C   UNL     1       2.736  -1.073  -2.455  0.00  0.00    +0.104 C 
BRANCH  21  22
ATOM     22  C   UNL     1       4.245  -1.105  -2.204  0.00  0.00    +0.022 C 
BRANCH  22  23
ATOM     23  C   UNL     1       4.961  -1.599  -3.462  0.00  0.00    -0.016 C 
ATOM     24  C   UNL     1       4.761  -0.587  -4.593  0.00  0.00    +0.007 C 
ATOM     25  C   UNL     1       6.456  -1.750  -3.173  0.00  0.00    +0.007 C 
ENDBRANCH  22  23
ENDBRANCH  21  22
ENDBRANCH  19  21
ENDBRANCH  16  17
ENDBRANCH  14  16
ENDBRANCH   1  14
TORSDOF 8
