REMARK  Name = ZINC39676585
REMARK  14 active torsions:
REMARK  status: ('A' for Active; 'I' for Inactive)
REMARK    1  A    between atoms: C_1  and  C_2
REMARK    2  A    between atoms: C_2  and  C_3
REMARK    3  A    between atoms: C_3  and  C_4
REMARK    4  A    between atoms: C_4  and  C_5
REMARK    5  A    between atoms: C_5  and  C_7
REMARK    6  A    between atoms: C_5  and  C_8
REMARK    7  A    between atoms: C_12  and  C_21
REMARK    8  A    between atoms: N_23  and  C_24
REMARK    9  A    between atoms: C_24  and  C_25
REMARK   10  A    between atoms: C_24  and  C_33
REMARK   11  A    between atoms: C_28  and  O_31
REMARK   12  A    between atoms: O_31  and  C_32
REMARK   13  A    between atoms: C_36  and  O_39
REMARK   14  A    between atoms: O_39  and  C_40
REMARK                            x       y       z     vdW  Elec       q    Type
REMARK                         _______ _______ _______ _____ _____    ______ ____
ROOT
ATOM      1  C   UNL     1       4.281  -5.169  -6.419  0.00  0.00    +0.219 C 
ATOM      2  O   UNL     1       3.329  -5.326  -7.153  0.00  0.00    -0.275 OA
ATOM      3  N   UNL     1       5.532  -5.201  -6.920  0.00  0.00    -0.304 N 
ATOM      4  H   UNL     1       6.293  -5.076  -6.333  0.00  0.00    +0.150 HD
ENDROOT
BRANCH   1   9
ATOM      5  C   UNL     1       1.575  -4.058  -2.469  0.00  0.00    +0.218 C 
ATOM      6  O   UNL     1       1.151  -4.677  -1.516  0.00  0.00    -0.275 OA
ATOM      7  N   UNL     1       2.186  -4.709  -3.478  0.00  0.00    -0.300 N 
ATOM      8  C   UNL     1       2.770  -4.130  -4.711  0.00  0.00    +0.121 C 
ATOM      9  C   UNL     1       4.066  -4.938  -4.945  0.00  0.00    +0.100 C 
ATOM     10  C   UNL     1       3.832  -6.274  -4.220  0.00  0.00    -0.004 C 
ATOM     11  C   UNL     1       2.430  -6.166  -3.603  0.00  0.00    +0.115 C 
ATOM     12  C   UNL     1       3.887  -7.431  -5.213  0.00  0.00    -0.010 C 
ATOM     13  C   UNL     1       3.709  -8.753  -4.460  0.00  0.00    -0.082 C 
ATOM     14  N   UNL     1       4.772  -8.892  -3.456  0.00  0.00    +0.379 N 
ATOM     15  C   UNL     1       4.655  -7.828  -2.452  0.00  0.00    -0.082 C 
ATOM     16  C   UNL     1       4.872  -6.467  -3.120  0.00  0.00    -0.010 C 
ATOM     17  H   UNL     1       4.689  -9.790  -3.003  0.00  0.00    -0.086 HD
ATOM     18  H   UNL     1       5.671  -8.829  -3.909  0.00  0.00    -0.086 HD
BRANCH   5  19
ATOM     19  C   UNL     1       1.421  -2.560  -2.523  0.00  0.00    +0.072 C 
ATOM     20  C   UNL     1       0.603  -2.176  -3.758  0.00  0.00    +0.017 C 
BRANCH  19  21
ATOM     21  C   UNL     1       0.700  -2.075  -1.263  0.00  0.00    +0.012 C 
BRANCH  21  22
ATOM     22  C   UNL     1       0.653  -0.546  -1.259  0.00  0.00    +0.000 C 
BRANCH  22  24
ATOM     23  C   UNL     1      -0.115   1.468   0.005  0.00  0.00    +0.004 C 
ATOM     24  C   UNL     1      -0.069  -0.062   0.001  0.00  0.00    -0.003 C 
ENDBRANCH  22  24
ENDBRANCH  21  22
ENDBRANCH  19  21
ENDBRANCH   5  19
ENDBRANCH   1   9
BRANCH   3  25
ATOM     25  C   UNL     1       5.741  -5.426  -8.353  0.00  0.00    +0.134 C 
BRANCH  25  26
ATOM     26  C   UNL     1       7.062  -4.832  -8.767  0.00  0.00    -0.023 A 
ATOM     27  C   UNL     1       8.164  -4.956  -7.941  0.00  0.00    +0.009 A 
ATOM     28  C   UNL     1       9.377  -4.412  -8.318  0.00  0.00    +0.046 A 
ATOM     29  C   UNL     1       9.489  -3.741  -9.527  0.00  0.00    +0.120 A 
ATOM     30  C   UNL     1       8.382  -3.618 -10.354  0.00  0.00    +0.046 A 
ATOM     31  C   UNL     1       7.173  -4.169  -9.975  0.00  0.00    +0.009 A 
BRANCH  29  32
ATOM     32  O   UNL     1      10.680  -3.205  -9.900  0.00  0.00    -0.495 OA
ATOM     33  C   UNL     1      10.722  -2.528 -11.158  0.00  0.00    +0.277 C 
ENDBRANCH  29  32
ENDBRANCH  25  26
BRANCH  25  34
ATOM     34  C   UNL     1       5.745  -6.906  -8.634  0.00  0.00    -0.023 A 
ATOM     35  C   UNL     1       6.366  -7.774  -7.754  0.00  0.00    +0.009 A 
ATOM     36  C   UNL     1       6.372  -9.132  -8.010  0.00  0.00    +0.046 A 
ATOM     37  C   UNL     1       5.754  -9.624  -9.150  0.00  0.00    +0.120 A 
ATOM     38  C   UNL     1       5.131  -8.752 -10.031  0.00  0.00    +0.046 A 
ATOM     39  C   UNL     1       5.124  -7.396  -9.768  0.00  0.00    +0.009 A 
BRANCH  37  40
ATOM     40  O   UNL     1       5.759 -10.959  -9.404  0.00  0.00    -0.495 OA
ATOM     41  C   UNL     1       5.103 -11.396 -10.596  0.00  0.00    +0.277 C 
ENDBRANCH  37  40
ENDBRANCH  25  34
ENDBRANCH   3  25
TORSDOF 10
