REMARK  Name = ZINC05788218
REMARK  9 active torsions:
REMARK  status: ('A' for Active; 'I' for Inactive)
REMARK    1  A    between atoms: C_1  and  C_2
REMARK    2  A    between atoms: C_2  and  C_16
REMARK    3  A    between atoms: N_3  and  N_4
REMARK    4  A    between atoms: N_4  and  C_5
REMARK    5  A    between atoms: C_5  and  N_7
REMARK    6  A    between atoms: N_7  and  C_8
REMARK    7  A    between atoms: C_19  and  O_23
REMARK    8  A    between atoms: C_21  and  O_22
REMARK    9  A    between atoms: O_23  and  C_24
REMARK                            x       y       z     vdW  Elec       q    Type
REMARK                         _______ _______ _______ _____ _____    ______ ____
ROOT
ATOM      1  N   UNL     1      -0.390  -0.005   2.359  0.00  0.00    -0.218 N 
ATOM      2  H   UNL     1      -0.686   0.919   2.367  0.00  0.00    +0.176 HD
ENDROOT
BRANCH   1   5
ATOM      3  C   UNL     1      -0.502   1.508   0.060  0.00  0.00    +0.068 C 
ATOM      4  C   UNL     1      -0.042   0.073   0.048  0.00  0.00    +0.067 C 
ATOM      5  N   UNL     1      -0.003  -0.606   1.154  0.00  0.00    -0.185 NA
BRANCH   4   6
ATOM      6  C   UNL     1       0.364  -0.559  -1.219  0.00  0.00    +0.039 A 
ATOM      7  C   UNL     1       0.330   0.171  -2.410  0.00  0.00    +0.017 A 
ATOM      8  C   UNL     1       0.711  -0.424  -3.593  0.00  0.00    +0.046 A 
ATOM      9  C   UNL     1       1.130  -1.750  -3.606  0.00  0.00    +0.124 A 
ATOM     10  C   UNL     1       1.168  -2.483  -2.429  0.00  0.00    +0.091 A 
ATOM     11  C   UNL     1       0.793  -1.894  -1.234  0.00  0.00    +0.129 A 
BRANCH  11  12
ATOM     12  O   UNL     1       0.836  -2.609  -0.080  0.00  0.00    -0.506 OA
ATOM     13  H   UNL     1       0.016  -3.082   0.120  0.00  0.00    +0.292 HD
ENDBRANCH  11  12
BRANCH   9  14
ATOM     14  O   UNL     1       1.503  -2.329  -4.777  0.00  0.00    -0.495 OA
ATOM     15  C   UNL     1       1.440  -1.518  -5.952  0.00  0.00    +0.277 C 
ENDBRANCH   9  14
ENDBRANCH   4   6
ENDBRANCH   1   5
BRANCH   1  16
ATOM     16  C   UNL     1      -0.349  -0.710   3.507  0.00  0.00    +0.154 C 
ATOM     17  S   UNL     1      -0.822   0.025   4.979  0.00  0.00    -0.017 S 
BRANCH  16  18
ATOM     18  N   UNL     1       0.062  -1.993   3.496  0.00  0.00    -0.296 N 
ATOM     19  H   UNL     1       0.271  -2.428   2.654  0.00  0.00    +0.154 HD
BRANCH  18  20
ATOM     20  C   UNL     1       0.189  -2.697   4.698  0.00  0.00    +0.034 A 
ATOM     21  C   UNL     1      -0.817  -2.629   5.654  0.00  0.00    +0.025 A 
ATOM     22  C   UNL     1      -0.690  -3.325   6.840  0.00  0.00    +0.023 A 
ATOM     23  C   UNL     1       0.438  -4.092   7.077  0.00  0.00    +0.059 A 
ATOM     24  C   UNL     1       1.442  -4.162   6.126  0.00  0.00    +0.061 A 
ATOM     25  C   UNL     1       1.317  -3.471   4.935  0.00  0.00    +0.044 A 
ATOM     26 CL   UNL     1       2.855  -5.124   6.427  0.00  0.00    -0.082 Cl
ATOM     27 CL   UNL     1       0.594  -4.965   8.568  0.00  0.00    -0.082 Cl
ENDBRANCH  18  20
ENDBRANCH  16  18
ENDBRANCH   1  16
TORSDOF 7
