REMARK  Name = ZINC12550591
REMARK  5 active torsions:
REMARK  status: ('A' for Active; 'I' for Inactive)
REMARK    1  A    between atoms: C_1  and  C_2
REMARK    2  A    between atoms: C_9  and  N_14
REMARK    3  A    between atoms: N_14  and  C_15
REMARK    4  A    between atoms: C_15  and  C_17
REMARK    5  A    between atoms: C_15  and  C_23
REMARK                            x       y       z     vdW  Elec       q    Type
REMARK                         _______ _______ _______ _____ _____    ______ ____
ROOT
ATOM      1  N   UNL     1      -1.177  -2.250   0.366  0.00  0.00    -0.329 N 
ATOM      2  H   UNL     1      -0.427  -2.757   0.017  0.00  0.00    +0.147 HD
ENDROOT
BRANCH   1  10
ATOM      3  C   UNL     1      -6.182  -6.168   1.621  0.00  0.00    +0.062 C 
ATOM      4  C   UNL     1      -5.402  -6.149   2.937  0.00  0.00    +0.256 C 
ATOM      5  C   UNL     1      -4.113  -6.912   2.768  0.00  0.00    +0.258 C 
ATOM      6  O   UNL     1      -4.069  -8.098   3.021  0.00  0.00    -0.271 OA
ATOM      7  N   UNL     1      -3.007  -6.270   2.334  0.00  0.00    -0.279 N 
ATOM      8  C   UNL     1      -3.075  -4.893   2.082  0.00  0.00    +0.077 A 
ATOM      9  C   UNL     1      -2.090  -4.261   1.342  0.00  0.00    +0.050 A 
ATOM     10  C   UNL     1      -2.172  -2.894   1.109  0.00  0.00    +0.030 A 
ATOM     11  C   UNL     1      -3.245  -2.167   1.609  0.00  0.00    +0.026 A 
ATOM     12  C   UNL     1      -4.232  -2.800   2.343  0.00  0.00    +0.049 A 
ATOM     13  C   UNL     1      -4.151  -4.161   2.582  0.00  0.00    +0.143 A 
ATOM     14  O   UNL     1      -5.115  -4.796   3.301  0.00  0.00    -0.478 OA
ATOM     15  H   UNL     1      -2.178  -6.755   2.198  0.00  0.00    +0.155 HD
ENDBRANCH   1  10
BRANCH   1  16
ATOM     16  C   UNL     1      -1.267  -0.809   0.116  0.00  0.00    +0.188 C 
BRANCH  16  17
ATOM     17  C   UNL     1       0.113  -0.255  -0.128  0.00  0.00    +0.240 C 
ATOM     18  O   UNL     1       0.989  -0.975  -0.558  0.00  0.00    -0.273 OA
ATOM     19  N   UNL     1       0.374   1.042   0.133  0.00  0.00    -0.300 N 
ATOM     20  C   UNL     1      -0.702   1.955   0.541  0.00  0.00    +0.108 C 
ATOM     21  C   UNL     1      -0.290   2.640   1.853  0.00  0.00    +0.019 C 
ATOM     22  C   UNL     1       1.070   3.317   1.663  0.00  0.00    +0.003 C 
ATOM     23  C   UNL     1       2.123   2.261   1.319  0.00  0.00    +0.019 C 
ATOM     24  C   UNL     1       1.739   1.571   0.007  0.00  0.00    +0.108 C 
ENDBRANCH  16  17
BRANCH  16  25
ATOM     25  C   UNL     1      -2.128  -0.563  -1.096  0.00  0.00    -0.018 A 
ATOM     26  C   UNL     1      -1.920  -1.292  -2.252  0.00  0.00    +0.006 A 
ATOM     27  C   UNL     1      -2.713  -1.069  -3.362  0.00  0.00    +0.000 A 
ATOM     28  C   UNL     1      -3.708  -0.110  -3.319  0.00  0.00    +0.000 A 
ATOM     29  C   UNL     1      -3.913   0.622  -2.165  0.00  0.00    +0.000 A 
ATOM     30  C   UNL     1      -3.123   0.396  -1.053  0.00  0.00    +0.006 A 
ENDBRANCH  16  25
ENDBRANCH   1  16
TORSDOF 4
