REMARK  Name = ZINC39479188
REMARK  10 active torsions:
REMARK  status: ('A' for Active; 'I' for Inactive)
REMARK    1  A    between atoms: C_1  and  O_2
REMARK    2  A    between atoms: O_2  and  C_3
REMARK    3  A    between atoms: C_6  and  C_10
REMARK    4  A    between atoms: C_12  and  C_23
REMARK    5  A    between atoms: N_15  and  C_17
REMARK    6  A    between atoms: C_23  and  N_24
REMARK    7  A    between atoms: N_24  and  C_25
REMARK    8  A    between atoms: C_25  and  C_26
REMARK    9  A    between atoms: C_26  and  S_27
REMARK   10  A    between atoms: S_27  and  C_28
REMARK                            x       y       z     vdW  Elec       q    Type
REMARK                         _______ _______ _______ _____ _____    ______ ____
ROOT
ATOM      1  C   UNL     1       2.505  -2.499  -4.385  0.00  0.00    +0.108 C 
ATOM      2  C   UNL     1       4.003  -2.782  -4.084  0.00  0.00    +0.014 C 
ATOM      3  C   UNL     1       4.606  -2.747  -5.509  0.00  0.00    +0.127 C 
ATOM      4  N   UNL     1       3.630  -2.012  -6.330  0.00  0.00    -0.266 N 
ATOM      5  N   UNL     1       2.597  -1.572  -5.542  0.00  0.00    -0.232 NA
ATOM      6  H   UNL     1       2.756  -0.624  -5.234  0.00  0.00    +0.145 HD
ENDROOT
BRANCH   1  10
ATOM      7  C   UNL     1       0.606  -0.607  -1.056  0.00  0.00    +0.123 A 
ATOM      8  C   UNL     1       1.260   0.158  -2.011  0.00  0.00    +0.046 A 
ATOM      9  C   UNL     1       1.873  -0.456  -3.086  0.00  0.00    +0.011 A 
ATOM     10  C   UNL     1       1.836  -1.833  -3.211  0.00  0.00    +0.007 A 
ATOM     11  C   UNL     1       1.185  -2.599  -2.260  0.00  0.00    +0.132 A 
ATOM     12  C   UNL     1       0.574  -1.988  -1.179  0.00  0.00    +0.084 A 
ATOM     13  F   UNL     1       1.149  -3.944  -2.384  0.00  0.00    -0.205 F 
BRANCH   7  15
ATOM     14  C   UNL     1       0.075   1.422   0.064  0.00  0.00    +0.277 C 
ATOM     15  O   UNL     1       0.002  -0.004   0.002  0.00  0.00    -0.495 OA
ENDBRANCH   7  15
ENDBRANCH   1  10
BRANCH   4  16
ATOM     16  C   UNL     1       3.740  -1.794  -7.705  0.00  0.00    +0.044 A 
ATOM     17  C   UNL     1       4.832  -2.293  -8.404  0.00  0.00    +0.024 A 
ATOM     18  C   UNL     1       4.937  -2.077  -9.764  0.00  0.00    +0.002 A 
ATOM     19  C   UNL     1       3.957  -1.363 -10.430  0.00  0.00    +0.000 A 
ATOM     20  C   UNL     1       2.869  -0.865  -9.737  0.00  0.00    +0.002 A 
ATOM     21  C   UNL     1       2.755  -1.083  -8.378  0.00  0.00    +0.024 A 
ENDBRANCH   4  16
BRANCH   2  22
ATOM     22  C   UNL     1       4.604  -1.684  -3.204  0.00  0.00    -0.076 C 
BRANCH  22  23
ATOM     23  N   UNL     1       5.981  -2.046  -2.843  0.00  0.00    +0.380 N 
ATOM     24  H   UNL     1       5.978  -2.919  -2.337  0.00  0.00    -0.086 HD
ATOM     25  H   UNL     1       6.534  -2.145  -3.682  0.00  0.00    -0.086 HD
BRANCH  23  26
ATOM     26  C   UNL     1       6.558  -0.992  -1.998  0.00  0.00    -0.071 C 
BRANCH  26  27
ATOM     27  C   UNL     1       7.993  -1.368  -1.622  0.00  0.00    +0.057 C 
BRANCH  27  28
ATOM     28  S   UNL     1       8.706  -0.067  -0.579  0.00  0.00    -0.107 S 
BRANCH  28  29
ATOM     29  C   UNL     1      10.336  -0.641  -0.236  0.00  0.00    +0.112 A 
ATOM     30  C   UNL     1      11.275  -0.014   0.521  0.00  0.00    +0.170 A 
ATOM     31  N   UNL     1      12.379  -0.761   0.544  0.00  0.00    -0.137 NA
ATOM     32  N   UNL     1      12.202  -1.829  -0.153  0.00  0.00    -0.067 NA
ATOM     33  N   UNL     1      10.899  -1.803  -0.672  0.00  0.00    -0.251 N 
ATOM     34  H   UNL     1      10.482  -2.477  -1.232  0.00  0.00    +0.191 HD
ENDBRANCH  28  29
ENDBRANCH  27  28
ENDBRANCH  26  27
ENDBRANCH  23  26
ENDBRANCH  22  23
ENDBRANCH   2  22
TORSDOF 9
