REMARK  Name = ZINC36269051
REMARK  5 active torsions:
REMARK  status: ('A' for Active; 'I' for Inactive)
REMARK    1  A    between atoms: C_1  and  C_2
REMARK    2  A    between atoms: C_2  and  S_3
REMARK    3  A    between atoms: S_3  and  C_6
REMARK    4  A    between atoms: C_9  and  N_12
REMARK    5  A    between atoms: N_12  and  C_13
REMARK                            x       y       z     vdW  Elec       q    Type
REMARK                         _______ _______ _______ _____ _____    ______ ____
ROOT
ATOM      1  N   UNL     1       0.699  -6.501  -1.111  0.00  0.00    -0.341 N 
ATOM      2  H   UNL     1       1.416  -6.977  -0.664  0.00  0.00    +0.146 HD
ENDROOT
BRANCH   1   3
ATOM      3  C   UNL     1      -0.422  -7.243  -1.694  0.00  0.00    +0.067 C 
ATOM      4  C   UNL     1      -0.151  -7.497  -3.179  0.00  0.00    +0.003 C 
ATOM      5  C   UNL     1      -1.304  -8.306  -3.776  0.00  0.00    -0.080 C 
ATOM      6  N   UNL     1      -1.395  -9.608  -3.103  0.00  0.00    +0.383 N 
ATOM      7  C   UNL     1      -1.657  -9.408  -1.676  0.00  0.00    -0.067 C 
ATOM      8  C   UNL     1      -0.574  -8.589  -0.975  0.00  0.00    +0.010 C 
ATOM      9  C   UNL     1      -3.079  -8.915  -1.377  0.00  0.00    -0.012 C 
ATOM     10  C   UNL     1      -3.487 -10.396  -1.292  0.00  0.00    -0.003 C 
ATOM     11  C   UNL     1      -2.022 -10.699  -0.932  0.00  0.00    -0.012 C 
ATOM     12  H   UNL     1      -2.146 -10.145  -3.510  0.00  0.00    -0.085 HD
ATOM     13  H   UNL     1      -0.526 -10.107  -3.218  0.00  0.00    -0.085 HD
ENDBRANCH   1   3
BRANCH   1  17
ATOM     14  C   UNL     1       0.806  -2.347  -1.378  0.00  0.00    +0.088 A 
ATOM     15  C   UNL     1       1.829  -3.024  -0.739  0.00  0.00    +0.029 A 
ATOM     16  C   UNL     1       1.796  -4.402  -0.649  0.00  0.00    +0.025 A 
ATOM     17  C   UNL     1       0.735  -5.107  -1.200  0.00  0.00    +0.027 A 
ATOM     18  C   UNL     1      -0.291  -4.424  -1.841  0.00  0.00    +0.025 A 
ATOM     19  C   UNL     1      -0.256  -3.046  -1.923  0.00  0.00    +0.029 A 
BRANCH  14  20
ATOM     20  S   UNL     1       0.851  -0.589  -1.490  0.00  0.00    -0.003 S 
ATOM     21  O   UNL     1       0.082  -0.280  -2.644  0.00  0.00    -0.169 OA
ATOM     22  O   UNL     1       2.232  -0.257  -1.430  0.00  0.00    -0.169 OA
BRANCH  20  24
ATOM     23  C   UNL     1      -0.019   1.526   0.010  0.00  0.00    +0.028 C 
ATOM     24  C   UNL     1       0.002  -0.004   0.002  0.00  0.00    +0.168 C 
ENDBRANCH  20  24
ENDBRANCH  14  20
ENDBRANCH   1  17
TORSDOF 4
