REMARK  Name = ZINC35781318
REMARK  13 active torsions:
REMARK  status: ('A' for Active; 'I' for Inactive)
REMARK    1  A    between atoms: C_1  and  C_2
REMARK    2  A    between atoms: C_2  and  C_3
REMARK    3  A    between atoms: C_2  and  C_4
REMARK    4  A    between atoms: C_4  and  O_5
REMARK    5  A    between atoms: O_5  and  C_6
REMARK    6  A    between atoms: C_6  and  C_7
REMARK    7  A    between atoms: C_7  and  C_9
REMARK    8  A    between atoms: C_7  and  O_35
REMARK    9  A    between atoms: C_9  and  N_10
REMARK   10  A    between atoms: N_10  and  C_11
REMARK   11  A    between atoms: N_10  and  C_18
REMARK   12  A    between atoms: C_11  and  C_12
REMARK   13  A    between atoms: C_18  and  C_19
REMARK                            x       y       z     vdW  Elec       q    Type
REMARK                         _______ _______ _______ _____ _____    ______ ____
ROOT
ATOM      1  N   UNL     1       6.559   0.213  -3.432  0.00  0.00    +0.389 N 
ATOM      2  H   UNL     1       7.074  -0.180  -2.659  0.00  0.00    -0.081 HD
ENDROOT
BRANCH   1   3
ATOM      3  C   UNL     1       5.256  -0.457  -3.544  0.00  0.00    -0.044 C 
BRANCH   3   4
ATOM      4  C   UNL     1       4.527  -0.380  -2.201  0.00  0.00    +0.124 C 
BRANCH   4   5
ATOM      5  O   UNL     1       5.286  -1.072  -1.207  0.00  0.00    -0.391 OA
ATOM      6  H   UNL     1       5.428  -2.008  -1.401  0.00  0.00    +0.210 HD
ENDBRANCH   4   5
BRANCH   4   7
ATOM      7  C   UNL     1       3.148  -1.029  -2.332  0.00  0.00    +0.189 C 
BRANCH   7   8
ATOM      8  O   UNL     1       2.422  -0.855  -1.113  0.00  0.00    -0.377 OA
BRANCH   8   9
ATOM      9  C   UNL     1       1.112  -1.427  -1.130  0.00  0.00    +0.163 C 
BRANCH   9  11
ATOM     10  C   UNL     1       0.214   0.320   0.414  0.00  0.00    +0.009 C 
ATOM     11  C   UNL     1       0.431  -1.182   0.218  0.00  0.00    +0.009 C 
ATOM     12  C   UNL     1      -0.919  -1.900   0.245  0.00  0.00    +0.009 C 
ENDBRANCH   9  11
ENDBRANCH   8   9
ENDBRANCH   7   8
ENDBRANCH   4   7
ENDBRANCH   3   4
ENDBRANCH   1   3
BRANCH   1  13
ATOM     13  C   UNL     1       6.353   1.650  -3.204  0.00  0.00    -0.042 C 
BRANCH  13  14
ATOM     14  C   UNL     1       5.545   2.228  -4.336  0.00  0.00    -0.064 A 
ATOM     15  C   UNL     1       6.183   2.711  -5.464  0.00  0.00    +0.002 A 
ATOM     16  C   UNL     1       5.441   3.241  -6.503  0.00  0.00    +0.000 A 
ATOM     17  C   UNL     1       4.063   3.289  -6.415  0.00  0.00    +0.000 A 
ATOM     18  C   UNL     1       3.425   2.805  -5.288  0.00  0.00    +0.000 A 
ATOM     19  C   UNL     1       4.166   2.271  -4.251  0.00  0.00    +0.002 A 
ENDBRANCH  13  14
ENDBRANCH   1  13
BRANCH   1  20
ATOM     20  C   UNL     1       7.317   0.019  -4.676  0.00  0.00    -0.003 C 
BRANCH  20  21
ATOM     21  C   UNL     1       8.699   0.600  -4.517  0.00  0.00    +0.094 A 
ATOM     22  N   UNL     1       9.572   0.535  -5.555  0.00  0.00    -0.312 N 
ATOM     23  H   UNL     1       9.294   0.116  -6.384  0.00  0.00    +0.170 HD
ATOM     24  C   UNL     1      10.816   1.040  -5.456  0.00  0.00    +0.260 A 
ATOM     25  O   UNL     1      11.589   0.975  -6.396  0.00  0.00    -0.267 OA
ATOM     26  C   UNL     1      11.216   1.657  -4.225  0.00  0.00    +0.075 A 
ATOM     27  C   UNL     1      12.507   2.268  -3.897  0.00  0.00    -0.023 A 
ATOM     28  C   UNL     1      12.636   2.782  -2.656  0.00  0.00    -0.004 A 
ATOM     29  S   UNL     1      11.070   2.498  -1.872  0.00  0.00    -0.073 S 
ATOM     30  C   UNL     1      10.246   1.678  -3.212  0.00  0.00    +0.116 A 
ATOM     31  N   UNL     1       9.033   1.161  -3.386  0.00  0.00    -0.229 NA
ATOM     32  C   UNL     1      13.839   3.440  -2.055  0.00  0.00    +0.043 C 
ATOM     33  C   UNL     1      14.376   4.499  -3.026  0.00  0.00    +0.005 C 
ATOM     34  C   UNL     1      15.388   3.834  -3.954  0.00  0.00    +0.001 C 
ATOM     35  C   UNL     1      14.983   2.384  -4.214  0.00  0.00    +0.005 C 
ATOM     36  C   UNL     1      13.636   2.323  -4.923  0.00  0.00    +0.037 C 
ENDBRANCH  20  21
ENDBRANCH   1  20
TORSDOF 11
