REMARK  Name = ZINC08870448
REMARK  8 active torsions:
REMARK  status: ('A' for Active; 'I' for Inactive)
REMARK    1  A    between atoms: C_1  and  N_2
REMARK    2  A    between atoms: C_6  and  S_15
REMARK    3  A    between atoms: S_15  and  N_18
REMARK    4  A    between atoms: N_18  and  C_19
REMARK    5  A    between atoms: C_21  and  S_30
REMARK    6  A    between atoms: C_22  and  O_29
REMARK    7  A    between atoms: S_30  and  C_31
REMARK    8  A    between atoms: C_31  and  C_32
REMARK                            x       y       z     vdW  Elec       q    Type
REMARK                         _______ _______ _______ _____ _____    ______ ____
ROOT
ATOM      1  N   UNL     1       1.340   5.973   0.028  0.00  0.00    -0.216 N 
ATOM      2  H   UNL     1       2.111   5.734  -0.510  0.00  0.00    +0.174 HD
ENDROOT
BRANCH   1   3
ATOM      3  C   UNL     1       0.299   5.058   0.202  0.00  0.00    +0.057 A 
ATOM      4  C   UNL     1      -1.003   5.499   0.277  0.00  0.00    +0.043 A 
ATOM      5  C   UNL     1      -2.054   4.595   0.450  0.00  0.00    +0.052 A 
ATOM      6  C   UNL     1      -1.809   3.238   0.550  0.00  0.00    +0.138 A 
ATOM      7  C   UNL     1      -0.488   2.761   0.477  0.00  0.00    +0.026 A 
ATOM      8  C   UNL     1       0.578   3.679   0.301  0.00  0.00    +0.008 A 
ATOM      9  C   UNL     1       1.895   3.198   0.229  0.00  0.00    +0.010 A 
ATOM     10  C   UNL     1       2.132   1.861   0.327  0.00  0.00    +0.001 A 
ATOM     11  C   UNL     1       1.084   0.957   0.499  0.00  0.00    +0.001 A 
ATOM     12  C   UNL     1      -0.206   1.386   0.569  0.00  0.00    +0.012 A 
BRANCH   6  13
ATOM     13  O   UNL     1      -2.842   2.367   0.719  0.00  0.00    -0.505 OA
ATOM     14  H   UNL     1      -3.217   2.037  -0.109  0.00  0.00    +0.292 HD
ENDBRANCH   6  13
BRANCH   5  15
ATOM     15  S   UNL     1      -3.710   5.190   0.541  0.00  0.00    -0.110 S 
BRANCH  15  16
ATOM     16  C   UNL     1      -3.540   6.988   0.364  0.00  0.00    +0.199 C 
BRANCH  16  17
ATOM     17  C   UNL     1      -4.902   7.629   0.426  0.00  0.00    +0.366 C 
ATOM     18  O   UNL     1      -5.886   6.944   0.573  0.00  0.00    -0.245 OA
ATOM     19  O   UNL     1      -5.022   8.962   0.316  0.00  0.00    -0.245 OA
ENDBRANCH  16  17
ENDBRANCH  15  16
ENDBRANCH   5  15
ENDBRANCH   1   3
BRANCH   1  20
ATOM     20  S   UNL     1       1.258   7.465   0.742  0.00  0.00    +0.073 S 
ATOM     21  O   UNL     1       2.508   8.098   0.503  0.00  0.00    -0.150 OA
ATOM     22  O   UNL     1       0.024   8.041   0.338  0.00  0.00    -0.150 OA
BRANCH  20  28
ATOM     23  C   UNL     1       0.201   6.705   7.707  0.00  0.00    +0.138 C 
ATOM     24  N   UNL     1       1.141   6.480   6.607  0.00  0.00    -0.270 N 
ATOM     25  C   UNL     1       0.907   6.819   5.280  0.00  0.00    +0.045 A 
ATOM     26  C   UNL     1      -0.112   7.403   4.550  0.00  0.00    +0.026 A 
ATOM     27  C   UNL     1       0.033   7.588   3.176  0.00  0.00    +0.031 A 
ATOM     28  C   UNL     1       1.149   7.206   2.481  0.00  0.00    +0.116 A 
ATOM     29  C   UNL     1       2.206   6.609   3.186  0.00  0.00    +0.011 A 
ATOM     30  C   UNL     1       2.037   6.442   4.561  0.00  0.00    +0.018 A 
ATOM     31  C   UNL     1       2.992   5.865   5.411  0.00  0.00    +0.047 A 
ATOM     32  C   UNL     1       4.172   5.442   4.824  0.00  0.00    +0.014 A 
ATOM     33  C   UNL     1       4.357   5.602   3.451  0.00  0.00    +0.001 A 
ATOM     34  C   UNL     1       3.419   6.167   2.630  0.00  0.00    +0.010 A 
ATOM     35  C   UNL     1       2.368   5.909   6.739  0.00  0.00    +0.251 C 
ATOM     36  O   UNL     1       2.861   5.505   7.775  0.00  0.00    -0.270 OA
ENDBRANCH  20  28
ENDBRANCH   1  20
TORSDOF 7
