REMARK  Name = ZINC40985771
REMARK  9 active torsions:
REMARK  status: ('A' for Active; 'I' for Inactive)
REMARK    1  A    between atoms: C_1  and  C_2
REMARK    2  A    between atoms: C_5  and  C_8
REMARK    3  A    between atoms: C_8  and  C_10
REMARK    4  A    between atoms: C_8  and  N_29
REMARK    5  A    between atoms: C_10  and  N_11
REMARK    6  A    between atoms: C_12  and  C_14
REMARK    7  A    between atoms: C_17  and  S_21
REMARK    8  A    between atoms: S_21  and  C_22
REMARK    9  A    between atoms: C_22  and  C_23
REMARK                            x       y       z     vdW  Elec       q    Type
REMARK                         _______ _______ _______ _____ _____    ______ ____
ROOT
ATOM      1  N   UNL     1       1.871  -3.923   1.574  0.00  0.00    -0.312 N 
ATOM      2  C   UNL     1       3.142  -3.964   2.020  0.00  0.00    +0.248 C 
ATOM      3  O   UNL     1       3.995  -4.541   1.373  0.00  0.00    -0.270 OA
ATOM      4  H   UNL     1       1.191  -3.463   2.090  0.00  0.00    +0.149 HD
ENDROOT
BRANCH   2   5
ATOM      5  C   UNL     1       3.499  -3.309   3.292  0.00  0.00    +0.092 A 
ATOM      6  C   UNL     1       2.530  -2.644   4.054  0.00  0.00    +0.129 A 
ATOM      7  N   UNL     1       2.889  -2.071   5.187  0.00  0.00    -0.229 NA
ATOM      8  C   UNL     1       4.148  -2.118   5.607  0.00  0.00    +0.190 A 
ATOM      9  N   UNL     1       5.096  -2.737   4.915  0.00  0.00    -0.209 NA
ATOM     10  C   UNL     1       4.817  -3.341   3.773  0.00  0.00    +0.146 A 
ATOM     11 CL   UNL     1       6.063  -4.154   2.879  0.00  0.00    -0.061 Cl
BRANCH   8  12
ATOM     12  S   UNL     1       4.572  -1.335   7.127  0.00  0.00    -0.081 S 
BRANCH  12  13
ATOM     13  C   UNL     1       6.351  -1.645   7.299  0.00  0.00    +0.112 C 
BRANCH  13  14
ATOM     14  C   UNL     1       6.849  -1.020   8.576  0.00  0.00    -0.037 A 
ATOM     15  C   UNL     1       7.307   0.284   8.575  0.00  0.00    +0.004 A 
ATOM     16  C   UNL     1       7.763   0.858   9.746  0.00  0.00    +0.000 A 
ATOM     17  C   UNL     1       7.762   0.128  10.920  0.00  0.00    +0.000 A 
ATOM     18  C   UNL     1       7.304  -1.176  10.922  0.00  0.00    +0.000 A 
ATOM     19  C   UNL     1       6.843  -1.749   9.751  0.00  0.00    +0.004 A 
ENDBRANCH  13  14
ENDBRANCH  12  13
ENDBRANCH   8  12
ENDBRANCH   2   5
BRANCH   1  20
ATOM     20  C   UNL     1       1.517  -4.574   0.310  0.00  0.00    +0.094 C 
BRANCH  20  21
ATOM     21  C   UNL     1       0.056  -4.269  -0.029  0.00  0.00    -0.020 C 
BRANCH  21  22
ATOM     22  N   UNL     1      -0.799  -4.650   1.103  0.00  0.00    +0.385 N 
ATOM     23  C   UNL     1      -0.638  -6.096   1.353  0.00  0.00    -0.078 C 
ATOM     24  C   UNL     1      -0.989  -6.370   2.793  0.00  0.00    -0.019 C 
ATOM     25  C   UNL     1      -2.451  -6.832   2.939  0.00  0.00    -0.002 C 
ATOM     26  C   UNL     1      -3.398  -6.031   2.023  0.00  0.00    -0.002 C 
ATOM     27  C   UNL     1      -3.066  -4.561   1.997  0.00  0.00    -0.019 C 
ATOM     28  C   UNL     1      -2.114  -4.281   0.815  0.00  0.00    -0.078 C 
ATOM     29  H   UNL     1      -0.494  -4.146   1.923  0.00  0.00    -0.081 HD
ENDBRANCH  21  22
BRANCH  21  34
ATOM     30  C   UNL     1      -0.542   1.383  -1.075  0.00  0.00    +0.044 C 
ATOM     31  C   UNL     1      -0.386  -0.091  -0.802  0.00  0.00    -0.050 A 
ATOM     32  C   UNL     1      -0.290  -0.983  -1.854  0.00  0.00    +0.003 A 
ATOM     33  C   UNL     1      -0.147  -2.334  -1.604  0.00  0.00    +0.002 A 
ATOM     34  C   UNL     1      -0.099  -2.795  -0.301  0.00  0.00    -0.059 A 
ATOM     35  C   UNL     1      -0.193  -1.903   0.751  0.00  0.00    +0.002 A 
ATOM     36  C   UNL     1      -0.332  -0.551   0.500  0.00  0.00    +0.003 A 
ENDBRANCH  21  34
ENDBRANCH  20  21
ENDBRANCH   1  20
TORSDOF 8
