REMARK  Name = ZINC17031095
REMARK  5 active torsions:
REMARK  status: ('A' for Active; 'I' for Inactive)
REMARK    1  A    between atoms: C_1  and  C_2
REMARK    2  A    between atoms: C_3  and  C_20
REMARK    3  A    between atoms: N_9  and  C_13
REMARK    4  A    between atoms: C_10  and  S_12
REMARK    5  A    between atoms: C_16  and  O_19
REMARK                            x       y       z     vdW  Elec       q    Type
REMARK                         _______ _______ _______ _____ _____    ______ ____
ROOT
ATOM      1  C   UNL     1       6.094   3.176   2.094  0.00  0.00    +0.045 C 
ATOM      2  C   UNL     1       5.570   2.023   1.278  0.00  0.00    -0.026 A 
ATOM      3  C   UNL     1       6.304   0.910   1.128  0.00  0.00    -0.008 A 
ATOM      4  S   UNL     1       5.276  -0.129   0.107  0.00  0.00    -0.073 S 
ATOM      5  C   UNL     1       3.890   0.962  -0.088  0.00  0.00    +0.117 A 
ATOM      6  C   UNL     1       4.265   2.104   0.645  0.00  0.00    +0.076 A 
ATOM      7  C   UNL     1       3.315   3.173   0.663  0.00  0.00    +0.268 A 
ATOM      8  O   UNL     1       3.554   4.201   1.273  0.00  0.00    -0.267 OA
ATOM      9  N   UNL     1       2.154   3.029  -0.002  0.00  0.00    -0.256 N 
ATOM     10  C   UNL     1       1.869   1.884  -0.691  0.00  0.00    +0.174 A 
ATOM     11  N   UNL     1       2.724   0.882  -0.719  0.00  0.00    -0.216 NA
ATOM     12  C   UNL     1       7.670   0.610   1.687  0.00  0.00    +0.052 C 
ENDROOT
BRANCH   9  13
ATOM     13  C   UNL     1       1.219   4.074   0.012  0.00  0.00    +0.052 A 
ATOM     14  C   UNL     1       1.264   5.060  -0.965  0.00  0.00    +0.030 A 
ATOM     15  C   UNL     1       0.340   6.086  -0.954  0.00  0.00    +0.047 A 
ATOM     16  C   UNL     1      -0.627   6.137   0.040  0.00  0.00    +0.117 A 
ATOM     17  C   UNL     1      -0.669   5.156   1.019  0.00  0.00    +0.047 A 
ATOM     18  C   UNL     1       0.251   4.127   1.006  0.00  0.00    +0.030 A 
BRANCH  16  19
ATOM     19  O   UNL     1      -1.534   7.151   0.053  0.00  0.00    -0.507 OA
ATOM     20  H   UNL     1      -1.252   7.923   0.561  0.00  0.00    +0.292 HD
ENDBRANCH  16  19
ENDBRANCH   9  13
BRANCH  10  21
ATOM     21  S   UNL     1       0.335   1.742  -1.546  0.00  0.00    -0.105 S 
ATOM     22  H   UNL     1       0.475   0.447  -2.087  0.00  0.00    +0.110 HD
ENDBRANCH  10  21
TORSDOF 3
