REMARK  Name = ZINC24992887
REMARK  8 active torsions:
REMARK  status: ('A' for Active; 'I' for Inactive)
REMARK    1  A    between atoms: C_1  and  N_2
REMARK    2  A    between atoms: N_2  and  C_3
REMARK    3  A    between atoms: N_2  and  C_14
REMARK    4  A    between atoms: C_3  and  C_4
REMARK    5  A    between atoms: N_6  and  C_7
REMARK    6  A    between atoms: C_14  and  C_15
REMARK    7  A    between atoms: N_17  and  C_18
REMARK    8  A    between atoms: C_23  and  N_24
REMARK                            x       y       z     vdW  Elec       q    Type
REMARK                         _______ _______ _______ _____ _____    ______ ____
ROOT
ATOM      1  C   UNL     1       4.822   0.966  -0.192  0.00  0.00    +0.201 C 
ATOM      2  O   UNL     1       4.385  -0.165  -0.178  0.00  0.00    -0.278 OA
ATOM      3  N   UNL     1       6.139   1.177  -0.383  0.00  0.00    -0.285 N 
ATOM      4  H   UNL     1       6.550   2.195  -0.309  0.00  0.00    +0.155 HD
ENDROOT
BRANCH   3   5
ATOM      5  C   UNL     1       6.986   0.100  -0.677  0.00  0.00    +0.068 A 
ATOM      6  C   UNL     1       6.523  -0.954  -1.455  0.00  0.00    +0.075 A 
ATOM      7  C   UNL     1       7.366  -2.013  -1.745  0.00  0.00    +0.164 A 
ATOM      8  C   UNL     1       8.663  -2.026  -1.253  0.00  0.00    +0.164 A 
ATOM      9  C   UNL     1       9.123  -0.977  -0.474  0.00  0.00    +0.084 A 
ATOM     10  C   UNL     1       8.284   0.085  -0.187  0.00  0.00    +0.151 A 
ATOM     11  O   UNL     1       9.483  -3.079  -1.541  0.00  0.00    -0.488 OA
ATOM     12  C   UNL     1       9.888  -3.200  -2.906  0.00  0.00    +0.232 C 
ATOM     13  C   UNL     1       8.836  -3.942  -3.716  0.00  0.00    +0.082 C 
ATOM     14  C   UNL     1       7.526  -3.176  -3.802  0.00  0.00    +0.232 C 
ATOM     15  O   UNL     1       6.925  -3.053  -2.511  0.00  0.00    -0.488 OA
BRANCH  10  16
ATOM     16  N   UNL     1       8.773   1.208   0.645  0.00  0.00    +0.058 N 
ATOM     17  O   UNL     1       9.880   1.154   1.150  0.00  0.00    -0.126 OA
ATOM     18  O   UNL     1       8.068   2.184   0.824  0.00  0.00    -0.126 OA
ENDBRANCH  10  16
ENDBRANCH   3   5
BRANCH   1  19
ATOM     19  C   UNL     1       3.893   2.136   0.005  0.00  0.00    +0.019 C 
BRANCH  19  21
ATOM     20  C   UNL     1       2.399   0.887   1.444  0.00  0.00    -0.095 C 
ATOM     21  N   UNL     1       2.521   1.645   0.191  0.00  0.00    +0.389 N 
ATOM     22  H   UNL     1       2.290   0.963  -0.640  0.00  0.00    -0.081 HD
BRANCH  21  23
ATOM     23  C   UNL     1       1.555   2.752   0.149  0.00  0.00    +0.019 C 
BRANCH  23  24
ATOM     24  C   UNL     1       0.156   2.195   0.097  0.00  0.00    +0.201 C 
ATOM     25  O   UNL     1      -0.020   0.995   0.095  0.00  0.00    -0.278 OA
ATOM     26  N   UNL     1      -0.900   3.031   0.047  0.00  0.00    -0.286 N 
ATOM     27  H   UNL     1      -0.746   4.118   0.126  0.00  0.00    +0.155 HD
BRANCH  26  28
ATOM     28  C   UNL     1      -2.193   2.518  -0.106  0.00  0.00    +0.047 A 
ATOM     29  C   UNL     1      -2.534   1.306   0.480  0.00  0.00    +0.024 A 
ATOM     30  C   UNL     1      -3.812   0.804   0.332  0.00  0.00    +0.002 A 
ATOM     31  C   UNL     1      -4.749   1.501  -0.408  0.00  0.00    +0.001 A 
ATOM     32  C   UNL     1      -4.412   2.706  -0.998  0.00  0.00    +0.017 A 
ATOM     33  C   UNL     1      -3.137   3.216  -0.849  0.00  0.00    +0.039 A 
ATOM     34 BR   UNL     1      -2.676   4.863  -1.656  0.00  0.00    -0.048 Br
ENDBRANCH  26  28
ENDBRANCH  23  24
ENDBRANCH  21  23
ENDBRANCH  19  21
ENDBRANCH   1  19
TORSDOF 7
