REMARK  Name = ZINC51755970
REMARK  5 active torsions:
REMARK  status: ('A' for Active; 'I' for Inactive)
REMARK    1  A    between atoms: C_1  and  C_2
REMARK    2  A    between atoms: C_2  and  C_22
REMARK    3  A    between atoms: C_6  and  C_11
REMARK    4  A    between atoms: C_11  and  C_13
REMARK    5  A    between atoms: C_11  and  O_21
REMARK                            x       y       z     vdW  Elec       q    Type
REMARK                         _______ _______ _______ _____ _____    ______ ____
ROOT
ATOM      1  C   UNL     1       0.853   2.253   1.545  0.00  0.00    +0.056 C 
ATOM      2  C   UNL     1       0.548   0.789   1.219  0.00  0.00    +0.109 C 
ATOM      3  C   UNL     1       1.090   0.415  -0.181  0.00  0.00    +0.086 C 
ATOM      4  C   UNL     1       2.462  -0.138   0.152  0.00  0.00    -0.002 A 
ATOM      5  C   UNL     1       3.569  -0.395  -0.627  0.00  0.00    +0.013 A 
ATOM      6  C   UNL     1       4.718  -0.904  -0.048  0.00  0.00    -0.014 A 
ATOM      7  C   UNL     1       4.749  -1.154   1.312  0.00  0.00    +0.010 A 
ATOM      8  C   UNL     1       3.640  -0.901   2.093  0.00  0.00    +0.046 A 
ATOM      9  C   UNL     1       2.479  -0.391   1.517  0.00  0.00    +0.125 A 
ATOM     10  O   UNL     1       1.281  -0.090   2.089  0.00  0.00    -0.486 OA
ATOM     11  C   UNL     1      -0.955   0.516   1.314  0.00  0.00    +0.056 C 
ENDROOT
BRANCH   6  12
ATOM     12  C   UNL     1       5.931  -1.187  -0.897  0.00  0.00    +0.177 C 
BRANCH  12  13
ATOM     13  C   UNL     1       6.693   0.092  -1.125  0.00  0.00    +0.022 A 
ATOM     14  C   UNL     1       7.402   0.670  -0.087  0.00  0.00    +0.048 A 
ATOM     15  C   UNL     1       8.102   1.845  -0.297  0.00  0.00    +0.020 A 
ATOM     16  C   UNL     1       8.093   2.441  -1.543  0.00  0.00    +0.003 A 
ATOM     17  C   UNL     1       7.385   1.865  -2.581  0.00  0.00    +0.020 A 
ATOM     18  C   UNL     1       6.690   0.687  -2.374  0.00  0.00    +0.048 A 
ATOM     19 CL   UNL     1       5.807  -0.041  -3.679  0.00  0.00    -0.083 Cl
ATOM     20 CL   UNL     1       7.413  -0.079   1.480  0.00  0.00    -0.083 Cl
ENDBRANCH  12  13
BRANCH  12  21
ATOM     21  O   UNL     1       6.771  -2.130  -0.228  0.00  0.00    -0.382 OA
ATOM     22  H   UNL     1       6.947  -1.912   0.698  0.00  0.00    +0.211 HD
ENDBRANCH  12  21
ENDBRANCH   6  12
TORSDOF 3
