REMARK  Name = ZINC10505732
REMARK  8 active torsions:
REMARK  status: ('A' for Active; 'I' for Inactive)
REMARK    1  A    between atoms: C_1  and  C_2
REMARK    2  A    between atoms: C_2  and  C_4
REMARK    3  A    between atoms: C_4  and  O_5
REMARK    4  A    between atoms: O_5  and  C_6
REMARK    5  A    between atoms: C_11  and  N_12
REMARK    6  A    between atoms: N_12  and  C_13
REMARK    7  A    between atoms: C_13  and  N_15
REMARK    8  A    between atoms: C_16  and  C_18
REMARK                            x       y       z     vdW  Elec       q    Type
REMARK                         _______ _______ _______ _____ _____    ______ ____
ROOT
ATOM      1  C   UNL     1      -1.572   7.303   0.834  0.00  0.00    +0.141 C 
ATOM      2  S   UNL     1      -0.482   8.146   1.850  0.00  0.00    -0.018 S 
ENDROOT
BRANCH   1   3
ATOM      3  N   UNL     1      -1.562   5.956   0.804  0.00  0.00    -0.264 N 
ATOM      4  C   UNL     1      -0.693   5.272   1.575  0.00  0.00    +0.250 C 
ATOM      5  O   UNL     1       0.081   5.870   2.296  0.00  0.00    -0.270 OA
ATOM      6  H   UNL     1      -2.180   5.479   0.228  0.00  0.00    +0.157 HD
BRANCH   4   7
ATOM      7  C   UNL     1      -0.682   3.794   1.542  0.00  0.00    +0.040 A 
ATOM      8  C   UNL     1       0.217   3.083   2.339  0.00  0.00    +0.033 A 
ATOM      9  C   UNL     1       0.223   1.702   2.304  0.00  0.00    +0.043 A 
ATOM     10  C   UNL     1      -0.660   1.024   1.480  0.00  0.00    +0.040 A 
ATOM     11  C   UNL     1      -1.550   1.724   0.684  0.00  0.00    +0.043 A 
ATOM     12  C   UNL     1      -1.569   3.105   0.714  0.00  0.00    +0.033 A 
ATOM     13 CL   UNL     1      -2.648   0.865  -0.351  0.00  0.00    -0.083 Cl
ATOM     14 CL   UNL     1       1.339   0.816   3.294  0.00  0.00    -0.083 Cl
ENDBRANCH   4   7
ENDBRANCH   1   3
BRANCH   1  15
ATOM     15  N   UNL     1      -2.441   7.988   0.063  0.00  0.00    -0.294 N 
ATOM     16  H   UNL     1      -3.015   7.514  -0.558  0.00  0.00    +0.154 HD
BRANCH  15  22
ATOM     17  C   UNL     1      -3.753  10.011   0.271  0.00  0.00    +0.142 A 
ATOM     18  C   UNL     1      -3.819  11.392   0.366  0.00  0.00    +0.047 A 
ATOM     19  C   UNL     1      -2.658  12.143   0.352  0.00  0.00    +0.004 A 
ATOM     20  C   UNL     1      -1.429  11.520   0.242  0.00  0.00    +0.002 A 
ATOM     21  C   UNL     1      -1.353  10.143   0.152  0.00  0.00    +0.027 A 
ATOM     22  C   UNL     1      -2.514   9.383   0.160  0.00  0.00    +0.075 A 
BRANCH  17  23
ATOM     23  O   UNL     1      -4.893   9.272   0.285  0.00  0.00    -0.486 OA
BRANCH  23  24
ATOM     24  C   UNL     1      -6.127   9.983   0.401  0.00  0.00    +0.259 C 
BRANCH  24  26
ATOM     25  C   UNL     1      -8.691   9.505   0.513  0.00  0.00    +0.042 C 
ATOM     26  C   UNL     1      -7.274   9.005   0.401  0.00  0.00    -0.043 C 
ATOM     27  C   UNL     1      -7.038   7.721   0.302  0.00  0.00    +0.011 C 
ENDBRANCH  24  26
ENDBRANCH  23  24
ENDBRANCH  17  23
ENDBRANCH  15  22
ENDBRANCH   1  15
TORSDOF 7
