REMARK  Name = ZINC38875416
REMARK  5 active torsions:
REMARK  status: ('A' for Active; 'I' for Inactive)
REMARK    1  A    between atoms: C_1  and  C_2
REMARK    2  A    between atoms: C_4  and  C_14
REMARK    3  A    between atoms: C_14  and  N_16
REMARK    4  A    between atoms: N_18  and  C_27
REMARK    5  A    between atoms: C_27  and  C_28
REMARK                            x       y       z     vdW  Elec       q    Type
REMARK                         _______ _______ _______ _____ _____    ______ ____
ROOT
ATOM      1  N   UNL     1      -2.305   1.243   1.527  0.00  0.00    -0.153 NA
ATOM      2  C   UNL     1      -3.372   1.880   1.049  0.00  0.00    +0.167 A 
ATOM      3  N   UNL     1      -4.447   1.344   0.419  0.00  0.00    -0.310 N 
ATOM      4  C   UNL     1      -5.472   2.167  -0.014  0.00  0.00    +0.059 A 
ATOM      5  C   UNL     1      -6.659   1.828  -0.678  0.00  0.00    +0.030 A 
ATOM      6  C   UNL     1      -7.566   2.799  -1.031  0.00  0.00    +0.040 A 
ATOM      7  C   UNL     1      -7.335   4.136  -0.742  0.00  0.00    +0.125 A 
ATOM      8  C   UNL     1      -6.170   4.496  -0.086  0.00  0.00    +0.055 A 
ATOM      9  C   UNL     1      -5.263   3.525   0.267  0.00  0.00    +0.042 A 
ATOM     10  S   UNL     1      -3.695   3.529   1.096  0.00  0.00    -0.052 S 
ATOM     11  F   UNL     1      -8.238   5.077  -1.097  0.00  0.00    -0.205 F 
ENDROOT
BRANCH   1  12
ATOM     12  C   UNL     1      -2.132  -0.049   1.270  0.00  0.00    +0.283 C 
ATOM     13  O   UNL     1      -2.577  -0.886   2.031  0.00  0.00    -0.269 OA
BRANCH  12  16
ATOM     14  C   UNL     1       0.158   1.484   0.279  0.00  0.00    +0.056 C 
ATOM     15  C   UNL     1       0.084  -0.037   0.139  0.00  0.00    +0.220 C 
ATOM     16  C   UNL     1      -1.383  -0.477   0.034  0.00  0.00    +0.301 C 
ATOM     17  O   UNL     1      -1.417  -1.903  -0.083  0.00  0.00    -0.472 OA
ATOM     18  C   UNL     1      -0.633  -2.606   0.781  0.00  0.00    +0.163 A 
ATOM     19  C   UNL     1      -0.878  -3.957   0.976  0.00  0.00    +0.049 A 
ATOM     20  C   UNL     1      -0.088  -4.684   1.847  0.00  0.00    +0.004 A 
ATOM     21  C   UNL     1       0.947  -4.067   2.525  0.00  0.00    +0.004 A 
ATOM     22  C   UNL     1       1.194  -2.721   2.336  0.00  0.00    +0.049 A 
ATOM     23  C   UNL     1       0.405  -1.985   1.465  0.00  0.00    +0.163 A 
ATOM     24  O   UNL     1       0.657  -0.658   1.295  0.00  0.00    -0.481 OA
ENDBRANCH  12  16
ENDBRANCH   1  12
BRANCH   3  25
ATOM     25  C   UNL     1      -4.523  -0.102   0.196  0.00  0.00    +0.212 C 
BRANCH  25  26
ATOM     26  C   UNL     1      -5.051  -0.757   1.404  0.00  0.00    -0.084 C 
ATOM     27  C   UNL     1      -5.472  -1.280   2.367  0.00  0.00    +0.005 C 
ENDBRANCH  25  26
ENDBRANCH   3  25
TORSDOF 4
