REMARK  Name = ZINC02616667
REMARK  9 active torsions:
REMARK  status: ('A' for Active; 'I' for Inactive)
REMARK    1  A    between atoms: C_1  and  C_2
REMARK    2  A    between atoms: C_2  and  N_3
REMARK    3  A    between atoms: C_6  and  C_19
REMARK    4  A    between atoms: C_7  and  N_18
REMARK    5  A    between atoms: N_8  and  C_11
REMARK    6  A    between atoms: C_11  and  C_12
REMARK    7  A    between atoms: C_19  and  C_21
REMARK    8  A    between atoms: C_21  and  N_22
REMARK    9  A    between atoms: C_30  and  C_32
REMARK                            x       y       z     vdW  Elec       q    Type
REMARK                         _______ _______ _______ _____ _____    ______ ____
ROOT
ATOM      1  N   UNL     1       0.838  -0.455  -1.136  0.00  0.00    -0.260 N 
ATOM      2  C   UNL     1      -0.002  -0.653  -2.173  0.00  0.00    +0.269 A 
ATOM      3  O   UNL     1      -1.192  -0.425  -2.061  0.00  0.00    -0.267 OA
ATOM      4  C   UNL     1       0.550  -1.149  -3.440  0.00  0.00    +0.121 A 
ATOM      5  C   UNL     1       1.933  -1.392  -3.503  0.00  0.00    +0.116 A 
ATOM      6  N   UNL     1       2.696  -1.159  -2.395  0.00  0.00    -0.277 N 
ATOM      7  C   UNL     1       2.152  -0.700  -1.258  0.00  0.00    +0.334 A 
ATOM      8  O   UNL     1       2.875  -0.503  -0.300  0.00  0.00    -0.246 OA
ENDROOT
BRANCH   5   9
ATOM      9  N   UNL     1       2.502  -1.853  -4.650  0.00  0.00    -0.344 N 
ATOM     10  H   UNL     1       1.969  -1.938  -5.456  0.00  0.00    +0.144 HD
ATOM     11  H   UNL     1       3.442  -2.096  -4.662  0.00  0.00    +0.144 HD
ENDBRANCH   5   9
BRANCH   1  13
ATOM     12  C   UNL     1       0.337   1.569   0.142  0.00  0.00    +0.027 C 
ATOM     13  C   UNL     1       0.309   0.040   0.138  0.00  0.00    +0.126 C 
ENDBRANCH   1  13
BRANCH   4  14
ATOM     14  C   UNL     1      -0.281  -1.375  -4.558  0.00  0.00    +0.189 C 
ATOM     15  O   UNL     1       0.209  -1.683  -5.626  0.00  0.00    -0.290 OA
BRANCH  14  16
ATOM     16  C   UNL     1      -1.776  -1.235  -4.426  0.00  0.00    +0.185 C 
BRANCH  16  17
ATOM     17  N   UNL     1      -2.408  -1.519  -5.717  0.00  0.00    -0.319 N 
ATOM     18  C   UNL     1      -2.669  -0.570  -6.706  0.00  0.00    +0.034 A 
ATOM     19  C   UNL     1      -2.407   0.802  -6.707  0.00  0.00    +0.023 A 
ATOM     20  C   UNL     1      -2.748   1.574  -7.796  0.00  0.00    +0.002 A 
ATOM     21  C   UNL     1      -3.352   0.996  -8.898  0.00  0.00    +0.000 A 
ATOM     22  C   UNL     1      -3.615  -0.361  -8.904  0.00  0.00    +0.005 A 
ATOM     23  C   UNL     1      -3.275  -1.139  -7.814  0.00  0.00    -0.025 A 
ATOM     24  C   UNL     1      -3.446  -2.620  -7.561  0.00  0.00    +0.059 C 
ATOM     25  C   UNL     1      -2.853  -2.843  -6.160  0.00  0.00    +0.075 C 
ATOM     26  C   UNL     1      -3.926  -3.387  -5.214  0.00  0.00    +0.028 C 
ENDBRANCH  16  17
ENDBRANCH  14  16
ENDBRANCH   4  14
BRANCH   6  27
ATOM     27  C   UNL     1       4.139  -1.409  -2.451  0.00  0.00    +0.163 C 
BRANCH  27  28
ATOM     28  C   UNL     1       4.849  -0.158  -2.900  0.00  0.00    -0.028 A 
ATOM     29  C   UNL     1       5.064   0.069  -4.246  0.00  0.00    +0.005 A 
ATOM     30  C   UNL     1       5.716   1.217  -4.658  0.00  0.00    +0.000 A 
ATOM     31  C   UNL     1       6.151   2.138  -3.724  0.00  0.00    +0.000 A 
ATOM     32  C   UNL     1       5.934   1.911  -2.377  0.00  0.00    +0.000 A 
ATOM     33  C   UNL     1       5.279   0.765  -1.966  0.00  0.00    +0.005 A 
ENDBRANCH  27  28
ENDBRANCH   6  27
TORSDOF 7
