REMARK  Name = ZINC35926668
REMARK  8 active torsions:
REMARK  status: ('A' for Active; 'I' for Inactive)
REMARK    1  A    between atoms: C_1  and  C_2
REMARK    2  A    between atoms: C_2  and  C_3
REMARK    3  A    between atoms: C_3  and  C_5
REMARK    4  A    between atoms: C_3  and  C_11
REMARK    5  A    between atoms: C_25  and  C_27
REMARK    6  A    between atoms: C_27  and  N_28
REMARK    7  A    between atoms: N_31  and  C_34
REMARK    8  A    between atoms: C_34  and  C_35
REMARK                            x       y       z     vdW  Elec       q    Type
REMARK                         _______ _______ _______ _____ _____    ______ ____
ROOT
ATOM      1  C   UNL     1       2.283  -0.184   1.268  0.00  0.00    +0.223 C 
ATOM      2  O   UNL     1       1.116  -0.478   1.414  0.00  0.00    -0.275 OA
ATOM      3  N   UNL     1       2.652   1.112   1.225  0.00  0.00    -0.298 N 
ATOM      4  C   UNL     1       4.072   1.484   1.156  0.00  0.00    +0.127 C 
ATOM      5  C   UNL     1       4.284   2.384  -0.067  0.00  0.00    +0.127 C 
ATOM      6  N   UNL     1       3.273   3.451  -0.046  0.00  0.00    -0.298 N 
ATOM      7  C   UNL     1       1.853   3.079   0.023  0.00  0.00    +0.127 C 
ATOM      8  C   UNL     1       1.640   2.178   1.240  0.00  0.00    +0.127 C 
ATOM      9  C   UNL     1       3.647   4.767  -0.089  0.00  0.00    +0.198 A 
ATOM     10  N   UNL     1       4.958   5.083  -0.272  0.00  0.00    -0.295 N 
ATOM     11  H   UNL     1       5.619   4.381  -0.370  0.00  0.00    +0.172 HD
ATOM     12  C   UNL     1       5.334   6.379  -0.316  0.00  0.00    +0.253 A 
ATOM     13  O   UNL     1       6.505   6.681  -0.479  0.00  0.00    -0.268 OA
ATOM     14  C   UNL     1       4.351   7.374  -0.171  0.00  0.00    +0.091 A 
ATOM     15  C   UNL     1       3.053   6.997   0.010  0.00  0.00    +0.034 A 
ATOM     16  N   UNL     1       2.731   5.705   0.041  0.00  0.00    -0.223 NA
ENDROOT
BRANCH   1  17
ATOM     17  C   UNL     1       3.322  -1.267   1.134  0.00  0.00    +0.105 C 
BRANCH  17  18
ATOM     18  C   UNL     1       3.775  -1.701   2.504  0.00  0.00    -0.036 A 
ATOM     19  C   UNL     1       2.863  -2.228   3.399  0.00  0.00    +0.004 A 
ATOM     20  C   UNL     1       3.279  -2.626   4.656  0.00  0.00    +0.000 A 
ATOM     21  C   UNL     1       4.607  -2.496   5.018  0.00  0.00    +0.000 A 
ATOM     22  C   UNL     1       5.519  -1.970   4.122  0.00  0.00    +0.000 A 
ATOM     23  C   UNL     1       5.104  -1.577   2.864  0.00  0.00    +0.004 A 
ENDBRANCH  17  18
BRANCH  17  25
ATOM     24  C   UNL     1       2.387  -2.059  -1.044  0.00  0.00    +0.005 C 
ATOM     25  C   UNL     1       2.719  -2.463   0.394  0.00  0.00    +0.014 C 
ENDBRANCH  17  25
ENDBRANCH   1  17
BRANCH  15  26
ATOM     26  C   UNL     1       1.980   8.043   0.168  0.00  0.00    -0.022 C 
BRANCH  26  27
ATOM     27  N   UNL     1       1.053   7.971  -0.970  0.00  0.00    +0.385 N 
ATOM     28  C   UNL     1       1.765   8.325  -2.204  0.00  0.00    -0.063 C 
ATOM     29  C   UNL     1       0.805   8.232  -3.392  0.00  0.00    +0.066 C 
ATOM     30  N   UNL     1      -0.325   9.146  -3.178  0.00  0.00    -0.302 NA
ATOM     31  C   UNL     1      -1.033   8.819  -1.932  0.00  0.00    +0.066 C 
ATOM     32  C   UNL     1      -0.058   8.908  -0.756  0.00  0.00    -0.063 C 
ATOM     33  H   UNL     1       0.691   7.032  -1.048  0.00  0.00    -0.081 HD
BRANCH  30  34
ATOM     34  C   UNL     1      -1.242   9.127  -4.325  0.00  0.00    +0.119 C 
BRANCH  34  35
ATOM     35  C   UNL     1      -2.245  10.243  -4.185  0.00  0.00    -0.033 A 
ATOM     36  C   UNL     1      -3.436  10.022  -3.518  0.00  0.00    +0.008 A 
ATOM     37  C   UNL     1      -4.356  11.045  -3.388  0.00  0.00    +0.038 A 
ATOM     38  C   UNL     1      -4.085  12.291  -3.927  0.00  0.00    +0.123 A 
ATOM     39  C   UNL     1      -2.893  12.512  -4.596  0.00  0.00    +0.038 A 
ATOM     40  C   UNL     1      -1.972  11.489  -4.719  0.00  0.00    +0.008 A 
ATOM     41  F   UNL     1      -4.985  13.292  -3.802  0.00  0.00    -0.205 F 
ENDBRANCH  34  35
ENDBRANCH  30  34
ENDBRANCH  26  27
ENDBRANCH  15  26
TORSDOF 7
