REMARK  Name = ZINC39637481
REMARK  6 active torsions:
REMARK  status: ('A' for Active; 'I' for Inactive)
REMARK    1  A    between atoms: C_1  and  C_2
REMARK    2  A    between atoms: C_7  and  N_12
REMARK    3  A    between atoms: C_9  and  C_11
REMARK    4  A    between atoms: C_13  and  C_15
REMARK    5  A    between atoms: C_26  and  C_28
REMARK    6  A    between atoms: C_31  and  C_33
REMARK                            x       y       z     vdW  Elec       q    Type
REMARK                         _______ _______ _______ _____ _____    ______ ____
ROOT
ATOM      1  C   UNL     1       2.785  -4.239   3.627  0.00  0.00    +0.100 C 
ATOM      2  C   UNL     1       4.061  -3.403   3.871  0.00  0.00    +0.121 C 
ATOM      3  N   UNL     1       5.065  -4.383   4.350  0.00  0.00    -0.294 N 
ATOM      4  C   UNL     1       4.825  -5.590   3.525  0.00  0.00    +0.115 C 
ATOM      5  C   UNL     1       3.291  -5.674   3.400  0.00  0.00    -0.004 C 
ATOM      6  C   UNL     1       2.724  -6.609   4.465  0.00  0.00    -0.010 C 
ATOM      7  C   UNL     1       3.195  -8.039   4.184  0.00  0.00    -0.082 C 
ATOM      8  N   UNL     1       2.742  -8.452   2.851  0.00  0.00    +0.379 N 
ATOM      9  C   UNL     1       3.364  -7.606   1.825  0.00  0.00    -0.082 C 
ATOM     10  C   UNL     1       2.901  -6.157   2.006  0.00  0.00    -0.010 C 
ATOM     11  C   UNL     1       5.987  -4.214   5.318  0.00  0.00    +0.282 C 
ATOM     12  O   UNL     1       6.748  -5.122   5.599  0.00  0.00    -0.267 OA
ATOM     13  H   UNL     1       3.000  -9.414   2.692  0.00  0.00    -0.086 HD
ATOM     14  H   UNL     1       1.738  -8.363   2.795  0.00  0.00    -0.086 HD
ENDROOT
BRANCH  11  15
ATOM     15  C   UNL     1       6.075  -2.938   6.032  0.00  0.00    +0.190 A 
ATOM     16  C   UNL     1       6.970  -2.631   7.034  0.00  0.00    +0.055 A 
ATOM     17  C   UNL     1       6.700  -1.316   7.426  0.00  0.00    +0.051 A 
ATOM     18  C   UNL     1       5.662  -0.872   6.659  0.00  0.00    +0.139 A 
ATOM     19  O   UNL     1       5.296  -1.855   5.819  0.00  0.00    -0.450 OA
BRANCH  18  20
ATOM     20  C   UNL     1       5.046   0.467   6.735  0.00  0.00    +0.052 A 
ATOM     21  C   UNL     1       4.653   0.990   7.969  0.00  0.00    +0.014 A 
ATOM     22  C   UNL     1       4.078   2.242   8.034  0.00  0.00    +0.001 A 
ATOM     23  C   UNL     1       3.889   2.982   6.879  0.00  0.00    +0.003 A 
ATOM     24  C   UNL     1       4.275   2.473   5.653  0.00  0.00    +0.039 A 
ATOM     25  C   UNL     1       4.858   1.222   5.573  0.00  0.00    +0.134 A 
ATOM     26  F   UNL     1       5.240   0.727   4.375  0.00  0.00    -0.205 F 
ENDBRANCH  18  20
ENDBRANCH  11  15
BRANCH   1  28
ATOM     27  N   UNL     1       0.719  -3.878   2.316  0.00  0.00    -0.312 N 
ATOM     28  C   UNL     1       2.056  -3.740   2.406  0.00  0.00    +0.218 C 
ATOM     29  O   UNL     1       2.674  -3.214   1.504  0.00  0.00    -0.275 OA
ATOM     30  H   UNL     1       0.225  -4.299   3.038  0.00  0.00    +0.149 HD
BRANCH  27  36
ATOM     31  C   UNL     1      -3.638  -2.272   0.618  0.00  0.00    +0.008 C 
ATOM     32  C   UNL     1      -2.184  -2.579   0.254  0.00  0.00    -0.009 C 
ATOM     33  C   UNL     1      -2.147  -3.652  -0.836  0.00  0.00    +0.003 C 
ATOM     34  C   UNL     1      -0.693  -3.959  -1.200  0.00  0.00    +0.002 C 
ATOM     35  C   UNL     1       0.047  -4.466   0.039  0.00  0.00    +0.022 C 
ATOM     36  C   UNL     1       0.010  -3.393   1.129  0.00  0.00    +0.076 C 
ATOM     37  C   UNL     1      -1.444  -3.086   1.494  0.00  0.00    +0.009 C 
ATOM     38  C   UNL     1      -2.121  -4.358   2.007  0.00  0.00    +0.009 C 
ENDBRANCH  27  36
ENDBRANCH   1  28
TORSDOF 4
