REMARK  Name = ZINC41477515
REMARK  2 active torsions:
REMARK  status: ('A' for Active; 'I' for Inactive)
REMARK    1  A    between atoms: C_1  and  C_2
REMARK    2  A    between atoms: C_7  and  C_10
REMARK                            x       y       z     vdW  Elec       q    Type
REMARK                         _______ _______ _______ _____ _____    ______ ____
ROOT
ATOM      1  C   UNL     1      -0.491   1.679   0.247  0.00  0.00    +0.039 C 
ATOM      2  C   UNL     1      -0.287   0.174   0.063  0.00  0.00    +0.133 C 
ATOM      3  C   UNL     1      -1.635  -0.545   0.189  0.00  0.00    +0.138 C 
ATOM      4  N   UNL     1      -1.389  -1.995   0.196  0.00  0.00    -0.309 N 
ATOM      5  C   UNL     1      -0.379  -2.521   1.128  0.00  0.00    +0.138 C 
ATOM      6  C   UNL     1       0.908  -1.706   0.956  0.00  0.00    +0.133 C 
ATOM      7  O   UNL     1       0.604  -0.314   1.069  0.00  0.00    -0.371 OA
ATOM      8  C   UNL     1       1.912  -2.101   2.041  0.00  0.00    +0.039 C 
ATOM      9  C   UNL     1      -2.089  -2.842  -0.650  0.00  0.00    +0.139 A 
ATOM     10  C   UNL     1      -1.962  -4.221  -0.543  0.00  0.00    +0.080 A 
ATOM     11  C   UNL     1      -2.668  -5.076  -1.396  0.00  0.00    +0.092 A 
ATOM     12  C   UNL     1      -2.451  -6.520  -1.185  0.00  0.00    +0.035 A 
ATOM     13  C   UNL     1      -3.031  -7.593  -1.898  0.00  0.00    +0.029 A 
ATOM     14  C   UNL     1      -2.700  -8.884  -1.548  0.00  0.00    +0.037 A 
ATOM     15  C   UNL     1      -1.810  -9.120  -0.512  0.00  0.00    +0.127 A 
ATOM     16  N   UNL     1      -1.273  -8.113   0.149  0.00  0.00    -0.247 NA
ATOM     17  C   UNL     1      -1.561  -6.864  -0.152  0.00  0.00    +0.111 A 
ATOM     18  S   UNL     1      -1.036  -5.302   0.511  0.00  0.00    -0.064 S 
ATOM     19 BR   UNL     1      -3.462 -10.339  -2.485  0.00  0.00    -0.049 Br
ATOM     20  N   UNL     1      -3.463  -4.478  -2.311  0.00  0.00    -0.234 NA
ATOM     21  C   UNL     1      -3.559  -3.175  -2.385  0.00  0.00    +0.224 A 
ATOM     22  N   UNL     1      -2.904  -2.353  -1.584  0.00  0.00    -0.220 NA
ENDROOT
TORSDOF 0
