REMARK  Name = ZINC13795877
REMARK  9 active torsions:
REMARK  status: ('A' for Active; 'I' for Inactive)
REMARK    1  A    between atoms: C_1  and  O_2
REMARK    2  A    between atoms: O_2  and  C_3
REMARK    3  A    between atoms: C_7  and  C_38
REMARK    4  A    between atoms: C_8  and  C_36
REMARK    5  A    between atoms: C_9  and  C_15
REMARK    6  A    between atoms: C_12  and  O_13
REMARK    7  A    between atoms: O_13  and  C_14
REMARK    8  A    between atoms: C_36  and  O_37
REMARK    9  A    between atoms: C_38  and  O_39
REMARK                            x       y       z     vdW  Elec       q    Type
REMARK                         _______ _______ _______ _____ _____    ______ ____
ROOT
ATOM      1  C   UNL     1       1.343  -6.285  -0.043  0.00  0.00    -0.012 A 
ATOM      2  C   UNL     1       0.117  -6.963  -0.035  0.00  0.00    +0.028 A 
ATOM      3  C   UNL     1      -1.053  -6.235  -0.020  0.00  0.00    +0.114 A 
ATOM      4  N   UNL     1      -1.032  -4.915  -0.014  0.00  0.00    -0.237 NA
ATOM      5  C   UNL     1       0.103  -4.232  -0.021  0.00  0.00    +0.141 A 
ATOM      6  C   UNL     1       1.325  -4.889  -0.042  0.00  0.00    +0.055 A 
ATOM      7  N   UNL     1       0.069  -2.837  -0.013  0.00  0.00    -0.260 N 
ATOM      8  C   UNL     1       0.044  -2.161  -1.224  0.00  0.00    +0.059 A 
ATOM      9  C   UNL     1       0.053  -2.875  -2.418  0.00  0.00    +0.027 A 
ATOM     10  C   UNL     1       0.027  -2.207  -3.623  0.00  0.00    +0.002 A 
ATOM     11  C   UNL     1      -0.008  -0.822  -3.661  0.00  0.00    +0.001 A 
ATOM     12  C   UNL     1      -0.018  -0.096  -2.489  0.00  0.00    +0.010 A 
ATOM     13  C   UNL     1       0.010  -0.759  -1.263  0.00  0.00    +0.007 A 
ATOM     14  C   UNL     1       0.000  -0.004   0.004  0.00  0.00    -0.004 A 
ATOM     15  C   UNL     1      -0.034   1.386   0.027  0.00  0.00    +0.009 A 
ATOM     16  C   UNL     1      -0.042   2.049   1.237  0.00  0.00    +0.001 A 
ATOM     17  C   UNL     1      -0.016   1.341   2.430  0.00  0.00    +0.001 A 
ATOM     18  C   UNL     1       0.017  -0.037   2.428  0.00  0.00    +0.014 A 
ATOM     19  C   UNL     1       0.026  -0.725   1.216  0.00  0.00    +0.048 A 
ATOM     20  C   UNL     1       0.061  -2.194   1.168  0.00  0.00    +0.265 A 
ATOM     21  O   UNL     1       0.084  -2.832   2.204  0.00  0.00    -0.267 OA
ENDROOT
BRANCH   1  28
ATOM     22  C   UNL     1       5.290  -6.824   3.170  0.00  0.00    +0.162 A 
ATOM     23  C   UNL     1       5.615  -7.591   2.090  0.00  0.00    +0.058 A 
ATOM     24  C   UNL     1       4.730  -7.669   1.000  0.00  0.00    -0.013 A 
ATOM     25  C   UNL     1       5.035  -8.451  -0.127  0.00  0.00    +0.015 A 
ATOM     26  C   UNL     1       4.163  -8.513  -1.172  0.00  0.00    -0.016 A 
ATOM     27  C   UNL     1       2.963  -7.812  -1.149  0.00  0.00    -0.009 A 
ATOM     28  C   UNL     1       2.623  -7.030  -0.059  0.00  0.00    -0.004 A 
ATOM     29  C   UNL     1       3.514  -6.944   1.038  0.00  0.00    -0.006 A 
ATOM     30  C   UNL     1       3.205  -6.168   2.164  0.00  0.00    +0.058 A 
ATOM     31  C   UNL     1       4.083  -6.111   3.208  0.00  0.00    +0.162 A 
BRANCH  22  33
ATOM     32  C   UNL     1       7.361  -7.498   4.126  0.00  0.00    +0.277 C 
ATOM     33  O   UNL     1       6.147  -6.749   4.223  0.00  0.00    -0.491 OA
ENDBRANCH  22  33
BRANCH  31  34
ATOM     34  O   UNL     1       3.784  -5.354   4.297  0.00  0.00    -0.491 OA
ATOM     35  C   UNL     1       2.540  -4.652   4.276  0.00  0.00    +0.277 C 
ENDBRANCH  31  34
BRANCH  27  36
ATOM     36  C   UNL     1       2.023  -7.904  -2.323  0.00  0.00    +0.192 C 
BRANCH  36  37
ATOM     37  O   UNL     1       2.333  -6.875  -3.264  0.00  0.00    -0.390 OA
ATOM     38  H   UNL     1       1.766  -6.874  -4.047  0.00  0.00    +0.210 HD
ENDBRANCH  36  37
ENDBRANCH  27  36
BRANCH  26  39
ATOM     39  C   UNL     1       4.505  -9.356  -2.373  0.00  0.00    +0.191 C 
BRANCH  39  40
ATOM     40  O   UNL     1       5.776  -9.978  -2.172  0.00  0.00    -0.390 OA
ATOM     41  H   UNL     1       6.061 -10.537  -2.908  0.00  0.00    +0.210 HD
ENDBRANCH  39  40
ENDBRANCH  26  39
ENDBRANCH   1  28
TORSDOF 7
