REMARK  Name = ZINC08874814
REMARK  9 active torsions:
REMARK  status: ('A' for Active; 'I' for Inactive)
REMARK    1  A    between atoms: C_1  and  N_59
REMARK    2  A    between atoms: C_12  and  C_15
REMARK    3  A    between atoms: C_18  and  O_23
REMARK    4  A    between atoms: C_19  and  O_21
REMARK    5  A    between atoms: O_21  and  C_22
REMARK    6  A    between atoms: O_23  and  C_24
REMARK    7  A    between atoms: C_24  and  C_26
REMARK    8  A    between atoms: C_29  and  O_32
REMARK    9  A    between atoms: O_32  and  C_33
REMARK                            x       y       z     vdW  Elec       q    Type
REMARK                         _______ _______ _______ _____ _____    ______ ____
ROOT
ATOM      1  C   UNL     1       1.145   2.088   0.007  0.00  0.00    -0.006 A 
ATOM      2  C   UNL     1       2.357   1.425  -0.037  0.00  0.00    +0.011 A 
ATOM      3  C   UNL     1       2.392   0.043  -0.046  0.00  0.00    +0.050 A 
ATOM      4  C   UNL     1       1.210  -0.680  -0.012  0.00  0.00    +0.173 A 
ATOM      5  C   UNL     1      -0.010  -0.012   0.032  0.00  0.00    +0.163 A 
ATOM      6  C   UNL     1      -0.038   1.373   0.042  0.00  0.00    +0.056 A 
ENDROOT
BRANCH   1  18
ATOM      7  C   UNL     1       2.310   4.628   8.350  0.00  0.00    -0.096 C 
ATOM      8  C   UNL     1       0.762   3.954   6.614  0.00  0.00    -0.074 C 
ATOM      9  C   UNL     1       0.215   4.361   5.243  0.00  0.00    +0.018 C 
ATOM     10  C   UNL     1       1.353   4.277   4.232  0.00  0.00    -0.027 A 
ATOM     11  C   UNL     1       2.636   4.246   4.660  0.00  0.00    -0.021 A 
ATOM     12  S   UNL     1       3.609   4.148   3.182  0.00  0.00    -0.080 S 
ATOM     13  C   UNL     1       2.343   4.151   2.028  0.00  0.00    +0.080 A 
ATOM     14  C   UNL     1       1.168   4.223   2.792  0.00  0.00    +0.068 A 
ATOM     15  C   UNL     1      -0.122   4.234   2.064  0.00  0.00    +0.248 C 
ATOM     16  O   UNL     1      -1.177   4.408   2.647  0.00  0.00    -0.270 OA
ATOM     17  N   UNL     1      -0.079   4.043   0.731  0.00  0.00    -0.289 N 
ATOM     18  C   UNL     1       1.113   3.595   0.017  0.00  0.00    +0.190 C 
ATOM     19  N   UNL     1       2.340   4.100   0.658  0.00  0.00    -0.316 N 
ATOM     20  C   UNL     1       3.101   4.289   6.082  0.00  0.00    -0.036 C 
ATOM     21  H   UNL     1      -0.884   4.213   0.218  0.00  0.00    +0.151 HD
ATOM     22  H   UNL     1       3.108   4.382   0.137  0.00  0.00    +0.149 HD
ATOM     23  N   UNL     1       1.967   4.753   6.917  0.00  0.00    +0.381 N 
ATOM     24  H   UNL     1       1.777   5.739   6.704  0.00  0.00    -0.082 HD
ENDBRANCH   1  18
BRANCH   5  25
ATOM     25  O   UNL     1      -1.173  -0.717   0.066  0.00  0.00    -0.491 OA
ATOM     26  C   UNL     1      -2.386   0.035   0.110  0.00  0.00    +0.277 C 
ENDBRANCH   5  25
BRANCH   4  27
ATOM     27  O   UNL     1       1.242  -2.040  -0.020  0.00  0.00    -0.419 OA
BRANCH  27  28
ATOM     28  C   UNL     1       1.034  -2.649  -1.204  0.00  0.00    +0.345 C 
ATOM     29  O   UNL     1       0.926  -1.987  -2.217  0.00  0.00    -0.245 OA
BRANCH  28  30
ATOM     30  C   UNL     1       0.935  -4.119  -1.269  0.00  0.00    +0.060 A 
ATOM     31  C   UNL     1       1.064  -4.883  -0.105  0.00  0.00    +0.018 A 
ATOM     32  C   UNL     1       0.966  -6.254  -0.170  0.00  0.00    +0.046 A 
ATOM     33  C   UNL     1       0.751  -6.881  -1.392  0.00  0.00    +0.120 A 
ATOM     34  C   UNL     1       0.628  -6.126  -2.553  0.00  0.00    +0.046 A 
ATOM     35  C   UNL     1       0.719  -4.753  -2.496  0.00  0.00    +0.018 A 
BRANCH  33  36
ATOM     36  O   UNL     1       0.660  -8.234  -1.452  0.00  0.00    -0.495 OA
ATOM     37  C   UNL     1       0.795  -8.948  -0.222  0.00  0.00    +0.277 C 
ENDBRANCH  33  36
ENDBRANCH  28  30
ENDBRANCH  27  28
ENDBRANCH   4  27
TORSDOF 6
