REMARK  Name = ZINC08937090
REMARK  6 active torsions:
REMARK  status: ('A' for Active; 'I' for Inactive)
REMARK    1  A    between atoms: C_1  and  C_2
REMARK    2  A    between atoms: C_2  and  C_22
REMARK    3  A    between atoms: N_5  and  C_9
REMARK    4  A    between atoms: C_9  and  C_10
REMARK    5  A    between atoms: C_25  and  O_28
REMARK    6  A    between atoms: O_28  and  C_29
REMARK                            x       y       z     vdW  Elec       q    Type
REMARK                         _______ _______ _______ _____ _____    ______ ____
ROOT
ATOM      1  C   UNL     1      -2.421   7.605   1.210  0.00  0.00    +0.047 C 
ATOM      2  C   UNL     1      -1.107   7.106   1.815  0.00  0.00    +0.135 C 
ATOM      3  C   UNL     1       0.074   7.818   1.185  0.00  0.00    +0.251 C 
ATOM      4  O   UNL     1       0.401   7.803   0.017  0.00  0.00    -0.272 OA
ATOM      5  N   UNL     1       0.686   8.471   2.193  0.00  0.00    -0.220 N 
ATOM      6  C   UNL     1       0.063   8.272   3.360  0.00  0.00    +0.310 C 
ATOM      7  O   UNL     1       0.428   8.758   4.412  0.00  0.00    -0.252 OA
ATOM      8  N   UNL     1      -1.014   7.475   3.238  0.00  0.00    -0.281 N 
ATOM      9  H   UNL     1      -1.613   7.198   3.949  0.00  0.00    +0.152 HD
ENDROOT
BRANCH   2  10
ATOM     10  C   UNL     1      -0.979   5.615   1.644  0.00  0.00    -0.015 A 
ATOM     11  C   UNL     1      -1.520   4.763   2.590  0.00  0.00    +0.010 A 
ATOM     12  C   UNL     1      -1.405   3.395   2.436  0.00  0.00    +0.046 A 
ATOM     13  C   UNL     1      -0.745   2.876   1.331  0.00  0.00    +0.127 A 
ATOM     14  C   UNL     1      -0.198   3.732   0.387  0.00  0.00    +0.046 A 
ATOM     15  C   UNL     1      -0.322   5.099   0.542  0.00  0.00    +0.010 A 
BRANCH  13  16
ATOM     16  O   UNL     1      -0.630   1.530   1.178  0.00  0.00    -0.434 OA
BRANCH  16  17
ATOM     17  C   UNL     1       0.062   1.067   0.017  0.00  0.00    +0.541 C 
ATOM     18  F   UNL     1       1.372   1.557   0.028  0.00  0.00    -0.166 F 
ATOM     19  F   UNL     1      -0.597   1.521  -1.131  0.00  0.00    -0.166 F 
ENDBRANCH  16  17
ENDBRANCH  13  16
ENDBRANCH   2  10
BRANCH   5  20
ATOM     20  C   UNL     1       1.887   9.295   2.030  0.00  0.00    +0.154 C 
BRANCH  20  21
ATOM     21  C   UNL     1       1.487  10.690   1.626  0.00  0.00    -0.012 A 
ATOM     22  C   UNL     1       0.181  11.055   1.577  0.00  0.00    +0.098 A 
ATOM     23  C   UNL     1      -0.167  12.370   1.201  0.00  0.00    +0.338 A 
ATOM     24  O   UNL     1      -1.343  12.686   1.167  0.00  0.00    -0.245 OA
ATOM     25  O   UNL     1       0.764  13.280   0.875  0.00  0.00    -0.422 OA
ATOM     26  C   UNL     1       2.080  12.980   0.898  0.00  0.00    +0.140 A 
ATOM     27  C   UNL     1       2.498  11.689   1.269  0.00  0.00    +0.022 A 
ATOM     28  C   UNL     1       3.861  11.377   1.294  0.00  0.00    +0.013 A 
ATOM     29  C   UNL     1       4.781  12.329   0.955  0.00  0.00    +0.016 A 
ATOM     30  C   UNL     1       4.373  13.604   0.588  0.00  0.00    +0.021 A 
ATOM     31  C   UNL     1       3.032  13.932   0.558  0.00  0.00    +0.062 A 
ATOM     32 BR   UNL     1       5.665  14.904   0.124  0.00  0.00    -0.050 Br
ENDBRANCH  20  21
ENDBRANCH   5  20
TORSDOF 5
