REMARK  Name = ZINC20568901
REMARK  14 active torsions:
REMARK  status: ('A' for Active; 'I' for Inactive)
REMARK    1  A    between atoms: C_1  and  C_2
REMARK    2  A    between atoms: C_2  and  C_3
REMARK    3  A    between atoms: C_3  and  C_4
REMARK    4  A    between atoms: C_6  and  C_9
REMARK    5  A    between atoms: N_11  and  N_12
REMARK    6  A    between atoms: C_13  and  C_14
REMARK    7  A    between atoms: C_17  and  O_34
REMARK    8  A    between atoms: C_18  and  C_20
REMARK    9  A    between atoms: C_20  and  S_21
REMARK   10  A    between atoms: S_21  and  C_22
REMARK   11  A    between atoms: C_23  and  C_32
REMARK   12  A    between atoms: C_24  and  C_31
REMARK   13  A    between atoms: C_26  and  C_28
REMARK   14  A    between atoms: O_34  and  C_35
REMARK                            x       y       z     vdW  Elec       q    Type
REMARK                         _______ _______ _______ _____ _____    ______ ____
ROOT
ATOM      1  C   UNL     1       0.040  -2.775  -0.012  0.00  0.00    -0.005 A 
ATOM      2  C   UNL     1       1.239  -2.058  -0.020  0.00  0.00    +0.013 A 
ATOM      3  C   UNL     1       1.216  -0.680  -0.013  0.00  0.00    +0.046 A 
ATOM      4  C   UNL     1       0.002  -0.004   0.002  0.00  0.00    +0.124 A 
ATOM      5  C   UNL     1      -1.192  -0.713   0.015  0.00  0.00    +0.005 A 
ATOM      6  C   UNL     1      -1.178  -2.091   0.003  0.00  0.00    +0.017 A 
ENDROOT
BRANCH   1   8
ATOM      7  N   UNL     1       1.192  -4.883  -0.034  0.00  0.00    -0.187 NA
ATOM      8  C   UNL     1       0.060  -4.249  -0.019  0.00  0.00    +0.138 C 
BRANCH   7  11
ATOM      9  C   UNL     1       2.388  -6.941  -0.056  0.00  0.00    +0.264 C 
ATOM     10  O   UNL     1       3.433  -6.319  -0.063  0.00  0.00    -0.268 OA
ATOM     11  N   UNL     1       1.211  -6.284  -0.041  0.00  0.00    -0.203 N 
ATOM     12  H   UNL     1       0.266  -6.846  -0.035  0.00  0.00    +0.178 HD
BRANCH   9  15
ATOM     13  C   UNL     1       3.561 -10.493  -0.086  0.00  0.00    -0.009 A 
ATOM     14  C   UNL     1       3.647  -9.149  -0.085  0.00  0.00    +0.024 A 
ATOM     15  C   UNL     1       2.408  -8.413  -0.063  0.00  0.00    +0.046 A 
ATOM     16  C   UNL     1       1.241  -9.149  -0.056  0.00  0.00    +0.058 A 
ATOM     17  S   UNL     1       1.805 -10.787  -0.070  0.00  0.00    -0.101 S 
BRANCH  13  18
ATOM     18  C   UNL     1       4.680 -11.504  -0.102  0.00  0.00    +0.042 C 
BRANCH  18  20
ATOM     19  C   UNL     1       6.208 -12.878   1.319  0.00  0.00    +0.004 C 
ATOM     20  C   UNL     1       5.072 -11.853   1.335  0.00  0.00    +0.002 C 
ENDBRANCH  18  20
ENDBRANCH  13  18
ENDBRANCH   9  15
ENDBRANCH   7  11
ENDBRANCH   1   8
BRANCH   4  21
ATOM     21  O   UNL     1      -0.016   1.354   0.009  0.00  0.00    -0.495 OA
ATOM     22  C   UNL     1       1.248   2.020   0.001  0.00  0.00    +0.277 C 
ENDBRANCH   4  21
BRANCH   5  23
ATOM     23  C   UNL     1      -2.505   0.026   0.038  0.00  0.00    +0.114 C 
BRANCH  23  24
ATOM     24  S   UNL     1      -3.055   0.331  -1.659  0.00  0.00    -0.100 S 
BRANCH  24  25
ATOM     25  C   UNL     1      -4.566   1.182  -1.343  0.00  0.00    +0.115 A 
ATOM     26  C   UNL     1      -5.355   1.630  -2.418  0.00  0.00    +0.086 A 
ATOM     27  C   UNL     1      -6.552   2.299  -2.141  0.00  0.00    -0.029 A 
ATOM     28  C   UNL     1      -6.903   2.500  -0.817  0.00  0.00    +0.033 A 
ATOM     29  C   UNL     1      -6.072   2.035   0.186  0.00  0.00    +0.108 A 
ATOM     30  N   UNL     1      -4.949   1.402  -0.094  0.00  0.00    -0.238 NA
ATOM     31  C   UNL     1      -7.436   2.794  -3.257  0.00  0.00    +0.045 C 
BRANCH  29  32
ATOM     32  C   UNL     1      -6.456   2.256   1.626  0.00  0.00    +0.390 C 
ATOM     33  F   UNL     1      -5.300   2.364   2.406  0.00  0.00    -0.202 F 
ATOM     34  F   UNL     1      -7.203   3.433   1.734  0.00  0.00    -0.202 F 
ENDBRANCH  29  32
BRANCH  26  35
ATOM     35  C   UNL     1      -4.943   1.401  -3.770  0.00  0.00    +0.102 C 
ATOM     36  N   UNL     1      -4.616   1.220  -4.843  0.00  0.00    -0.191 NA
ENDBRANCH  26  35
ENDBRANCH  24  25
ENDBRANCH  23  24
ENDBRANCH   5  23
TORSDOF 11
