REMARK  Name = ZINC04262322
REMARK  6 active torsions:
REMARK  status: ('A' for Active; 'I' for Inactive)
REMARK    1  A    between atoms: C_4  and  C_7
REMARK    2  A    between atoms: C_7  and  C_8
REMARK    3  A    between atoms: C_7  and  C_19
REMARK    4  A    between atoms: C_7  and  O_30
REMARK    5  A    between atoms: C_11  and  O_18
REMARK    6  A    between atoms: C_22  and  O_29
REMARK                            x       y       z     vdW  Elec       q    Type
REMARK                         _______ _______ _______ _____ _____    ______ ____
ROOT
ATOM      1  C   UNL     1      -0.076   4.249   0.024  0.00  0.00    +0.142 C 
ENDROOT
BRANCH   1   2
ATOM      2  C   UNL     1       1.281   3.662   0.314  0.00  0.00    +0.001 A 
ATOM      3  C   UNL     1       1.686   2.529  -0.323  0.00  0.00    +0.011 A 
ATOM      4  C   UNL     1       2.936   1.970  -0.070  0.00  0.00    +0.046 A 
ATOM      5  C   UNL     1       3.793   2.543   0.827  0.00  0.00    +0.125 A 
ATOM      6  C   UNL     1       3.406   3.717   1.506  0.00  0.00    +0.024 A 
ATOM      7  C   UNL     1       2.133   4.282   1.244  0.00  0.00    -0.008 A 
ATOM      8  C   UNL     1       1.747   5.453   1.919  0.00  0.00    +0.009 A 
ATOM      9  C   UNL     1       2.598   6.026   2.814  0.00  0.00    +0.001 A 
ATOM     10  C   UNL     1       3.850   5.470   3.071  0.00  0.00    +0.001 A 
ATOM     11  C   UNL     1       4.257   4.337   2.435  0.00  0.00    +0.012 A 
BRANCH   5  12
ATOM     12  O   UNL     1       5.008   1.986   1.064  0.00  0.00    -0.506 OA
ATOM     13  H   UNL     1       5.010   1.335   1.780  0.00  0.00    +0.292 HD
ENDBRANCH   5  12
ENDBRANCH   1   2
BRANCH   1  14
ATOM     14  C   UNL     1      -0.667   3.573  -1.187  0.00  0.00    +0.001 A 
ATOM     15  C   UNL     1      -1.852   2.910  -1.089  0.00  0.00    +0.011 A 
ATOM     16  C   UNL     1      -2.416   2.281  -2.195  0.00  0.00    +0.046 A 
ATOM     17  C   UNL     1      -1.795   2.309  -3.412  0.00  0.00    +0.125 A 
ATOM     18  C   UNL     1      -0.566   2.986  -3.550  0.00  0.00    +0.024 A 
ATOM     19  C   UNL     1       0.001   3.631  -2.422  0.00  0.00    -0.008 A 
ATOM     20  C   UNL     1       1.229   4.301  -2.557  0.00  0.00    +0.009 A 
ATOM     21  C   UNL     1       1.851   4.331  -3.767  0.00  0.00    +0.001 A 
ATOM     22  C   UNL     1       1.290   3.701  -4.877  0.00  0.00    +0.001 A 
ATOM     23  C   UNL     1       0.105   3.038  -4.782  0.00  0.00    +0.012 A 
BRANCH  17  24
ATOM     24  O   UNL     1      -2.357   1.690  -4.482  0.00  0.00    -0.506 OA
ATOM     25  H   UNL     1      -2.952   2.255  -4.995  0.00  0.00    +0.292 HD
ENDBRANCH  17  24
ENDBRANCH   1  14
BRANCH   1  29
ATOM     26  C   UNL     1      -2.640   3.639   3.386  0.00  0.00    +0.000 A 
ATOM     27  C   UNL     1      -2.627   4.861   2.739  0.00  0.00    +0.000 A 
ATOM     28  C   UNL     1      -1.798   5.058   1.651  0.00  0.00    +0.007 A 
ATOM     29  C   UNL     1      -0.981   4.034   1.210  0.00  0.00    -0.007 A 
ATOM     30  C   UNL     1      -0.998   2.810   1.853  0.00  0.00    +0.007 A 
ATOM     31  C   UNL     1      -1.824   2.615   2.944  0.00  0.00    +0.000 A 
ENDBRANCH   1  29
BRANCH   1  32
ATOM     32  O   UNL     1       0.054   5.649  -0.228  0.00  0.00    -0.375 OA
ATOM     33  H   UNL     1       0.624   5.862  -0.980  0.00  0.00    +0.211 HD
ENDBRANCH   1  32
TORSDOF 6
