REMARK  Name = ZINC20723667
REMARK  9 active torsions:
REMARK  status: ('A' for Active; 'I' for Inactive)
REMARK    1  A    between atoms: C_1  and  C_2
REMARK    2  A    between atoms: C_2  and  C_3
REMARK    3  A    between atoms: C_3  and  C_5
REMARK    4  A    between atoms: C_3  and  C_6
REMARK    5  A    between atoms: C_6  and  C_8
REMARK    6  A    between atoms: C_6  and  N_12
REMARK    7  A    between atoms: C_8  and  O_10
REMARK    8  A    between atoms: O_10  and  C_11
REMARK    9  A    between atoms: C_24  and  C_26
REMARK                            x       y       z     vdW  Elec       q    Type
REMARK                         _______ _______ _______ _____ _____    ______ ____
ROOT
ATOM      1  N   UNL     1      -0.250  -2.292  -3.343  0.00  0.00    -0.286 N 
ATOM      2  C   UNL     1       0.615  -1.389  -3.846  0.00  0.00    +0.304 C 
ATOM      3  O   UNL     1       0.770  -0.320  -3.289  0.00  0.00    -0.253 OA
ATOM      4  N   UNL     1       1.308  -1.671  -4.967  0.00  0.00    -0.273 N 
ATOM      5  C   UNL     1       2.344  -0.753  -5.463  0.00  0.00    +0.116 C 
ATOM      6  C   UNL     1       3.707  -1.454  -5.402  0.00  0.00    +0.074 C 
ATOM      7  C   UNL     1       3.559  -2.851  -5.947  0.00  0.00    +0.040 A 
ATOM      8  C   UNL     1       2.386  -3.503  -6.089  0.00  0.00    +0.062 A 
ATOM      9  N   UNL     1       2.641  -4.712  -6.595  0.00  0.00    -0.348 N 
ATOM     10  C   UNL     1       3.930  -4.836  -6.777  0.00  0.00    +0.171 A 
ATOM     11  N   UNL     1       4.537  -3.692  -6.384  0.00  0.00    -0.349 N 
ATOM     12  H   UNL     1       5.489  -3.507  -6.409  0.00  0.00    +0.166 HD
ATOM     13  C   UNL     1       1.050  -2.911  -5.722  0.00  0.00    +0.159 C 
ATOM     14  H   UNL     1      -0.321  -3.171  -3.746  0.00  0.00    +0.151 HD
ATOM     15  H   UNL     1       1.976  -5.389  -6.796  0.00  0.00    +0.167 HD
ENDROOT
BRANCH  13  16
ATOM     16  C   UNL     1       0.272  -2.597  -6.973  0.00  0.00    +0.015 A 
ATOM     17  C   UNL     1       0.592  -3.224  -8.162  0.00  0.00    +0.028 A 
ATOM     18  C   UNL     1      -0.123  -2.937  -9.311  0.00  0.00    +0.041 A 
ATOM     19  C   UNL     1      -1.159  -2.020  -9.270  0.00  0.00    +0.023 A 
ATOM     20  C   UNL     1      -1.479  -1.392  -8.082  0.00  0.00    +0.040 A 
ATOM     21  C   UNL     1      -0.768  -1.684  -6.931  0.00  0.00    +0.129 A 
ATOM     22  F   UNL     1      -1.085  -1.074  -5.768  0.00  0.00    -0.205 F 
ATOM     23 CL   UNL     1       0.280  -3.725 -10.804  0.00  0.00    -0.084 Cl
ENDBRANCH  13  16
BRANCH   1  24
ATOM     24  C   UNL     1      -1.082  -1.945  -2.188  0.00  0.00    +0.186 C 
BRANCH  24  25
ATOM     25  C   UNL     1      -2.342  -1.222  -2.666  0.00  0.00    +0.017 C 
ATOM     26  C   UNL     1      -3.046  -2.072  -3.726  0.00  0.00    +0.010 C 
BRANCH  25  28
ATOM     27  C   UNL     1      -1.387   1.033  -2.175  0.00  0.00    +0.004 C 
ATOM     28  C   UNL     1      -1.957   0.130  -3.270  0.00  0.00    +0.002 C 
ENDBRANCH  25  28
ENDBRANCH  24  25
BRANCH  24  29
ATOM     29  C   UNL     1      -1.471  -3.202  -1.454  0.00  0.00    +0.328 C 
ATOM     30  O   UNL     1      -1.193  -4.283  -1.917  0.00  0.00    -0.249 OA
BRANCH  29  31
ATOM     31  O   UNL     1      -2.128  -3.121  -0.286  0.00  0.00    -0.467 OA
ATOM     32  C   UNL     1      -2.368  -4.346   0.409  0.00  0.00    +0.280 C 
ENDBRANCH  29  31
ENDBRANCH  24  29
ENDBRANCH   1  24
TORSDOF 6
