REMARK  Name = ZINC40813536
REMARK  9 active torsions:
REMARK  status: ('A' for Active; 'I' for Inactive)
REMARK    1  A    between atoms: C_1  and  C_2
REMARK    2  A    between atoms: C_2  and  C_3
REMARK    3  A    between atoms: C_3  and  C_4
REMARK    4  A    between atoms: C_4  and  C_5
REMARK    5  A    between atoms: C_8  and  N_11
REMARK    6  A    between atoms: C_12  and  C_14
REMARK    7  A    between atoms: C_15  and  C_37
REMARK    8  A    between atoms: N_23  and  N_24
REMARK    9  A    between atoms: C_25  and  C_27
REMARK                            x       y       z     vdW  Elec       q    Type
REMARK                         _______ _______ _______ _____ _____    ______ ____
ROOT
ATOM      1  C   UNL     1       5.434  -4.362  -7.169  0.00  0.00    +0.193 A 
ATOM      2  C   UNL     1       6.785  -4.509  -7.312  0.00  0.00    +0.009 A 
ATOM      3  C   UNL     1       7.000  -4.872  -8.647  0.00  0.00    +0.042 A 
ATOM      4  C   UNL     1       5.771  -4.930  -9.262  0.00  0.00    +0.115 A 
ATOM      5  O   UNL     1       4.844  -4.628  -8.356  0.00  0.00    -0.454 OA
ATOM      6  C   UNL     1       5.598  -5.286 -10.717  0.00  0.00    +0.075 C 
ATOM      7  C   UNL     1       6.917  -5.054 -11.458  0.00  0.00    +0.014 C 
ATOM      8  C   UNL     1       8.067  -5.784 -10.756  0.00  0.00    +0.058 C 
ATOM      9  C   UNL     1       8.253  -5.166  -9.378  0.00  0.00    +0.070 C 
ATOM     10  N   UNL     1       9.425  -4.914  -8.880  0.00  0.00    -0.184 NA
ATOM     11  C   UNL     1       7.834  -4.317  -6.247  0.00  0.00    +0.048 C 
ENDROOT
BRANCH   1  13
ATOM     12  N   UNL     1       3.396  -3.881  -5.920  0.00  0.00    -0.279 N 
ATOM     13  C   UNL     1       4.739  -3.986  -5.933  0.00  0.00    +0.284 C 
ATOM     14  O   UNL     1       5.376  -3.770  -4.918  0.00  0.00    -0.266 OA
ATOM     15  H   UNL     1       2.882  -4.127  -6.705  0.00  0.00    +0.155 HD
BRANCH  12  19
ATOM     16  C   UNL     1       1.448  -2.496  -2.508  0.00  0.00    -0.047 A 
ATOM     17  C   UNL     1       0.841  -3.443  -3.313  0.00  0.00    +0.005 A 
ATOM     18  C   UNL     1       1.484  -3.904  -4.445  0.00  0.00    +0.023 A 
ATOM     19  C   UNL     1       2.742  -3.416  -4.775  0.00  0.00    +0.034 A 
ATOM     20  C   UNL     1       3.348  -2.464  -3.965  0.00  0.00    +0.023 A 
ATOM     21  C   UNL     1       2.697  -2.004  -2.837  0.00  0.00    +0.005 A 
BRANCH  16  22
ATOM     22  C   UNL     1       0.743  -1.995  -1.274  0.00  0.00    +0.035 C 
BRANCH  22  23
ATOM     23  C   UNL     1      -0.113  -0.779  -1.634  0.00  0.00    +0.004 C 
BRANCH  23  25
ATOM     24  C   UNL     1      -1.684   0.946  -0.740  0.00  0.00    +0.004 C 
ATOM     25  C   UNL     1      -0.828  -0.270  -0.381  0.00  0.00    -0.003 C 
ENDBRANCH  23  25
ENDBRANCH  22  23
ENDBRANCH  16  22
ENDBRANCH  12  19
ENDBRANCH   1  13
BRANCH  10  26
ATOM     26  N   UNL     1      10.578  -5.213  -9.617  0.00  0.00    -0.203 N 
ATOM     27  C   UNL     1      11.795  -4.951  -9.100  0.00  0.00    +0.264 C 
ATOM     28  O   UNL     1      11.892  -4.455  -7.993  0.00  0.00    -0.268 OA
ATOM     29  H   UNL     1      10.501  -5.608 -10.499  0.00  0.00    +0.178 HD
BRANCH  27  30
ATOM     30  C   UNL     1      13.008  -5.266  -9.875  0.00  0.00    +0.046 A 
ATOM     31  C   UNL     1      12.915  -5.720 -11.184  0.00  0.00    +0.014 A 
ATOM     32  C   UNL     1      14.060  -6.016 -11.912  0.00  0.00    +0.001 A 
ATOM     33  C   UNL     1      15.305  -5.875 -11.381  0.00  0.00    +0.008 A 
ATOM     34  C   UNL     1      15.474  -5.421 -10.062  0.00  0.00    -0.017 A 
ATOM     35  C   UNL     1      14.335  -5.101  -9.284  0.00  0.00    -0.006 A 
ATOM     36  C   UNL     1      14.499  -4.642  -7.972  0.00  0.00    +0.009 A 
ATOM     37  C   UNL     1      15.755  -4.503  -7.460  0.00  0.00    +0.001 A 
ATOM     38  C   UNL     1      16.878  -4.810  -8.224  0.00  0.00    +0.001 A 
ATOM     39  C   UNL     1      16.753  -5.271  -9.499  0.00  0.00    +0.008 A 
ENDBRANCH  27  30
ENDBRANCH  10  26
TORSDOF 7
