REMARK  Name = ZINC46669396
REMARK  8 active torsions:
REMARK  status: ('A' for Active; 'I' for Inactive)
REMARK    1  A    between atoms: C_1  and  C_2
REMARK    2  A    between atoms: C_3  and  C_22
REMARK    3  A    between atoms: C_8  and  C_10
REMARK    4  A    between atoms: N_18  and  C_19
REMARK    5  A    between atoms: C_19  and  C_20
REMARK    6  A    between atoms: C_19  and  C_21
REMARK    7  A    between atoms: N_27  and  C_28
REMARK    8  A    between atoms: C_28  and  C_29
REMARK                            x       y       z     vdW  Elec       q    Type
REMARK                         _______ _______ _______ _____ _____    ______ ____
ROOT
ATOM      1  C   UNL     1      -0.035   1.488  -0.004  0.00  0.00    +0.067 C 
ATOM      2  C   UNL     1      -0.009  -0.018  -0.009  0.00  0.00    +0.058 A 
ATOM      3  C   UNL     1      -0.003  -0.736  -1.180  0.00  0.00    +0.081 A 
ATOM      4  S   UNL     1       0.028  -2.404  -0.544  0.00  0.00    -0.049 S 
ATOM      5  C   UNL     1       0.029  -2.029   1.097  0.00  0.00    +0.165 A 
ATOM      6  N   UNL     1       0.013  -0.712   1.108  0.00  0.00    -0.229 NA
ATOM      7  N   UNL     1       0.048  -2.899   2.178  0.00  0.00    -0.264 N 
ATOM      8  C   UNL     1       0.046  -2.412   3.435  0.00  0.00    +0.222 C 
ATOM      9  O   UNL     1       0.027  -1.214   3.621  0.00  0.00    -0.275 OA
ATOM     10  H   UNL     1       0.063  -3.857   2.030  0.00  0.00    +0.157 HD
ENDROOT
BRANCH   8  11
ATOM     11  C   UNL     1       0.066  -3.356   4.609  0.00  0.00    +0.078 C 
ATOM     12  C   UNL     1      -1.168  -4.259   4.559  0.00  0.00    +0.032 C 
ATOM     13  C   UNL     1      -1.126  -5.241   5.734  0.00  0.00    +0.110 C 
ATOM     14  N   UNL     1      -0.987  -4.478   6.982  0.00  0.00    -0.286 N 
ATOM     15  C   UNL     1       0.115  -3.514   7.101  0.00  0.00    +0.110 C 
ATOM     16  C   UNL     1       0.059  -2.552   5.911  0.00  0.00    +0.032 C 
ATOM     17  C   UNL     1      -1.854  -4.660   7.998  0.00  0.00    +0.302 C 
ATOM     18  O   UNL     1      -2.816  -5.389   7.854  0.00  0.00    -0.253 OA
ATOM     19  N   UNL     1      -1.654  -4.033   9.175  0.00  0.00    -0.297 N 
ATOM     20  H   UNL     1      -0.928  -3.396   9.268  0.00  0.00    +0.150 HD
BRANCH  19  21
ATOM     21  C   UNL     1      -2.533  -4.314  10.313  0.00  0.00    +0.068 C 
ATOM     22  C   UNL     1      -2.026  -5.553  11.054  0.00  0.00    +0.027 C 
ATOM     23  C   UNL     1      -2.534  -3.116  11.264  0.00  0.00    +0.027 C 
ENDBRANCH  19  21
ENDBRANCH   8  11
BRANCH   3  24
ATOM     24  C   UNL     1      -0.017  -0.262  -2.572  0.00  0.00    +0.174 A 
ATOM     25  N   UNL     1      -0.035   0.991  -2.972  0.00  0.00    -0.128 NA
ATOM     26  N   UNL     1      -0.043   1.042  -4.256  0.00  0.00    -0.121 NA
ATOM     27  C   UNL     1      -0.032  -0.171  -4.757  0.00  0.00    +0.203 A 
ATOM     28  S   UNL     1      -0.037  -0.595  -6.467  0.00  0.00    -0.009 SA
ATOM     29  N   UNL     1      -0.009  -1.045  -3.705  0.00  0.00    -0.297 N 
BRANCH  29  30
ATOM     30  C   UNL     1       0.016  -2.509  -3.769  0.00  0.00    +0.152 C 
BRANCH  30  31
ATOM     31  C   UNL     1      -1.397  -3.035  -3.785  0.00  0.00    -0.013 C 
ATOM     32  C   UNL     1      -1.788  -3.832  -4.748  0.00  0.00    +0.005 C 
ENDBRANCH  30  31
ENDBRANCH  29  30
ENDBRANCH   3  24
TORSDOF 5
