REMARK  Name = ZINC16881125
REMARK  5 active torsions:
REMARK  status: ('A' for Active; 'I' for Inactive)
REMARK    1  A    between atoms: C_1  and  C_2
REMARK    2  A    between atoms: C_2  and  C_3
REMARK    3  A    between atoms: C_4  and  O_22
REMARK    4  A    between atoms: N_7  and  C_10
REMARK    5  A    between atoms: C_10  and  C_11
REMARK                            x       y       z     vdW  Elec       q    Type
REMARK                         _______ _______ _______ _____ _____    ______ ____
ROOT
ATOM      1  C   UNL     1      -0.966  -0.695   0.107  0.00  0.00    +0.078 A 
ATOM      2  C   UNL     1       0.208   0.003  -0.121  0.00  0.00    +0.224 A 
ATOM      3  N   UNL     1       1.357  -0.663  -0.275  0.00  0.00    -0.181 NA
ATOM      4  C   UNL     1       1.399  -1.977  -0.203  0.00  0.00    +0.199 A 
ATOM      5  N   UNL     1       0.274  -2.710   0.019  0.00  0.00    -0.276 N 
ATOM      6  C   UNL     1      -0.916  -2.093   0.176  0.00  0.00    +0.262 A 
ATOM      7  O   UNL     1      -1.931  -2.741   0.375  0.00  0.00    -0.267 OA
ATOM      8  N   UNL     1       2.597  -2.619  -0.361  0.00  0.00    -0.329 N 
ATOM      9  H   UNL     1       2.625  -3.587  -0.417  0.00  0.00    +0.145 HD
ATOM     10  H   UNL     1       3.419  -2.107  -0.416  0.00  0.00    +0.145 HD
ENDROOT
BRANCH   1  12
ATOM     11  C   UNL     1      -3.003   0.094  -1.067  0.00  0.00    +0.009 C 
ATOM     12  C   UNL     1      -2.273   0.036   0.276  0.00  0.00    +0.042 C 
ENDBRANCH   1  12
BRANCH   2  13
ATOM     13  O   UNL     1       0.191   1.354  -0.194  0.00  0.00    -0.492 OA
ATOM     14  H   UNL     1       1.059   1.750  -0.355  0.00  0.00    +0.294 HD
ENDBRANCH   2  13
BRANCH   5  15
ATOM     15  C   UNL     1       0.354  -4.171   0.086  0.00  0.00    +0.163 C 
BRANCH  15  16
ATOM     16  C   UNL     1       0.281  -4.743  -1.306  0.00  0.00    -0.020 A 
ATOM     17  C   UNL     1       0.170  -3.916  -2.381  0.00  0.00    +0.006 A 
ATOM     18  C   UNL     1       0.101  -4.426  -3.675  0.00  0.00    +0.001 A 
ATOM     19  C   UNL     1       0.142  -5.768  -3.903  0.00  0.00    +0.008 A 
ATOM     20  C   UNL     1       0.256  -6.653  -2.818  0.00  0.00    -0.018 A 
ATOM     21  C   UNL     1       0.332  -6.134  -1.502  0.00  0.00    -0.013 A 
ATOM     22  C   UNL     1       0.441  -7.020  -0.416  0.00  0.00    +0.009 A 
ATOM     23  C   UNL     1       0.482  -8.361  -0.644  0.00  0.00    +0.001 A 
ATOM     24  C   UNL     1       0.412  -8.872  -1.939  0.00  0.00    +0.001 A 
ATOM     25  C   UNL     1       0.301  -8.044  -3.014  0.00  0.00    +0.008 A 
ENDBRANCH  15  16
ENDBRANCH   5  15
TORSDOF 4
