REMARK  Name = ZINC14465505
REMARK  7 active torsions:
REMARK  status: ('A' for Active; 'I' for Inactive)
REMARK    1  A    between atoms: C_1  and  C_2
REMARK    2  A    between atoms: C_2  and  O_3
REMARK    3  A    between atoms: O_3  and  C_4
REMARK    4  A    between atoms: C_4  and  C_5
REMARK    5  A    between atoms: C_5  and  O_6
REMARK    6  A    between atoms: O_6  and  C_7
REMARK    7  A    between atoms: C_14  and  C_23
REMARK                            x       y       z     vdW  Elec       q    Type
REMARK                         _______ _______ _______ _____ _____    ______ ____
ROOT
ATOM      1  C   UNL     1       0.501   0.226  -0.129  0.00  0.00    +0.142 A 
ATOM      2  C   UNL     1       1.784  -0.276  -0.221  0.00  0.00    +0.047 A 
ATOM      3  C   UNL     1       2.865   0.585  -0.276  0.00  0.00    +0.004 A 
ATOM      4  C   UNL     1       2.656   1.950  -0.231  0.00  0.00    +0.006 A 
ATOM      5  C   UNL     1       1.378   2.461  -0.131  0.00  0.00    -0.016 A 
ATOM      6  C   UNL     1       0.275   1.607  -0.088  0.00  0.00    +0.074 A 
ATOM      7  N   UNL     1      -1.050   2.044  -0.029  0.00  0.00    -0.334 N 
ATOM      8  C   UNL     1      -1.264   3.493   0.112  0.00  0.00    +0.105 C 
ATOM      9  C   UNL     1      -0.234   4.182  -0.759  0.00  0.00    +0.029 C 
ATOM     10  C   UNL     1       1.128   3.917  -0.044  0.00  0.00    +0.049 C 
ATOM     11  C   UNL     1       2.030   4.920  -0.660  0.00  0.00    -0.023 C 
ATOM     12  C   UNL     1       1.303   5.965  -1.040  0.00  0.00    -0.030 C 
ATOM     13  C   UNL     1      -0.175   5.713  -0.731  0.00  0.00    +0.033 C 
ATOM     14  H   UNL     1      -1.588   1.672  -0.798  0.00  0.00    +0.147 HD
ENDROOT
BRANCH   8  15
ATOM     15  C   UNL     1      -1.076   3.902   1.550  0.00  0.00    -0.027 A 
ATOM     16  C   UNL     1      -0.308   3.123   2.396  0.00  0.00    +0.007 A 
ATOM     17  C   UNL     1      -0.131   3.500   3.713  0.00  0.00    +0.020 A 
ATOM     18  C   UNL     1      -0.732   4.653   4.189  0.00  0.00    +0.041 A 
ATOM     19  C   UNL     1      -1.504   5.429   3.344  0.00  0.00    +0.020 A 
ATOM     20  C   UNL     1      -1.676   5.053   2.025  0.00  0.00    +0.007 A 
ATOM     21 CL   UNL     1      -0.515   5.124   5.846  0.00  0.00    -0.084 Cl
ENDBRANCH   8  15
BRANCH   1  22
ATOM     22  O   UNL     1      -0.554  -0.630  -0.075  0.00  0.00    -0.488 OA
BRANCH  22  23
ATOM     23  C   UNL     1      -0.259  -2.028  -0.120  0.00  0.00    +0.257 C 
BRANCH  23  24
ATOM     24  C   UNL     1      -1.561  -2.827  -0.049  0.00  0.00    +0.200 C 
BRANCH  24  25
ATOM     25  O   UNL     1      -2.343  -2.568  -1.217  0.00  0.00    -0.377 OA
BRANCH  25  27
ATOM     26  C   UNL     1      -4.336  -2.920  -2.539  0.00  0.00    +0.034 C 
ATOM     27  C   UNL     1      -3.587  -3.270  -1.251  0.00  0.00    +0.156 C 
ENDBRANCH  25  27
ENDBRANCH  24  25
ENDBRANCH  23  24
ENDBRANCH  22  23
ENDBRANCH   1  22
TORSDOF 6
