REMARK  Name = ZINC12975643
REMARK  5 active torsions:
REMARK  status: ('A' for Active; 'I' for Inactive)
REMARK    1  A    between atoms: N_12  and  C_16
REMARK    2  A    between atoms: C_16  and  C_17
REMARK    3  A    between atoms: N_19  and  C_20
REMARK    4  A    between atoms: C_22  and  S_27
REMARK    5  A    between atoms: S_27  and  N_30
REMARK                            x       y       z     vdW  Elec       q    Type
REMARK                         _______ _______ _______ _____ _____    ______ ____
ROOT
ATOM      1  C   UNL     1      -1.222  -3.415  -2.553  0.00  0.00    +0.235 C 
ATOM      2  O   UNL     1      -0.422  -3.759  -1.710  0.00  0.00    -0.274 OA
ATOM      3  N   UNL     1      -1.571  -4.266  -3.538  0.00  0.00    -0.283 N 
ATOM      4  H   UNL     1      -2.258  -4.015  -4.175  0.00  0.00    +0.155 HD
ENDROOT
BRANCH   3   5
ATOM      5  C   UNL     1      -0.941  -5.512  -3.643  0.00  0.00    +0.054 A 
ATOM      6  C   UNL     1      -0.552  -6.193  -2.497  0.00  0.00    +0.053 A 
ATOM      7  C   UNL     1       0.069  -7.422  -2.604  0.00  0.00    +0.107 A 
ATOM      8  C   UNL     1       0.305  -7.974  -3.849  0.00  0.00    +0.030 A 
ATOM      9  C   UNL     1      -0.081  -7.299  -4.993  0.00  0.00    +0.024 A 
ATOM     10  C   UNL     1      -0.708  -6.072  -4.893  0.00  0.00    +0.062 A 
ATOM     11 CL   UNL     1      -1.198  -5.227  -6.329  0.00  0.00    -0.082 Cl
BRANCH   7  12
ATOM     12  S   UNL     1       0.562  -8.287  -1.150  0.00  0.00    +0.061 S 
ATOM     13  O   UNL     1       1.612  -9.164  -1.535  0.00  0.00    -0.153 OA
ATOM     14  O   UNL     1       0.721  -7.311  -0.130  0.00  0.00    -0.153 OA
BRANCH  12  15
ATOM     15  N   UNL     1      -0.710  -9.245  -0.695  0.00  0.00    -0.177 NA
ATOM     16  C   UNL     1      -1.735  -8.739   0.229  0.00  0.00    +0.109 C 
ATOM     17  C   UNL     1      -3.114  -8.930  -0.420  0.00  0.00    +0.017 C 
ATOM     18  C   UNL     1      -3.289 -10.399  -0.809  0.00  0.00    +0.003 C 
ATOM     19  C   UNL     1      -2.219 -10.790  -1.831  0.00  0.00    +0.017 C 
ATOM     20  C   UNL     1      -0.833 -10.618  -1.203  0.00  0.00    +0.109 C 
ENDBRANCH  12  15
ENDBRANCH   7  12
ENDBRANCH   3   5
BRANCH   1  21
ATOM     21  C   UNL     1      -1.826  -2.035  -2.500  0.00  0.00    +0.214 C 
BRANCH  21  33
ATOM     22  C   UNL     1       3.856  -0.660   1.658  0.00  0.00    +0.000 A 
ATOM     23  C   UNL     1       3.006  -1.750   1.649  0.00  0.00    +0.000 A 
ATOM     24  C   UNL     1       1.731  -1.626   1.134  0.00  0.00    +0.006 A 
ATOM     25  C   UNL     1       1.296  -0.413   0.626  0.00  0.00    -0.012 A 
ATOM     26  C   UNL     1       2.149   0.678   0.634  0.00  0.00    -0.042 A 
ATOM     27  C   UNL     1       3.427   0.551   1.151  0.00  0.00    +0.004 A 
ATOM     28  C   UNL     1       1.452   1.878   0.026  0.00  0.00    +0.038 C 
ATOM     29  C   UNL     1      -0.052   1.522   0.038  0.00  0.00    +0.045 C 
ATOM     30  C   UNL     1      -0.022  -0.012   0.022  0.00  0.00    +0.138 C 
ATOM     31  C   UNL     1      -0.177  -0.546  -1.378  0.00  0.00    +0.251 C 
ATOM     32  O   UNL     1       0.542  -0.334  -2.331  0.00  0.00    -0.272 OA
ATOM     33  N   UNL     1      -1.290  -1.312  -1.345  0.00  0.00    -0.215 N 
ATOM     34  C   UNL     1      -1.841  -1.326  -0.124  0.00  0.00    +0.310 C 
ATOM     35  O   UNL     1      -2.849  -1.945   0.155  0.00  0.00    -0.252 OA
ATOM     36  N   UNL     1      -1.152  -0.576   0.760  0.00  0.00    -0.281 N 
ATOM     37  H   UNL     1      -1.363  -0.439   1.696  0.00  0.00    +0.152 HD
ENDBRANCH  21  33
ENDBRANCH   1  21
TORSDOF 5
