REMARK  Name = ZINC39671641
REMARK  12 active torsions:
REMARK  status: ('A' for Active; 'I' for Inactive)
REMARK    1  A    between atoms: C_1  and  C_2
REMARK    2  A    between atoms: C_4  and  C_36
REMARK    3  A    between atoms: N_5  and  C_7
REMARK    4  A    between atoms: C_7  and  C_8
REMARK    5  A    between atoms: C_8  and  C_9
REMARK    6  A    between atoms: C_9  and  N_10
REMARK    7  A    between atoms: C_11  and  C_13
REMARK    8  A    between atoms: C_24  and  C_26
REMARK    9  A    between atoms: C_28  and  O_34
REMARK   10  A    between atoms: C_30  and  O_32
REMARK   11  A    between atoms: O_32  and  C_33
REMARK   12  A    between atoms: O_34  and  C_35
REMARK                            x       y       z     vdW  Elec       q    Type
REMARK                         _______ _______ _______ _____ _____    ______ ____
ROOT
ATOM      1  C   UNL     1       5.294  -6.733   3.985  0.00  0.00    +0.100 C 
ATOM      2  C   UNL     1       5.712  -5.446   4.731  0.00  0.00    +0.121 C 
ATOM      3  N   UNL     1       5.529  -5.768   6.165  0.00  0.00    -0.296 N 
ATOM      4  C   UNL     1       5.995  -7.170   6.290  0.00  0.00    +0.115 C 
ATOM      5  C   UNL     1       5.485  -7.863   5.011  0.00  0.00    -0.004 C 
ATOM      6  C   UNL     1       6.518  -8.866   4.506  0.00  0.00    -0.010 C 
ATOM      7  C   UNL     1       6.647 -10.010   5.516  0.00  0.00    -0.082 C 
ATOM      8  N   UNL     1       5.344 -10.663   5.688  0.00  0.00    +0.379 N 
ATOM      9  C   UNL     1       4.380  -9.716   6.261  0.00  0.00    -0.082 C 
ATOM     10  C   UNL     1       4.155  -8.559   5.283  0.00  0.00    -0.010 C 
ATOM     11  C   UNL     1       5.049  -4.967   7.137  0.00  0.00    +0.247 C 
ATOM     12  O   UNL     1       4.588  -3.878   6.855  0.00  0.00    -0.270 OA
ATOM     13  H   UNL     1       5.008 -10.982   4.791  0.00  0.00    -0.086 HD
ATOM     14  H   UNL     1       5.444 -11.454   6.306  0.00  0.00    -0.086 HD
ENDROOT
BRANCH  11  15
ATOM     15  C   UNL     1       5.083  -5.413   8.547  0.00  0.00    +0.044 A 
ATOM     16  C   UNL     1       5.968  -6.417   8.942  0.00  0.00    +0.059 A 
ATOM     17  C   UNL     1       5.997  -6.831  10.263  0.00  0.00    +0.124 A 
ATOM     18  C   UNL     1       5.147  -6.250  11.193  0.00  0.00    +0.091 A 
ATOM     19  C   UNL     1       4.266  -5.252  10.805  0.00  0.00    +0.124 A 
ATOM     20  C   UNL     1       4.234  -4.828   9.486  0.00  0.00    +0.059 A 
BRANCH  19  21
ATOM     21  O   UNL     1       3.435  -4.686  11.720  0.00  0.00    -0.495 OA
ATOM     22  C   UNL     1       3.525  -5.168  13.062  0.00  0.00    +0.277 C 
ENDBRANCH  19  21
BRANCH  17  23
ATOM     23  O   UNL     1       6.859  -7.809  10.649  0.00  0.00    -0.495 OA
ATOM     24  C   UNL     1       6.836  -8.187  12.027  0.00  0.00    +0.277 C 
ENDBRANCH  17  23
ENDBRANCH  11  15
BRANCH   1  26
ATOM     25  N   UNL     1       3.409  -7.390   2.525  0.00  0.00    -0.315 N 
ATOM     26  C   UNL     1       3.851  -6.648   3.560  0.00  0.00    +0.218 C 
ATOM     27  O   UNL     1       3.087  -5.913   4.149  0.00  0.00    -0.275 OA
ATOM     28  H   UNL     1       4.020  -7.978   2.054  0.00  0.00    +0.149 HD
BRANCH  25  29
ATOM     29  C   UNL     1       2.006  -7.308   2.111  0.00  0.00    +0.106 C 
BRANCH  29  30
ATOM     30  C   UNL     1       1.769  -8.243   0.924  0.00  0.00    +0.042 C 
BRANCH  30  31
ATOM     31  C   UNL     1       0.303  -8.157   0.492  0.00  0.00    +0.145 C 
BRANCH  31  36
ATOM     32  C   UNL     1      -0.061  -9.854  -4.218  0.00  0.00    +0.067 C 
ATOM     33  C   UNL     1      -0.077  -9.773  -2.713  0.00  0.00    +0.060 A 
ATOM     34  C   UNL     1      -0.399 -10.817  -1.839  0.00  0.00    +0.047 A 
ATOM     35  C   UNL     1      -0.297 -10.347  -0.575  0.00  0.00    +0.036 A 
ATOM     36  N   UNL     1       0.076  -9.052  -0.645  0.00  0.00    -0.268 N 
ATOM     37  N   UNL     1       0.213  -8.716  -1.999  0.00  0.00    -0.176 NA
ATOM     38  C   UNL     1      -0.554 -11.130   0.687  0.00  0.00    +0.065 C 
ENDBRANCH  31  36
ENDBRANCH  30  31
ENDBRANCH  29  30
ENDBRANCH  25  29
ENDBRANCH   1  26
TORSDOF 8
