REMARK  Name = ZINC50349351
REMARK  6 active torsions:
REMARK  status: ('A' for Active; 'I' for Inactive)
REMARK    1  A    between atoms: C_1  and  C_2
REMARK    2  A    between atoms: C_2  and  C_3
REMARK    3  A    between atoms: C_2  and  C_4
REMARK    4  A    between atoms: C_2  and  C_5
REMARK    5  A    between atoms: N_8  and  S_11
REMARK    6  A    between atoms: S_11  and  C_14
REMARK                            x       y       z     vdW  Elec       q    Type
REMARK                         _______ _______ _______ _____ _____    ______ ____
ROOT
ATOM      1  C   UNL     1       0.718  -0.497  -1.257  0.00  0.00    -0.003 C 
ATOM      2  C   UNL     1       0.737  -2.028  -1.266  0.00  0.00    +0.021 C 
ATOM      3  C   UNL     1       1.424  -2.518  -2.544  0.00  0.00    +0.110 C 
ATOM      4  N   UNL     1       2.753  -1.898  -2.635  0.00  0.00    -0.177 NA
ATOM      5  C   UNL     1       2.857  -0.435  -2.546  0.00  0.00    +0.110 C 
ATOM      6  C   UNL     1       2.154   0.032  -1.267  0.00  0.00    +0.021 C 
ENDROOT
BRANCH   1   8
ATOM      7  C   UNL     1      -0.019   1.526   0.010  0.00  0.00    +0.011 C 
ATOM      8  C   UNL     1       0.002  -0.004   0.002  0.00  0.00    -0.035 C 
ATOM      9  C   UNL     1       0.742  -0.511   1.242  0.00  0.00    +0.011 C 
ATOM     10  C   UNL     1      -1.433  -0.534   0.013  0.00  0.00    +0.011 C 
ENDBRANCH   1   8
BRANCH   4  11
ATOM     11  S   UNL     1       4.108  -2.829  -2.834  0.00  0.00    +0.062 S 
ATOM     12  O   UNL     1       5.200  -2.069  -2.337  0.00  0.00    -0.153 OA
ATOM     13  O   UNL     1       3.789  -4.121  -2.334  0.00  0.00    -0.153 OA
BRANCH  11  14
ATOM     14  C   UNL     1       4.367  -3.009  -4.567  0.00  0.00    +0.125 A 
ATOM     15  C   UNL     1       3.788  -4.063  -5.258  0.00  0.00    +0.046 A 
ATOM     16  C   UNL     1       4.019  -4.165  -6.622  0.00  0.00    +0.038 A 
ATOM     17  C   UNL     1       4.814  -3.218  -7.242  0.00  0.00    +0.126 A 
ATOM     18  N   UNL     1       5.348  -2.229  -6.553  0.00  0.00    -0.260 NA
ATOM     19  C   UNL     1       5.145  -2.099  -5.256  0.00  0.00    +0.139 A 
ATOM     20 BR   UNL     1       3.258  -5.579  -7.619  0.00  0.00    -0.049 Br
ENDBRANCH  11  14
ENDBRANCH   4  11
TORSDOF 3
