REMARK  Name = ZINC16385776
REMARK  6 active torsions:
REMARK  status: ('A' for Active; 'I' for Inactive)
REMARK    1  A    between atoms: C_3  and  C_11
REMARK    2  A    between atoms: C_6  and  N_7
REMARK    3  A    between atoms: N_13  and  C_14
REMARK    4  A    between atoms: C_14  and  N_16
REMARK    5  A    between atoms: N_16  and  C_17
REMARK    6  A    between atoms: C_18  and  C_25
REMARK                            x       y       z     vdW  Elec       q    Type
REMARK                         _______ _______ _______ _____ _____    ______ ____
ROOT
ATOM      1  C   UNL     1       1.294   1.224   0.251  0.00  0.00    +0.141 C 
ATOM      2  S   UNL     1       1.339   2.566   1.313  0.00  0.00    -0.018 S 
ENDROOT
BRANCH   1   5
ATOM      3  C   UNL     1      -0.927   0.825   0.849  0.00  0.00    +0.251 C 
ATOM      4  O   UNL     1      -0.895   1.777   1.603  0.00  0.00    -0.270 OA
ATOM      5  N   UNL     1       0.167   0.494   0.134  0.00  0.00    -0.264 N 
ATOM      6  H   UNL     1       0.141  -0.266  -0.468  0.00  0.00    +0.157 HD
BRANCH   3   9
ATOM      7  C   UNL     1      -3.363  -1.805  -0.268  0.00  0.00    +0.033 A 
ATOM      8  C   UNL     1      -2.204  -1.066  -0.149  0.00  0.00    +0.017 A 
ATOM      9  C   UNL     1      -2.164   0.029   0.716  0.00  0.00    +0.055 A 
ATOM     10  C   UNL     1      -3.299   0.365   1.460  0.00  0.00    +0.055 A 
ATOM     11  C   UNL     1      -4.453  -0.381   1.327  0.00  0.00    +0.053 A 
ATOM     12  C   UNL     1      -4.485  -1.464   0.467  0.00  0.00    +0.128 A 
ATOM     13 CL   UNL     1      -3.258   1.720   2.545  0.00  0.00    -0.083 Cl
BRANCH  12  14
ATOM     14  N   UNL     1      -5.724  -2.262   0.333  0.00  0.00    +0.056 N 
ATOM     15  O   UNL     1      -5.755  -3.216  -0.423  0.00  0.00    -0.126 OA
ATOM     16  O   UNL     1      -6.713  -1.964   0.979  0.00  0.00    -0.126 OA
ENDBRANCH  12  14
ENDBRANCH   3   9
ENDBRANCH   1   5
BRANCH   1  17
ATOM     17  N   UNL     1       2.386   0.897  -0.468  0.00  0.00    -0.295 N 
ATOM     18  H   UNL     1       2.363   0.133  -1.065  0.00  0.00    +0.154 HD
BRANCH  17  19
ATOM     19  C   UNL     1       3.548   1.656  -0.354  0.00  0.00    +0.065 A 
ATOM     20  C   UNL     1       4.744   1.056   0.066  0.00  0.00    +0.087 A 
ATOM     21  C   UNL     1       5.903   1.829   0.176  0.00  0.00    +0.037 A 
ATOM     22  C   UNL     1       5.865   3.174  -0.128  0.00  0.00    +0.043 A 
ATOM     23  C   UNL     1       4.681   3.764  -0.543  0.00  0.00    +0.042 A 
ATOM     24  C   UNL     1       3.529   3.011  -0.662  0.00  0.00    +0.064 A 
ATOM     25 CL   UNL     1       2.054   3.760  -1.190  0.00  0.00    -0.082 Cl
ATOM     26 CL   UNL     1       7.306   4.132   0.010  0.00  0.00    -0.083 Cl
BRANCH  20  27
ATOM     27  C   UNL     1       4.779  -0.381   0.390  0.00  0.00    +0.388 C 
ATOM     28  O   UNL     1       3.749  -1.026   0.401  0.00  0.00    -0.241 OA
ATOM     29  O   UNL     1       5.952  -0.980   0.674  0.00  0.00    -0.241 OA
ENDBRANCH  20  27
ENDBRANCH  17  19
ENDBRANCH   1  17
TORSDOF 6
