REMARK  Name = ZINC08916576
REMARK  8 active torsions:
REMARK  status: ('A' for Active; 'I' for Inactive)
REMARK    1  A    between atoms: C_1  and  C_2
REMARK    2  A    between atoms: C_2  and  C_3
REMARK    3  A    between atoms: C_2  and  C_4
REMARK    4  A    between atoms: C_2  and  C_5
REMARK    5  A    between atoms: C_8  and  C_11
REMARK    6  A    between atoms: C_16  and  O_25
REMARK    7  A    between atoms: C_20  and  N_24
REMARK    8  A    between atoms: C_21  and  C_22
REMARK                            x       y       z     vdW  Elec       q    Type
REMARK                         _______ _______ _______ _____ _____    ______ ____
ROOT
ATOM      1  C   UNL     1      -3.700   1.604   0.030  0.00  0.00    +0.098 C 
ATOM      2  C   UNL     1      -3.555   3.047  -0.374  0.00  0.00    +0.008 A 
ATOM      3  C   UNL     1      -4.674   3.760  -0.765  0.00  0.00    +0.012 A 
ATOM      4  C   UNL     1      -4.560   5.084  -1.139  0.00  0.00    +0.046 A 
ATOM      5  C   UNL     1      -3.318   5.705  -1.124  0.00  0.00    +0.120 A 
ATOM      6  C   UNL     1      -2.196   4.994  -0.732  0.00  0.00    +0.092 A 
ATOM      7  C   UNL     1      -2.313   3.661  -0.357  0.00  0.00    +0.138 A 
ATOM      8  O   UNL     1      -1.204   2.979   0.029  0.00  0.00    -0.441 OA
ATOM      9  C   UNL     1      -1.209   1.636   0.017  0.00  0.00    +0.199 C 
ATOM     10  C   UNL     1      -2.360   0.923   0.018  0.00  0.00    +0.098 C 
ENDROOT
BRANCH   1  14
ATOM     11  C   UNL     1      -5.358   1.395   3.962  0.00  0.00    -0.042 A 
ATOM     12  C   UNL     1      -6.032   0.828   2.896  0.00  0.00    +0.004 A 
ATOM     13  C   UNL     1      -5.496   0.896   1.624  0.00  0.00    +0.005 A 
ATOM     14  C   UNL     1      -4.285   1.530   1.417  0.00  0.00    -0.035 A 
ATOM     15  C   UNL     1      -3.608   2.092   2.483  0.00  0.00    +0.005 A 
ATOM     16  C   UNL     1      -4.147   2.029   3.755  0.00  0.00    +0.004 A 
BRANCH  11  18
ATOM     17  C   UNL     1      -6.110  -0.144   5.755  0.00  0.00    +0.015 C 
ATOM     18  C   UNL     1      -5.943   1.321   5.348  0.00  0.00    -0.013 C 
ATOM     19  C   UNL     1      -5.006   2.020   6.335  0.00  0.00    +0.015 C 
ATOM     20  C   UNL     1      -7.308   2.013   5.364  0.00  0.00    +0.015 C 
ENDBRANCH  11  18
ENDBRANCH   1  14
BRANCH   9  21
ATOM     21  N   UNL     1      -0.011   0.966   0.007  0.00  0.00    -0.328 N 
ATOM     22  H   UNL     1       0.002  -0.004   0.002  0.00  0.00    +0.145 HD
ATOM     23  H   UNL     1       0.822   1.462   0.002  0.00  0.00    +0.145 HD
ENDBRANCH   9  21
BRANCH  10  24
ATOM     24  C   UNL     1      -2.300  -0.507   0.009  0.00  0.00    +0.101 C 
ATOM     25  N   UNL     1      -2.252  -1.642   0.001  0.00  0.00    -0.191 NA
ENDBRANCH  10  24
BRANCH   5  26
ATOM     26  O   UNL     1      -3.204   7.008  -1.492  0.00  0.00    -0.507 OA
ATOM     27  H   UNL     1      -3.305   7.633  -0.761  0.00  0.00    +0.292 HD
ENDBRANCH   5  26
TORSDOF 5
