REMARK  Name = ZINC43630210
REMARK  10 active torsions:
REMARK  status: ('A' for Active; 'I' for Inactive)
REMARK    1  A    between atoms: C_1  and  C_2
REMARK    2  A    between atoms: C_2  and  C_32
REMARK    3  A    between atoms: C_7  and  C_11
REMARK    4  A    between atoms: C_11  and  C_12
REMARK    5  A    between atoms: C_12  and  N_13
REMARK    6  A    between atoms: C_14  and  C_16
REMARK    7  A    between atoms: C_16  and  C_17
REMARK    8  A    between atoms: C_17  and  C_18
REMARK    9  A    between atoms: C_18  and  C_24
REMARK   10  A    between atoms: C_24  and  C_25
REMARK                            x       y       z     vdW  Elec       q    Type
REMARK                         _______ _______ _______ _____ _____    ______ ____
ROOT
ATOM      1  C   UNL     1       1.350  -5.491   6.838  0.00  0.00    +0.098 C 
ENDROOT
BRANCH   1   3
ATOM      2  N   UNL     1       0.438  -4.946   4.604  0.00  0.00    -0.315 N 
ATOM      3  C   UNL     1       1.503  -4.976   5.430  0.00  0.00    +0.213 C 
ATOM      4  O   UNL     1       2.584  -4.589   5.040  0.00  0.00    -0.276 OA
ATOM      5  H   UNL     1      -0.426  -5.256   4.916  0.00  0.00    +0.149 HD
BRANCH   2   6
ATOM      6  C   UNL     1       0.587  -4.446   3.236  0.00  0.00    +0.108 C 
BRANCH   6   7
ATOM      7  C   UNL     1      -0.761  -4.518   2.516  0.00  0.00    +0.049 C 
BRANCH   7  13
ATOM      8  C   UNL     1      -1.928  -0.798  -0.688  0.00  0.00    +0.012 C 
ATOM      9  C   UNL     1      -1.560  -2.264  -0.455  0.00  0.00    -0.025 C 
ATOM     10  C   UNL     1      -0.324  -2.732  -1.250  0.00  0.00    -0.000 C 
ATOM     11  C   UNL     1      -0.251  -4.265  -1.293  0.00  0.00    +0.031 C 
ATOM     12  C   UNL     1      -0.390  -4.820   0.103  0.00  0.00    -0.027 C 
ATOM     13  C   UNL     1      -0.608  -4.003   1.108  0.00  0.00    -0.068 C 
ATOM     14  C   UNL     1      -0.692  -2.498   0.796  0.00  0.00    +0.021 C 
ATOM     15  C   UNL     1       0.501  -2.107  -0.112  0.00  0.00    +0.012 C 
ATOM     16  C   UNL     1      -2.761  -3.207  -0.559  0.00  0.00    +0.012 C 
ENDBRANCH   7  13
ENDBRANCH   6   7
ENDBRANCH   2   6
ENDBRANCH   1   3
BRANCH   1  17
ATOM     17  C   UNL     1       2.698  -5.418   7.558  0.00  0.00    +0.035 C 
BRANCH  17  18
ATOM     18  C   UNL     1       2.573  -6.059   8.941  0.00  0.00    +0.039 C 
ATOM     19  C   UNL     1       1.519  -5.308   9.785  0.00  0.00    +0.035 C 
ATOM     20  C   UNL     1       0.879  -6.462  10.591  0.00  0.00    +0.098 C 
ATOM     21  C   UNL     1       1.124  -7.689   9.739  0.00  0.00    +0.214 C 
ATOM     22  O   UNL     1       0.547  -8.748   9.866  0.00  0.00    -0.276 OA
ATOM     23  N   UNL     1       2.072  -7.433   8.822  0.00  0.00    -0.309 N 
ATOM     24  H   UNL     1       2.385  -8.074   8.164  0.00  0.00    +0.149 HD
BRANCH  18  25
ATOM     25  C   UNL     1       3.928  -6.050   9.652  0.00  0.00    +0.061 C 
BRANCH  25  26
ATOM     26  C   UNL     1       4.910  -6.886   8.874  0.00  0.00    -0.045 A 
ATOM     27  C   UNL     1       4.960  -8.254   9.069  0.00  0.00    +0.005 A 
ATOM     28  C   UNL     1       5.861  -9.022   8.355  0.00  0.00    +0.020 A 
ATOM     29  C   UNL     1       6.712  -8.421   7.444  0.00  0.00    +0.041 A 
ATOM     30  C   UNL     1       6.661  -7.053   7.249  0.00  0.00    +0.020 A 
ATOM     31  C   UNL     1       5.756  -6.287   7.960  0.00  0.00    +0.005 A 
ATOM     32 CL   UNL     1       7.843  -9.385   6.548  0.00  0.00    -0.084 Cl
ENDBRANCH  25  26
ENDBRANCH  18  25
ENDBRANCH  17  18
ENDBRANCH   1  17
TORSDOF 8
