REMARK  Name = ZINC22073706
REMARK  8 active torsions:
REMARK  status: ('A' for Active; 'I' for Inactive)
REMARK    1  A    between atoms: C_1  and  O_2
REMARK    2  A    between atoms: O_2  and  C_3
REMARK    3  A    between atoms: C_5  and  C_20
REMARK    4  A    between atoms: C_8  and  O_9
REMARK    5  A    between atoms: O_9  and  C_10
REMARK    6  A    between atoms: C_10  and  C_11
REMARK    7  A    between atoms: C_20  and  N_21
REMARK    8  A    between atoms: N_21  and  C_22
REMARK                            x       y       z     vdW  Elec       q    Type
REMARK                         _______ _______ _______ _____ _____    ______ ____
ROOT
ATOM      1  C   UNL     1       1.657   9.250  -2.590  0.00  0.00    +0.163 A 
ATOM      2  C   UNL     1       1.671   7.865  -2.633  0.00  0.00    +0.051 A 
ATOM      3  C   UNL     1       0.486   7.159  -2.540  0.00  0.00    -0.060 A 
ATOM      4  C   UNL     1      -0.715   7.832  -2.408  0.00  0.00    +0.021 A 
ATOM      5  C   UNL     1      -0.735   9.214  -2.358  0.00  0.00    +0.063 A 
ATOM      6  C   UNL     1       0.450   9.928  -2.452  0.00  0.00    +0.176 A 
ATOM      7 BR   UNL     1      -2.378  10.130  -2.170  0.00  0.00    -0.046 Br
ENDROOT
BRANCH   1   9
ATOM      8  C   UNL     1       4.024   9.184  -2.822  0.00  0.00    +0.277 C 
ATOM      9  O   UNL     1       2.822   9.946  -2.682  0.00  0.00    -0.491 OA
ENDBRANCH   1   9
BRANCH   6  10
ATOM     10  O   UNL     1       0.432  11.287  -2.408  0.00  0.00    -0.483 OA
BRANCH  10  11
ATOM     11  C   UNL     1       0.301  11.974  -3.654  0.00  0.00    +0.266 C 
BRANCH  11  12
ATOM     12  C   UNL     1       0.300  13.461  -3.410  0.00  0.00    +0.008 A 
ATOM     13  C   UNL     1       0.417  13.950  -2.122  0.00  0.00    +0.010 A 
ATOM     14  C   UNL     1       0.417  15.314  -1.898  0.00  0.00    +0.020 A 
ATOM     15  C   UNL     1       0.300  16.191  -2.962  0.00  0.00    +0.042 A 
ATOM     16  C   UNL     1       0.183  15.702  -4.251  0.00  0.00    +0.040 A 
ATOM     17  C   UNL     1       0.189  14.337  -4.475  0.00  0.00    +0.049 A 
ATOM     18 CL   UNL     1       0.049  13.723  -6.093  0.00  0.00    -0.083 Cl
ATOM     19 CL   UNL     1       0.300  17.904  -2.680  0.00  0.00    -0.083 Cl
ENDBRANCH  11  12
ENDBRANCH  10  11
ENDBRANCH   6  10
BRANCH   3  20
ATOM     20  C   UNL     1       0.502   5.653  -2.588  0.00  0.00    -0.046 C 
BRANCH  20  21
ATOM     21  N   UNL     1       0.642   5.121  -1.226  0.00  0.00    +0.384 N 
ATOM     22  H   UNL     1       1.582   5.484  -0.785  0.00  0.00    -0.085 HD
ATOM     23  H   UNL     1      -0.206   5.459  -0.612  0.00  0.00    -0.085 HD
BRANCH  21  24
ATOM     24  C   UNL     1       0.662   3.652  -1.234  0.00  0.00    -0.065 C 
ATOM     25  C   UNL     1       1.402   3.145   0.006  0.00  0.00    -0.024 C 
ATOM     26  C   UNL     1       1.423   1.615  -0.003  0.00  0.00    +0.005 C 
ATOM     27  C   UNL     1      -0.013   1.086   0.008  0.00  0.00    -0.010 C 
ATOM     28  C   UNL     1      -0.729   1.579   1.267  0.00  0.00    +0.007 C 
ATOM     29  C   UNL     1      -0.750   3.109   1.275  0.00  0.00    -0.010 C 
ATOM     30  C   UNL     1       0.686   3.639   1.264  0.00  0.00    +0.005 C 
ATOM     31  C   UNL     1      -1.490   3.616   0.036  0.00  0.00    +0.005 C 
ATOM     32  C   UNL     1      -0.773   3.123  -1.223  0.00  0.00    -0.024 C 
ATOM     33  C   UNL     1      -0.753   1.593  -1.232  0.00  0.00    +0.005 C 
ENDBRANCH  21  24
ENDBRANCH  20  21
ENDBRANCH   3  20
TORSDOF 7
