REMARK  Name = ZINC05145967
REMARK  8 active torsions:
REMARK  status: ('A' for Active; 'I' for Inactive)
REMARK    1  A    between atoms: C_1  and  C_2
REMARK    2  A    between atoms: C_2  and  O_3
REMARK    3  A    between atoms: O_3  and  C_4
REMARK    4  A    between atoms: C_7  and  C_9
REMARK    5  A    between atoms: C_13  and  N_14
REMARK    6  A    between atoms: C_15  and  C_17
REMARK    7  A    between atoms: C_18  and  C_19
REMARK    8  A    between atoms: C_26  and  C_30
REMARK                            x       y       z     vdW  Elec       q    Type
REMARK                         _______ _______ _______ _____ _____    ______ ____
ROOT
ATOM      1  C   UNL     1       1.258  -4.096  -0.085  0.00  0.00    +0.069 A 
ATOM      2  C   UNL     1       0.941  -2.684   0.053  0.00  0.00    -0.023 A 
ATOM      3  C   UNL     1       1.008  -1.966  -1.089  0.00  0.00    -0.004 A 
ATOM      4  S   UNL     1       1.483  -3.133  -2.332  0.00  0.00    -0.077 S 
ATOM      5  C   UNL     1       1.591  -4.558  -1.352  0.00  0.00    +0.085 A 
ATOM      6  C   UNL     1       0.736  -0.502  -1.252  0.00  0.00    +0.046 C 
ATOM      7  C   UNL     1       0.002  -0.004   0.002  0.00  0.00    -0.009 C 
ATOM      8  C   UNL     1       0.742  -0.514   1.242  0.00  0.00    +0.008 C 
ATOM      9  C   UNL     1       0.557  -2.027   1.373  0.00  0.00    +0.037 C 
ATOM     10  C   UNL     1      -0.019   1.526   0.010  0.00  0.00    +0.008 C 
ENDROOT
BRANCH   1  14
ATOM     11  C   UNL     1       2.307  -6.012   2.873  0.00  0.00    +0.407 C 
ATOM     12  O   UNL     1       1.280  -6.594   3.160  0.00  0.00    -0.226 OA
ATOM     13  N   UNL     1       2.336  -5.182   1.811  0.00  0.00    -0.217 N 
ATOM     14  C   UNL     1       1.226  -4.998   1.069  0.00  0.00    +0.255 C 
ATOM     15  O   UNL     1       0.198  -5.581   1.357  0.00  0.00    -0.270 OA
ATOM     16  H   UNL     1       3.155  -4.717   1.581  0.00  0.00    +0.161 HD
BRANCH  11  17
ATOM     17  O   UNL     1       3.415  -6.195   3.614  0.00  0.00    -0.450 OA
BRANCH  17  19
ATOM     18  C   UNL     1       4.660  -7.184   5.459  0.00  0.00    +0.048 C 
ATOM     19  C   UNL     1       3.311  -7.103   4.742  0.00  0.00    +0.230 C 
ENDBRANCH  17  19
ENDBRANCH  11  17
ENDBRANCH   1  14
BRANCH   5  20
ATOM     20  N   UNL     1       1.928  -5.844  -1.738  0.00  0.00    -0.276 N 
ATOM     21  C   UNL     1       2.225  -6.105  -3.026  0.00  0.00    +0.241 C 
ATOM     22  O   UNL     1       2.196  -5.210  -3.851  0.00  0.00    -0.270 OA
ATOM     23  H   UNL     1       1.950  -6.557  -1.081  0.00  0.00    +0.156 HD
BRANCH  21  24
ATOM     24  C   UNL     1       2.581  -7.465  -3.434  0.00  0.00    +0.068 C 
ATOM     25  C   UNL     1       2.877  -7.726  -4.724  0.00  0.00    +0.013 C 
BRANCH  25  26
ATOM     26  C   UNL     1       3.235  -9.093  -5.134  0.00  0.00    -0.025 A 
ATOM     27  C   UNL     1       3.275 -10.123  -4.189  0.00  0.00    +0.008 A 
ATOM     28  C   UNL     1       3.604 -11.403  -4.582  0.00  0.00    +0.001 A 
ATOM     29  C   UNL     1       3.909 -11.667  -5.906  0.00  0.00    +0.000 A 
ATOM     30  C   UNL     1       3.878 -10.652  -6.846  0.00  0.00    +0.001 A 
ATOM     31  C   UNL     1       3.544  -9.368  -6.470  0.00  0.00    +0.008 A 
ENDBRANCH  25  26
ENDBRANCH  21  24
ENDBRANCH   5  20
TORSDOF 6
