REMARK  Name = ZINC63272550
REMARK  10 active torsions:
REMARK  status: ('A' for Active; 'I' for Inactive)
REMARK    1  A    between atoms: C_1  and  C_2
REMARK    2  A    between atoms: C_4  and  C_38
REMARK    3  A    between atoms: N_6  and  C_28
REMARK    4  A    between atoms: C_7  and  N_20
REMARK    5  A    between atoms: C_9  and  C_11
REMARK    6  A    between atoms: C_21  and  C_23
REMARK    7  A    between atoms: C_28  and  C_29
REMARK    8  A    between atoms: C_29  and  C_30
REMARK    9  A    between atoms: C_33  and  O_36
REMARK   10  A    between atoms: O_36  and  C_37
REMARK                            x       y       z     vdW  Elec       q    Type
REMARK                         _______ _______ _______ _____ _____    ______ ____
ROOT
ATOM      1  C   UNL     1      -0.257   1.615  -0.198  0.00  0.00    +0.009 C 
ATOM      2  C   UNL     1      -0.192   0.092  -0.330  0.00  0.00    +0.013 C 
ATOM      3  C   UNL     1       0.891  -0.312  -1.353  0.00  0.00    +0.059 C 
ATOM      4  N   UNL     1       2.100  -0.581  -0.532  0.00  0.00    -0.281 NA
ATOM      5  C   UNL     1       1.576  -1.277   0.671  0.00  0.00    +0.151 C 
ATOM      6  C   UNL     1       0.256  -0.543   1.003  0.00  0.00    +0.071 C 
ATOM      7  C   UNL     1       1.153   0.834  -2.333  0.00  0.00    +0.024 C 
ENDROOT
BRANCH   6   8
ATOM      8  C   UNL     1      -0.797  -1.537   1.498  0.00  0.00    +0.180 C 
ATOM      9  N   UNL     1      -2.057  -0.838   1.779  0.00  0.00    -0.363 N 
ATOM     10  C   UNL     1      -2.325  -1.008   3.041  0.00  0.00    +0.060 A 
ATOM     11  C   UNL     1      -3.431  -0.557   3.897  0.00  0.00    +0.027 A 
ATOM     12  C   UNL     1      -3.443  -0.895   5.202  0.00  0.00    +0.002 A 
ATOM     13  C   UNL     1      -2.430  -1.672   5.793  0.00  0.00    +0.002 A 
ATOM     14  C   UNL     1      -1.373  -2.137   5.099  0.00  0.00    +0.027 A 
ATOM     15  C   UNL     1      -1.254  -1.831   3.666  0.00  0.00    +0.060 A 
ATOM     16  N   UNL     1      -0.365  -2.138   2.766  0.00  0.00    -0.363 N 
ATOM     17  H   UNL     1      -2.592  -0.341   1.140  0.00  0.00    +0.162 HD
ATOM     18  H   UNL     1       0.435  -2.667   2.908  0.00  0.00    +0.162 HD
ENDBRANCH   6   8
BRANCH   5  19
ATOM     19  N   UNL     1       1.317  -2.688   0.374  0.00  0.00    -0.293 N 
ATOM     20  C   UNL     1       2.141  -3.640   0.855  0.00  0.00    +0.281 C 
ATOM     21  O   UNL     1       3.099  -3.328   1.536  0.00  0.00    -0.267 OA
ATOM     22  H   UNL     1       0.552  -2.937  -0.169  0.00  0.00    +0.151 HD
BRANCH  20  23
ATOM     23  C   UNL     1       1.881  -5.052   0.557  0.00  0.00    +0.189 A 
ATOM     24  C   UNL     1       2.629  -6.112   0.984  0.00  0.00    +0.054 A 
ATOM     25  C   UNL     1       2.021  -7.268   0.469  0.00  0.00    +0.042 A 
ATOM     26  C   UNL     1       0.943  -6.868  -0.241  0.00  0.00    +0.196 A 
ATOM     27  O   UNL     1       0.859  -5.532  -0.181  0.00  0.00    -0.458 OA
ENDBRANCH  20  23
ENDBRANCH   5  19
BRANCH   4  28
ATOM     28  C   UNL     1       3.051  -1.432  -1.260  0.00  0.00    +0.091 C 
BRANCH  28  29
ATOM     29  C   UNL     1       4.420  -1.363  -0.580  0.00  0.00    +0.050 C 
BRANCH  29  30
ATOM     30  C   UNL     1       5.425  -2.135  -1.395  0.00  0.00    -0.046 A 
ATOM     31  C   UNL     1       5.623  -3.482  -1.151  0.00  0.00    +0.007 A 
ATOM     32  C   UNL     1       6.544  -4.192  -1.897  0.00  0.00    +0.046 A 
ATOM     33  C   UNL     1       7.271  -3.553  -2.891  0.00  0.00    +0.120 A 
ATOM     34  C   UNL     1       7.070  -2.202  -3.134  0.00  0.00    +0.046 A 
ATOM     35  C   UNL     1       6.144  -1.498  -2.389  0.00  0.00    +0.007 A 
BRANCH  33  36
ATOM     36  O   UNL     1       8.178  -4.249  -3.625  0.00  0.00    -0.495 OA
ATOM     37  C   UNL     1       8.889  -3.527  -4.632  0.00  0.00    +0.277 C 
ENDBRANCH  33  36
ENDBRANCH  29  30
ENDBRANCH  28  29
ENDBRANCH   4  28
TORSDOF 7
