REMARK  Name = ZINC00927248
REMARK  14 active torsions:
REMARK  status: ('A' for Active; 'I' for Inactive)
REMARK    1  A    between atoms: C_1  and  C_2
REMARK    2  A    between atoms: C_6  and  C_15
REMARK    3  A    between atoms: C_13  and  C_14
REMARK    4  A    between atoms: C_15  and  N_16
REMARK    5  A    between atoms: N_16  and  C_17
REMARK    6  A    between atoms: N_16  and  C_26
REMARK    7  A    between atoms: C_17  and  C_18
REMARK    8  A    between atoms: C_23  and  O_24
REMARK    9  A    between atoms: O_24  and  C_25
REMARK   10  A    between atoms: C_26  and  C_27
REMARK   11  A    between atoms: N_31  and  C_32
REMARK   12  A    between atoms: C_32  and  C_33
REMARK   13  A    between atoms: C_36  and  O_39
REMARK   14  A    between atoms: O_39  and  C_40
REMARK                            x       y       z     vdW  Elec       q    Type
REMARK                         _______ _______ _______ _____ _____    ______ ____
ROOT
ATOM      1  N   UNL     1       2.213  -5.394  -4.491  0.00  0.00    -0.286 NA
ENDROOT
BRANCH   1   2
ATOM      2  C   UNL     1       1.242  -6.316  -3.886  0.00  0.00    +0.125 C 
BRANCH   2   8
ATOM      3  C   UNL     1      -1.148  -5.373   3.115  0.00  0.00    +0.044 C 
ATOM      4  C   UNL     1      -0.070  -5.758   2.135  0.00  0.00    -0.047 A 
ATOM      5  C   UNL     1      -0.322  -5.698   0.793  0.00  0.00    +0.013 A 
ATOM      6  C   UNL     1       0.679  -6.054  -0.117  0.00  0.00    -0.001 A 
ATOM      7  C   UNL     1       0.444  -6.002  -1.561  0.00  0.00    +0.020 A 
ATOM      8  C   UNL     1       1.451  -6.359  -2.395  0.00  0.00    +0.031 A 
ATOM      9  C   UNL     1       2.695  -6.771  -1.871  0.00  0.00    +0.254 A 
ATOM     10  O   UNL     1       3.587  -7.088  -2.638  0.00  0.00    -0.268 OA
ATOM     11  N   UNL     1       2.921  -6.822  -0.546  0.00  0.00    -0.322 N 
ATOM     12  H   UNL     1       3.788  -7.110  -0.220  0.00  0.00    +0.169 HD
ATOM     13  C   UNL     1       1.938  -6.473   0.355  0.00  0.00    +0.049 A 
ATOM     14  C   UNL     1       2.171  -6.526   1.725  0.00  0.00    +0.030 A 
ATOM     15  C   UNL     1       1.172  -6.164   2.603  0.00  0.00    -0.046 A 
ATOM     16  C   UNL     1       1.429  -6.216   4.087  0.00  0.00    +0.044 C 
ENDBRANCH   2   8
ENDBRANCH   1   2
BRANCH   1  17
ATOM     17  C   UNL     1       1.794  -3.998  -4.313  0.00  0.00    +0.124 C 
BRANCH  17  18
ATOM     18  C   UNL     1       2.139  -3.544  -2.918  0.00  0.00    +0.008 A 
ATOM     19  C   UNL     1       1.194  -2.892  -2.150  0.00  0.00    +0.008 A 
ATOM     20  C   UNL     1       1.509  -2.475  -0.870  0.00  0.00    +0.001 A 
ATOM     21  C   UNL     1       2.771  -2.710  -0.355  0.00  0.00    +0.004 A 
ATOM     22  C   UNL     1       3.719  -3.363  -1.118  0.00  0.00    +0.046 A 
ATOM     23  C   UNL     1       3.403  -3.787  -2.401  0.00  0.00    +0.124 A 
BRANCH  23  24
ATOM     24  O   UNL     1       4.333  -4.434  -3.152  0.00  0.00    -0.495 OA
ATOM     25  C   UNL     1       5.604  -4.676  -2.545  0.00  0.00    +0.277 C 
ENDBRANCH  23  24
ENDBRANCH  17  18
ENDBRANCH   1  17
BRANCH   1  26
ATOM     26  C   UNL     1       2.419  -5.705  -5.912  0.00  0.00    +0.163 C 
BRANCH  26  27
ATOM     27  C   UNL     1       3.675  -5.027  -6.397  0.00  0.00    +0.166 A 
ATOM     28  N   UNL     1       3.778  -3.801  -6.849  0.00  0.00    -0.112 NA
ATOM     29  N   UNL     1       5.010  -3.595  -7.163  0.00  0.00    -0.023 NA
ATOM     30  N   UNL     1       5.696  -4.658  -6.923  0.00  0.00    -0.044 NA
ATOM     31  N   UNL     1       4.910  -5.561  -6.444  0.00  0.00    -0.224 N 
BRANCH  31  32
ATOM     32  C   UNL     1       5.288  -6.915  -6.033  0.00  0.00    +0.182 C 
BRANCH  32  33
ATOM     33  C   UNL     1       5.164  -7.851  -7.208  0.00  0.00    -0.026 A 
ATOM     34  C   UNL     1       3.968  -8.501  -7.449  0.00  0.00    +0.009 A 
ATOM     35  C   UNL     1       3.852  -9.359  -8.525  0.00  0.00    +0.046 A 
ATOM     36  C   UNL     1       4.937  -9.568  -9.365  0.00  0.00    +0.120 A 
ATOM     37  C   UNL     1       6.135  -8.913  -9.121  0.00  0.00    +0.046 A 
ATOM     38  C   UNL     1       6.245  -8.052  -8.047  0.00  0.00    +0.009 A 
BRANCH  36  39
ATOM     39  O   UNL     1       4.825 -10.411 -10.425  0.00  0.00    -0.495 OA
ATOM     40  C   UNL     1       5.982 -10.578 -11.246  0.00  0.00    +0.277 C 
ENDBRANCH  36  39
ENDBRANCH  32  33
ENDBRANCH  31  32
ENDBRANCH  26  27
ENDBRANCH   1  26
TORSDOF 10
