REMARK  Name = ZINC02454608
REMARK  7 active torsions:
REMARK  status: ('A' for Active; 'I' for Inactive)
REMARK    1  A    between atoms: C_6  and  C_7
REMARK    2  A    between atoms: N_11  and  C_15
REMARK    3  A    between atoms: C_15  and  C_16
REMARK    4  A    between atoms: C_16  and  C_17
REMARK    5  A    between atoms: N_19  and  C_20
REMARK    6  A    between atoms: C_23  and  C_27
REMARK    7  A    between atoms: C_24  and  O_26
REMARK                            x       y       z     vdW  Elec       q    Type
REMARK                         _______ _______ _______ _____ _____    ______ ____
ROOT
ATOM      1  C   UNL     1       1.508   1.307  -0.964  0.00  0.00    +0.124 C 
ENDROOT
BRANCH   1   6
ATOM      2  C   UNL     1      -0.611   4.026  -4.532  0.00  0.00    +0.028 C 
ATOM      3  C   UNL     1      -0.421   2.953  -3.724  0.00  0.00    +0.077 C 
ATOM      4  C   UNL     1       0.586   2.739  -2.663  0.00  0.00    +0.258 C 
ATOM      5  O   UNL     1       1.415   3.586  -2.388  0.00  0.00    -0.269 OA
ATOM      6  N   UNL     1       0.537   1.581  -2.027  0.00  0.00    -0.255 N 
ATOM      7  C   UNL     1      -0.381   0.644  -2.337  0.00  0.00    +0.121 C 
ATOM      8  S   UNL     1      -0.598  -0.905  -1.640  0.00  0.00    -0.027 S 
ATOM      9  S   UNL     1      -1.318   1.409  -3.651  0.00  0.00    -0.061 S 
BRANCH   2  15
ATOM     10  C   UNL     1      -2.124   2.715  -6.006  0.00  0.00    +0.009 A 
ATOM     11  C   UNL     1      -3.020   2.648  -7.052  0.00  0.00    +0.020 A 
ATOM     12  C   UNL     1      -3.355   3.793  -7.756  0.00  0.00    +0.041 A 
ATOM     13  C   UNL     1      -2.798   5.014  -7.412  0.00  0.00    +0.020 A 
ATOM     14  C   UNL     1      -1.905   5.098  -6.365  0.00  0.00    +0.009 A 
ATOM     15  C   UNL     1      -1.562   3.945  -5.649  0.00  0.00    -0.024 A 
ATOM     16 CL   UNL     1      -4.479   3.698  -9.076  0.00  0.00    -0.084 Cl
ENDBRANCH   2  15
ENDBRANCH   1   6
BRANCH   1  17
ATOM     17  C   UNL     1       0.945   1.782   0.377  0.00  0.00    +0.115 C 
BRANCH  17  18
ATOM     18  C   UNL     1       1.943   1.500   1.470  0.00  0.00    +0.219 C 
ATOM     19  O   UNL     1       3.001   0.971   1.202  0.00  0.00    -0.275 OA
ATOM     20  N   UNL     1       1.660   1.836   2.744  0.00  0.00    -0.285 N 
ATOM     21  H   UNL     1       0.783   2.184   2.970  0.00  0.00    +0.155 HD
BRANCH  20  22
ATOM     22  C   UNL     1       2.627   1.682   3.736  0.00  0.00    +0.037 A 
ATOM     23  C   UNL     1       3.977   1.806   3.415  0.00  0.00    +0.024 A 
ATOM     24  C   UNL     1       4.932   1.658   4.379  0.00  0.00    +0.020 A 
ATOM     25  C   UNL     1       4.560   1.379   5.699  0.00  0.00    +0.105 A 
ATOM     26  C   UNL     1       3.201   1.253   6.027  0.00  0.00    +0.133 A 
ATOM     27  C   UNL     1       2.241   1.412   5.042  0.00  0.00    +0.069 A 
BRANCH  25  28
ATOM     28  C   UNL     1       5.589   1.219   6.738  0.00  0.00    +0.390 C 
ATOM     29  O   UNL     1       5.263   0.977   7.884  0.00  0.00    -0.240 OA
ATOM     30  O   UNL     1       6.893   1.340   6.420  0.00  0.00    -0.240 OA
ENDBRANCH  25  28
BRANCH  26  31
ATOM     31  O   UNL     1       2.830   0.983   7.304  0.00  0.00    -0.506 OA
ATOM     32  H   UNL     1       2.684   1.771   7.846  0.00  0.00    +0.292 HD
ENDBRANCH  26  31
ENDBRANCH  20  22
ENDBRANCH  17  18
ENDBRANCH   1  17
TORSDOF 7
