REMARK  Name = ZINC23465992
REMARK  5 active torsions:
REMARK  status: ('A' for Active; 'I' for Inactive)
REMARK    1  A    between atoms: C_1  and  C_2
REMARK    2  A    between atoms: C_2  and  C_4
REMARK    3  A    between atoms: C_6  and  C_9
REMARK    4  A    between atoms: C_9  and  N_10
REMARK    5  A    between atoms: C_14  and  N_17
REMARK                            x       y       z     vdW  Elec       q    Type
REMARK                         _______ _______ _______ _____ _____    ______ ____
ROOT
ATOM      1  N   UNL     1      -0.770   3.048   1.264  0.00  0.00    -0.300 NA
ATOM      2  C   UNL     1      -0.731   1.580   1.266  0.00  0.00    +0.084 C 
ATOM      3  C   UNL     1      -0.013   1.086   0.008  0.00  0.00    +0.014 C 
ATOM      4  C   UNL     1      -0.755   1.594  -1.231  0.00  0.00    -0.013 C 
ATOM      5  C   UNL     1      -0.823   3.123  -1.184  0.00  0.00    -0.054 C 
ATOM      6  C   UNL     1      -1.519   3.558   0.108  0.00  0.00    +0.069 C 
ENDROOT
BRANCH   5   7
ATOM      7  N   UNL     1      -1.584   3.615  -2.341  0.00  0.00    +0.382 N 
ATOM      8  C   UNL     1      -1.720   5.094  -2.297  0.00  0.00    -0.078 C 
ATOM      9  C   UNL     1      -2.043   5.463  -3.767  0.00  0.00    -0.020 C 
ATOM     10  C   UNL     1      -1.167   4.476  -4.572  0.00  0.00    -0.020 C 
ATOM     11  C   UNL     1      -0.881   3.312  -3.606  0.00  0.00    -0.078 C 
ATOM     12  H   UNL     1      -2.561   3.113  -2.292  0.00  0.00    -0.081 HD
ENDBRANCH   5   7
BRANCH   1  13
ATOM     13  C   UNL     1      -1.329   3.562   2.521  0.00  0.00    +0.120 C 
BRANCH  13  16
ATOM     14  C   UNL     1       1.413   3.708   5.079  0.00  0.00    +0.055 A 
ATOM     15  C   UNL     1       0.597   4.090   4.019  0.00  0.00    +0.024 A 
ATOM     16  C   UNL     1      -0.401   3.224   3.659  0.00  0.00    -0.026 A 
ATOM     17  C   UNL     1      -0.549   2.057   4.344  0.00  0.00    +0.050 A 
ATOM     18  S   UNL     1       0.722   2.124   5.521  0.00  0.00    -0.093 S 
BRANCH  14  20
ATOM     19  C   UNL     1       3.254   3.785   6.811  0.00  0.00    +0.092 C 
ATOM     20  C   UNL     1       2.505   4.395   5.655  0.00  0.00    +0.167 C 
ATOM     21  O   UNL     1       2.840   5.478   5.218  0.00  0.00    -0.292 OA
ENDBRANCH  14  20
ENDBRANCH  13  16
ENDBRANCH   1  13
TORSDOF 4
