REMARK  Name = ZINC01205784
REMARK  5 active torsions:
REMARK  status: ('A' for Active; 'I' for Inactive)
REMARK    1  A    between atoms: C_1  and  C_2
REMARK    2  A    between atoms: C_2  and  O_4
REMARK    3  A    between atoms: O_4  and  C_5
REMARK    4  A    between atoms: C_9  and  N_11
REMARK    5  A    between atoms: C_20  and  C_34
REMARK                            x       y       z     vdW  Elec       q    Type
REMARK                         _______ _______ _______ _____ _____    ______ ____
ROOT
ATOM      1  N   UNL     1      -3.305  -5.317  -0.173  0.00  0.00    -0.210 N 
ATOM      2  C   UNL     1      -4.560  -4.868  -0.301  0.00  0.00    +0.231 C 
ATOM      3  O   UNL     1      -4.885  -3.703  -0.384  0.00  0.00    -0.274 OA
ATOM      4  C   UNL     1      -5.509  -6.047  -0.327  0.00  0.00    +0.101 C 
ATOM      5  C   UNL     1      -4.578  -7.265  -0.189  0.00  0.00    +0.103 C 
ATOM      6  C   UNL     1      -3.197  -6.650  -0.105  0.00  0.00    +0.231 C 
ATOM      7  O   UNL     1      -2.159  -7.266   0.007  0.00  0.00    -0.274 OA
ATOM      8  C   UNL     1      -4.653  -8.167  -1.439  0.00  0.00    +0.030 C 
ATOM      9  C   UNL     1      -6.124  -8.515  -1.599  0.00  0.00    -0.033 A 
ATOM     10  C   UNL     1      -6.627  -9.784  -1.623  0.00  0.00    +0.005 A 
ATOM     11  C   UNL     1      -7.997  -9.959  -1.776  0.00  0.00    +0.000 A 
ATOM     12  C   UNL     1      -8.832  -8.865  -1.902  0.00  0.00    +0.000 A 
ATOM     13  C   UNL     1      -8.314  -7.577  -1.877  0.00  0.00    +0.004 A 
ATOM     14  C   UNL     1      -6.966  -7.412  -1.726  0.00  0.00    -0.035 A 
ATOM     15  C   UNL     1      -6.255  -6.053  -1.678  0.00  0.00    +0.062 C 
ATOM     16  C   UNL     1      -5.170  -6.125  -2.740  0.00  0.00    -0.035 A 
ATOM     17  C   UNL     1      -4.328  -7.258  -2.614  0.00  0.00    -0.033 A 
ATOM     18  C   UNL     1      -3.309  -7.463  -3.499  0.00  0.00    +0.005 A 
ATOM     19  C   UNL     1      -3.125  -6.550  -4.530  0.00  0.00    +0.000 A 
ATOM     20  C   UNL     1      -3.960  -5.455  -4.654  0.00  0.00    +0.000 A 
ATOM     21  C   UNL     1      -4.994  -5.210  -3.739  0.00  0.00    +0.004 A 
ATOM     22  C   UNL     1      -3.734  -9.388  -1.353  0.00  0.00    +0.022 C 
ENDROOT
BRANCH   1  27
ATOM     23  C   UNL     1      -0.178  -3.607  -1.101  0.00  0.00    +0.133 A 
ATOM     24  C   UNL     1      -0.004  -2.771  -0.007  0.00  0.00    +0.046 A 
ATOM     25  C   UNL     1      -0.922  -2.781   1.025  0.00  0.00    +0.005 A 
ATOM     26  C   UNL     1      -2.016  -3.623   0.973  0.00  0.00    +0.024 A 
ATOM     27  C   UNL     1      -2.195  -4.462  -0.119  0.00  0.00    +0.047 A 
ATOM     28  C   UNL     1      -1.278  -4.449  -1.160  0.00  0.00    +0.070 A 
BRANCH  23  29
ATOM     29  O   UNL     1       0.725  -3.596  -2.116  0.00  0.00    -0.426 OA
BRANCH  29  31
ATOM     30  C   UNL     1       2.883  -4.341  -3.058  0.00  0.00    +0.136 C 
ATOM     31  C   UNL     1       1.894  -4.229  -1.926  0.00  0.00    +0.309 C 
ATOM     32  O   UNL     1       2.154  -4.707  -0.848  0.00  0.00    -0.251 OA
ENDBRANCH  29  31
ENDBRANCH  23  29
ENDBRANCH   1  27
TORSDOF 3
