REMARK  Name = ZINC04646673
REMARK  3 active torsions:
REMARK  status: ('A' for Active; 'I' for Inactive)
REMARK    1  A    between atoms: C_6  and  O_24
REMARK    2  A    between atoms: C_7  and  C_11
REMARK    3  A    between atoms: N_13  and  N_14
REMARK                            x       y       z     vdW  Elec       q    Type
REMARK                         _______ _______ _______ _____ _____    ______ ____
ROOT
ATOM      1  C   UNL     1      -0.950   1.951  -9.034  0.00  0.00    +0.001 A 
ATOM      2  C   UNL     1      -0.994   3.063  -9.873  0.00  0.00    +0.001 A 
ATOM      3  C   UNL     1      -1.036   4.325  -9.364  0.00  0.00    +0.008 A 
ATOM      4  C   UNL     1      -1.035   4.515  -7.971  0.00  0.00    -0.014 A 
ATOM      5  C   UNL     1      -1.079   5.805  -7.417  0.00  0.00    +0.054 A 
ATOM      6  C   UNL     1      -1.083   5.966  -6.063  0.00  0.00    +0.130 A 
ATOM      7  C   UNL     1      -1.034   4.846  -5.204  0.00  0.00    +0.080 A 
ATOM      8  C   UNL     1      -0.991   3.564  -5.726  0.00  0.00    +0.025 A 
ATOM      9  C   UNL     1      -0.991   3.383  -7.117  0.00  0.00    -0.017 A 
ATOM     10  C   UNL     1      -0.948   2.095  -7.681  0.00  0.00    +0.008 A 
ENDROOT
BRANCH   7  11
ATOM     11  C   UNL     1      -1.034   5.044  -3.742  0.00  0.00    +0.267 C 
ATOM     12  O   UNL     1      -1.072   6.168  -3.280  0.00  0.00    -0.268 OA
ATOM     13  N   UNL     1      -0.992   3.978  -2.918  0.00  0.00    -0.203 N 
ATOM     14  H   UNL     1      -0.962   3.081  -3.287  0.00  0.00    +0.178 HD
BRANCH  13  15
ATOM     15  N   UNL     1      -0.993   4.165  -1.530  0.00  0.00    -0.189 NA
ATOM     16  C   UNL     1      -0.953   3.152  -0.748  0.00  0.00    +0.040 C 
ATOM     17  C   UNL     1      -0.946   3.162   0.774  0.00  0.00    +0.056 C 
ATOM     18  C   UNL     1      -0.881   1.658   1.185  0.00  0.00    -0.005 C 
ATOM     19  C   UNL     1      -2.285   1.095   0.805  0.00  0.00    +0.004 C 
ATOM     20  C   UNL     1      -2.301   1.109  -0.744  0.00  0.00    +0.010 C 
ATOM     21  C   UNL     1      -0.902   1.670  -1.145  0.00  0.00    +0.035 C 
ATOM     22  C   UNL     1      -0.013   1.086   0.008  0.00  0.00    +0.013 C 
ENDBRANCH  13  15
ENDBRANCH   7  11
BRANCH   6  23
ATOM     23  O   UNL     1      -1.130   7.215  -5.535  0.00  0.00    -0.506 OA
ATOM     24  H   UNL     1      -0.261   7.613  -5.387  0.00  0.00    +0.292 HD
ENDBRANCH   6  23
TORSDOF 3
