REMARK  Name = ZINC12377821
REMARK  7 active torsions:
REMARK  status: ('A' for Active; 'I' for Inactive)
REMARK    1  A    between atoms: C_1  and  C_2
REMARK    2  A    between atoms: C_4  and  C_30
REMARK    3  A    between atoms: C_6  and  N_8
REMARK    4  A    between atoms: C_9  and  C_11
REMARK    5  A    between atoms: C_12  and  C_29
REMARK    6  A    between atoms: C_17  and  C_19
REMARK    7  A    between atoms: C_23  and  N_25
REMARK                            x       y       z     vdW  Elec       q    Type
REMARK                         _______ _______ _______ _____ _____    ______ ____
ROOT
ATOM      1  C   UNL     1      -0.539   3.658  -0.200  0.00  0.00    +0.056 C 
ATOM      2  C   UNL     1       0.655   3.853  -0.797  0.00  0.00    +0.017 C 
ATOM      3  N   UNL     1       1.630   2.898  -0.752  0.00  0.00    -0.300 N 
ATOM      4  C   UNL     1       1.489   1.722  -0.129  0.00  0.00    +0.135 C 
ATOM      5  S   UNL     1       2.793   0.612  -0.148  0.00  0.00    -0.019 S 
ATOM      6  N   UNL     1       0.354   1.382   0.513  0.00  0.00    -0.315 N 
ATOM      7  C   UNL     1      -0.763   2.342   0.518  0.00  0.00    +0.139 C 
ATOM      8  C   UNL     1       0.917   5.146  -1.526  0.00  0.00    +0.061 C 
ATOM      9  H   UNL     1       2.473   3.083  -1.196  0.00  0.00    +0.154 HD
ATOM     10  H   UNL     1       0.272   0.524   0.958  0.00  0.00    +0.149 HD
ENDROOT
BRANCH   7  11
ATOM     11  C   UNL     1      -1.959   1.667  -0.102  0.00  0.00    -0.020 A 
ATOM     12  C   UNL     1      -1.810   0.923  -1.258  0.00  0.00    +0.007 A 
ATOM     13  C   UNL     1      -2.906   0.304  -1.828  0.00  0.00    +0.022 A 
ATOM     14  C   UNL     1      -4.153   0.429  -1.241  0.00  0.00    +0.071 A 
ATOM     15  C   UNL     1      -4.302   1.174  -0.085  0.00  0.00    +0.145 A 
ATOM     16  C   UNL     1      -3.203   1.788   0.487  0.00  0.00    +0.040 A 
ATOM     17 CL   UNL     1      -5.531  -0.348  -1.956  0.00  0.00    -0.081 Cl
BRANCH  15  18
ATOM     18  N   UNL     1      -5.635   1.307   0.544  0.00  0.00    +0.058 N 
ATOM     19  O   UNL     1      -5.765   1.963   1.562  0.00  0.00    -0.126 OA
ATOM     20  O   UNL     1      -6.602   0.761   0.043  0.00  0.00    -0.126 OA
ENDBRANCH  15  18
ENDBRANCH   7  11
BRANCH   1  22
ATOM     21  N   UNL     1      -2.248   4.846  -1.383  0.00  0.00    -0.282 N 
ATOM     22  C   UNL     1      -1.552   4.648  -0.246  0.00  0.00    +0.248 C 
ATOM     23  O   UNL     1      -1.792   5.320   0.741  0.00  0.00    -0.270 OA
ATOM     24  H   UNL     1      -2.110   4.262  -2.144  0.00  0.00    +0.155 HD
BRANCH  21  30
ATOM     25  C   UNL     1      -5.643   7.671   0.776  0.00  0.00    +0.044 C 
ATOM     26  C   UNL     1      -4.830   7.285  -0.433  0.00  0.00    -0.048 A 
ATOM     27  C   UNL     1      -4.996   7.968  -1.624  0.00  0.00    +0.006 A 
ATOM     28  C   UNL     1      -4.252   7.616  -2.735  0.00  0.00    -0.048 A 
ATOM     29  C   UNL     1      -3.340   6.582  -2.658  0.00  0.00    +0.026 A 
ATOM     30  C   UNL     1      -3.171   5.894  -1.463  0.00  0.00    +0.034 A 
ATOM     31  C   UNL     1      -3.923   6.247  -0.350  0.00  0.00    +0.026 A 
ATOM     32  C   UNL     1      -4.436   8.363  -4.031  0.00  0.00    +0.044 C 
ENDBRANCH  21  30
ENDBRANCH   1  22
TORSDOF 4
