REMARK  Name = ZINC39974289
REMARK  13 active torsions:
REMARK  status: ('A' for Active; 'I' for Inactive)
REMARK    1  A    between atoms: C_1  and  C_2
REMARK    2  A    between atoms: C_4  and  C_34
REMARK    3  A    between atoms: C_5  and  N_9
REMARK    4  A    between atoms: C_6  and  C_8
REMARK    5  A    between atoms: N_9  and  S_10
REMARK    6  A    between atoms: S_10  and  C_13
REMARK    7  A    between atoms: C_16  and  N_19
REMARK    8  A    between atoms: N_19  and  C_20
REMARK    9  A    between atoms: C_20  and  N_22
REMARK   10  A    between atoms: N_22  and  C_23
REMARK   11  A    between atoms: C_26  and  C_33
REMARK   12  A    between atoms: C_29  and  C_31
REMARK   13  A    between atoms: C_29  and  C_32
REMARK                            x       y       z     vdW  Elec       q    Type
REMARK                         _______ _______ _______ _____ _____    ______ ____
ROOT
ATOM      1  C   UNL     1      -2.377  -4.958   2.112  0.00  0.00    +0.109 A 
ATOM      2  C   UNL     1      -2.551  -3.624   2.432  0.00  0.00    +0.030 A 
ATOM      3  C   UNL     1      -3.718  -3.204   3.040  0.00  0.00    +0.025 A 
ATOM      4  C   UNL     1      -4.718  -4.124   3.330  0.00  0.00    +0.033 A 
ATOM      5  C   UNL     1      -4.540  -5.463   3.008  0.00  0.00    +0.025 A 
ATOM      6  C   UNL     1      -3.373  -5.875   2.395  0.00  0.00    +0.030 A 
ENDROOT
BRANCH   1   7
ATOM      7  S   UNL     1      -0.887  -5.490   1.337  0.00  0.00    +0.072 S 
ATOM      8  O   UNL     1      -0.802  -6.894   1.540  0.00  0.00    -0.150 OA
ATOM      9  O   UNL     1       0.132  -4.596   1.760  0.00  0.00    -0.150 OA
BRANCH   7  10
ATOM     10  N   UNL     1      -1.073  -5.257  -0.292  0.00  0.00    -0.216 N 
ATOM     11  H   UNL     1      -1.111  -6.021  -0.890  0.00  0.00    +0.174 HD
BRANCH  10  16
ATOM     12  C   UNL     1      -1.490  -0.001  -2.378  0.00  0.00    +0.044 C 
ATOM     13  C   UNL     1      -1.379  -1.398  -1.824  0.00  0.00    -0.050 A 
ATOM     14  C   UNL     1      -0.166  -1.855  -1.344  0.00  0.00    +0.008 A 
ATOM     15  C   UNL     1      -0.061  -3.135  -0.836  0.00  0.00    -0.028 A 
ATOM     16  C   UNL     1      -1.176  -3.963  -0.806  0.00  0.00    +0.054 A 
ATOM     17  C   UNL     1      -2.394  -3.500  -1.288  0.00  0.00    -0.028 A 
ATOM     18  C   UNL     1      -2.493  -2.217  -1.791  0.00  0.00    +0.008 A 
ATOM     19  C   UNL     1      -3.606  -4.394  -1.259  0.00  0.00    +0.046 C 
ATOM     20  C   UNL     1       1.262  -3.633  -0.314  0.00  0.00    +0.046 C 
ENDBRANCH  10  16
ENDBRANCH   7  10
ENDBRANCH   1   7
BRANCH   4  21
ATOM     21  N   UNL     1      -5.900  -3.702   3.947  0.00  0.00    -0.297 N 
ATOM     22  H   UNL     1      -6.290  -4.230   4.662  0.00  0.00    +0.154 HD
BRANCH  21  23
ATOM     23  C   UNL     1      -6.499  -2.563   3.547  0.00  0.00    +0.135 C 
ATOM     24  S   UNL     1      -5.895  -1.708   2.192  0.00  0.00    -0.019 S 
BRANCH  23  25
ATOM     25  N   UNL     1      -7.573  -2.096   4.214  0.00  0.00    -0.323 N 
ATOM     26  H   UNL     1      -7.916  -2.580   4.982  0.00  0.00    +0.148 HD
BRANCH  25  27
ATOM     27  C   UNL     1      -8.224  -0.858   3.780  0.00  0.00    +0.073 C 
ATOM     28  C   UNL     1      -9.614  -0.762   4.413  0.00  0.00    +0.025 C 
ATOM     29  C   UNL     1      -9.481  -0.761   5.937  0.00  0.00    -0.012 C 
ATOM     30  C   UNL     1      -8.638   0.438   6.375  0.00  0.00    +0.009 C 
ATOM     31  C   UNL     1      -7.248   0.343   5.742  0.00  0.00    -0.033 C 
ATOM     32  C   UNL     1      -7.381   0.342   4.217  0.00  0.00    +0.028 C 
ATOM     33  C   UNL     1      -6.569  -0.951   6.195  0.00  0.00    +0.011 C 
ATOM     34  C   UNL     1      -6.405   1.543   6.179  0.00  0.00    +0.011 C 
ATOM     35  C   UNL     1     -10.870  -0.666   6.571  0.00  0.00    +0.007 C 
ENDBRANCH  25  27
ENDBRANCH  23  25
ENDBRANCH  21  23
ENDBRANCH   4  21
TORSDOF 7
