REMARK  Name = ZINC09696980
REMARK  7 active torsions:
REMARK  status: ('A' for Active; 'I' for Inactive)
REMARK    1  A    between atoms: C_2  and  C_3
REMARK    2  A    between atoms: C_3  and  O_4
REMARK    3  A    between atoms: O_4  and  C_5
REMARK    4  A    between atoms: C_10  and  N_11
REMARK    5  A    between atoms: N_11  and  C_12
REMARK    6  A    between atoms: C_12  and  N_14
REMARK    7  A    between atoms: C_15  and  C_17
REMARK                            x       y       z     vdW  Elec       q    Type
REMARK                         _______ _______ _______ _____ _____    ______ ____
ROOT
ATOM      1  C   UNL     1       3.662   8.712   0.262  0.00  0.00    +0.141 C 
ATOM      2  S   UNL     1       5.293   8.299   0.577  0.00  0.00    -0.018 S 
ENDROOT
BRANCH   1   3
ATOM      3  N   UNL     1       2.714   7.754   0.249  0.00  0.00    -0.263 N 
ATOM      4  C   UNL     1       3.051   6.470   0.484  0.00  0.00    +0.258 C 
ATOM      5  O   UNL     1       4.210   6.177   0.708  0.00  0.00    -0.269 OA
ATOM      6  H   UNL     1       1.790   7.988   0.070  0.00  0.00    +0.157 HD
BRANCH   4   7
ATOM      7  C   UNL     1       2.019   5.427   0.470  0.00  0.00    +0.094 A 
ATOM      8  C   UNL     1       2.162   4.090   0.682  0.00  0.00    +0.068 A 
ATOM      9  C   UNL     1       1.036   3.247   0.625  0.00  0.00    +0.008 A 
ATOM     10  C   UNL     1       0.980   1.843   0.816  0.00  0.00    +0.010 A 
ATOM     11  C   UNL     1      -0.199   1.176   0.725  0.00  0.00    +0.001 A 
ATOM     12  C   UNL     1      -1.389   1.834   0.439  0.00  0.00    +0.001 A 
ATOM     13  C   UNL     1      -1.381   3.201   0.251  0.00  0.00    +0.016 A 
ATOM     14  C   UNL     1      -0.191   3.893   0.340  0.00  0.00    +0.021 A 
ATOM     15  S   UNL     1       0.268   5.599   0.170  0.00  0.00    -0.082 S 
ATOM     16 CL   UNL     1       3.729   3.426   1.022  0.00  0.00    -0.082 Cl
ENDBRANCH   4   7
ENDBRANCH   1   3
BRANCH   1  17
ATOM     17  N   UNL     1       3.325   9.996   0.027  0.00  0.00    -0.294 N 
ATOM     18  H   UNL     1       2.413  10.222  -0.214  0.00  0.00    +0.154 HD
BRANCH  17  24
ATOM     19  C   UNL     1       4.016  12.168   0.842  0.00  0.00    +0.142 A 
ATOM     20  C   UNL     1       4.977  13.161   0.940  0.00  0.00    +0.047 A 
ATOM     21  C   UNL     1       6.208  12.995   0.332  0.00  0.00    +0.004 A 
ATOM     22  C   UNL     1       6.484  11.840  -0.375  0.00  0.00    +0.002 A 
ATOM     23  C   UNL     1       5.532  10.842  -0.474  0.00  0.00    +0.027 A 
ATOM     24  C   UNL     1       4.293  11.004   0.129  0.00  0.00    +0.075 A 
BRANCH  19  25
ATOM     25  O   UNL     1       2.806  12.330   1.440  0.00  0.00    -0.486 OA
BRANCH  25  26
ATOM     26  C   UNL     1       2.592  13.549   2.153  0.00  0.00    +0.256 C 
BRANCH  26  28
ATOM     27  C   UNL     1       1.021  13.934   3.982  0.00  0.00    +0.007 C 
ATOM     28  C   UNL     1       1.206  13.550   2.744  0.00  0.00    +0.006 C 
ENDBRANCH  26  28
ENDBRANCH  25  26
ENDBRANCH  19  25
ENDBRANCH  17  24
ENDBRANCH   1  17
TORSDOF 7
