REMARK  Name = ZINC39237944
REMARK  7 active torsions:
REMARK  status: ('A' for Active; 'I' for Inactive)
REMARK    1  A    between atoms: C_1  and  C_2
REMARK    2  A    between atoms: C_7  and  N_8
REMARK    3  A    between atoms: C_9  and  C_11
REMARK    4  A    between atoms: C_12  and  C_36
REMARK    5  A    between atoms: C_19  and  C_20
REMARK    6  A    between atoms: C_27  and  C_29
REMARK    7  A    between atoms: C_33  and  C_35
REMARK                            x       y       z     vdW  Elec       q    Type
REMARK                         _______ _______ _______ _____ _____    ______ ____
ROOT
ATOM      1  C   UNL     1      -0.358   0.285   5.194  0.00  0.00    +0.062 C 
ATOM      2  C   UNL     1      -0.407  -0.500   6.310  0.00  0.00    +0.051 C 
ATOM      3  N   UNL     1      -0.282   0.035   7.519  0.00  0.00    -0.228 NA
ATOM      4  C   UNL     1      -0.107   1.309   7.758  0.00  0.00    +0.177 A 
ATOM      5  N   UNL     1      -0.028   2.272   6.777  0.00  0.00    -0.275 N 
ATOM      6  C   UNL     1       0.153   3.548   7.141  0.00  0.00    +0.268 A 
ATOM      7  O   UNL     1       0.228   4.434   6.311  0.00  0.00    -0.266 OA
ATOM      8  C   UNL     1       0.257   3.845   8.585  0.00  0.00    +0.078 A 
ATOM      9  C   UNL     1       0.435   5.019   9.201  0.00  0.00    +0.024 C 
ATOM     10  S   UNL     1       0.080   2.211   9.283  0.00  0.00    -0.046 S 
ATOM     11  C   UNL     1      -0.151   1.771   5.379  0.00  0.00    +0.170 C 
ATOM     12  C   UNL     1      -0.606  -1.987   6.168  0.00  0.00    +0.066 C 
ENDROOT
BRANCH  11  13
ATOM     13  C   UNL     1      -1.331   2.495   4.727  0.00  0.00    +0.204 C 
ATOM     14  C   UNL     1      -2.672   2.046   5.357  0.00  0.00    +0.077 C 
ATOM     15  C   UNL     1      -3.585   2.010   4.143  0.00  0.00    +0.017 C 
ATOM     16  C   UNL     1      -2.818   2.040   3.074  0.00  0.00    +0.091 C 
ATOM     17  O   UNL     1      -1.496   2.081   3.357  0.00  0.00    -0.491 OA
ATOM     18  C   UNL     1      -3.361   2.029   1.668  0.00  0.00    +0.085 C 
ENDBRANCH  11  13
BRANCH   9  19
ATOM     19  C   UNL     1       0.413   6.299   8.406  0.00  0.00    +0.152 C 
ATOM     20  C   UNL     1       1.721   7.041   8.572  0.00  0.00    +0.005 C 
ATOM     21  C   UNL     1       1.409   8.213   9.123  0.00  0.00    +0.017 C 
ATOM     22  C   UNL     1      -0.038   8.285   9.330  0.00  0.00    +0.105 C 
ATOM     23  N   UNL     1      -0.621   7.203   8.926  0.00  0.00    -0.280 NA
ENDBRANCH   9  19
BRANCH   1  25
ATOM     24  N   UNL     1      -1.687  -0.729   3.492  0.00  0.00    -0.281 N 
ATOM     25  C   UNL     1      -0.489  -0.273   3.909  0.00  0.00    +0.248 C 
ATOM     26  O   UNL     1       0.480  -0.345   3.174  0.00  0.00    -0.270 OA
ATOM     27  H   UNL     1      -2.463  -0.653   4.070  0.00  0.00    +0.155 HD
BRANCH  24  34
ATOM     28  C   UNL     1      -3.887  -2.472   3.026  0.00  0.00    +0.045 C 
ATOM     29  C   UNL     1      -2.870  -2.168   1.956  0.00  0.00    -0.029 A 
ATOM     30  C   UNL     1      -2.994  -2.737   0.704  0.00  0.00    +0.005 A 
ATOM     31  C   UNL     1      -2.061  -2.458  -0.279  0.00  0.00    +0.000 A 
ATOM     32  C   UNL     1      -1.002  -1.610  -0.011  0.00  0.00    +0.002 A 
ATOM     33  C   UNL     1      -0.873  -1.038   1.240  0.00  0.00    +0.023 A 
ATOM     34  C   UNL     1      -1.812  -1.311   2.227  0.00  0.00    +0.037 A 
ENDBRANCH  24  34
ENDBRANCH   1  25
TORSDOF 4
