REMARK  Name = ZINC09358076
REMARK  7 active torsions:
REMARK  status: ('A' for Active; 'I' for Inactive)
REMARK    1  A    between atoms: C_4  and  C_7
REMARK    2  A    between atoms: C_7  and  S_8
REMARK    3  A    between atoms: S_8  and  C_9
REMARK    4  A    between atoms: C_15  and  C_29
REMARK    5  A    between atoms: C_17  and  C_22
REMARK    6  A    between atoms: C_22  and  C_24
REMARK    7  A    between atoms: C_32  and  O_35
REMARK                            x       y       z     vdW  Elec       q    Type
REMARK                         _______ _______ _______ _____ _____    ______ ____
ROOT
ATOM      1  C   UNL     1      -7.650  -1.226   0.726  0.00  0.00    +0.160 A 
ATOM      2  N   UNL     1      -6.968  -0.102   0.558  0.00  0.00    -0.133 NA
ATOM      3  N   UNL     1      -5.715  -0.099   0.414  0.00  0.00    -0.125 NA
ATOM      4  C   UNL     1      -5.006  -1.216   0.408  0.00  0.00    +0.192 A 
ATOM      5  S   UNL     1      -6.313  -2.415   0.656  0.00  0.00    -0.024 S 
ATOM      6  N   UNL     1      -3.637  -1.406   0.259  0.00  0.00    -0.230 N 
ATOM      7  C   UNL     1      -2.635  -0.351   0.066  0.00  0.00    +0.152 C 
ATOM      8  C   UNL     1      -1.302  -1.053  -0.045  0.00  0.00    +0.077 C 
ATOM      9  C   UNL     1      -1.547  -2.378   0.085  0.00  0.00    +0.250 C 
ATOM     10  C   UNL     1      -2.995  -2.588   0.273  0.00  0.00    +0.293 C 
ATOM     11  O   UNL     1      -3.529  -3.670   0.419  0.00  0.00    -0.266 OA
ATOM     12  O   UNL     1      -0.611  -3.356   0.048  0.00  0.00    -0.282 OA
ENDROOT
BRANCH   7  13
ATOM     13  C   UNL     1      -2.927   0.411  -1.201  0.00  0.00    -0.022 A 
ATOM     14  C   UNL     1      -3.303  -0.269  -2.344  0.00  0.00    +0.009 A 
ATOM     15  C   UNL     1      -3.577   0.428  -3.506  0.00  0.00    +0.046 A 
ATOM     16  C   UNL     1      -3.463   1.810  -3.527  0.00  0.00    +0.117 A 
ATOM     17  C   UNL     1      -3.081   2.490  -2.379  0.00  0.00    +0.046 A 
ATOM     18  C   UNL     1      -2.814   1.789  -1.219  0.00  0.00    +0.009 A 
BRANCH  16  19
ATOM     19  O   UNL     1      -3.726   2.497  -4.669  0.00  0.00    -0.507 OA
ATOM     20  H   UNL     1      -3.635   3.594  -4.685  0.00  0.00    +0.292 HD
ENDBRANCH  16  19
ENDBRANCH   7  13
BRANCH   8  21
ATOM     21  C   UNL     1       0.006  -0.421  -0.249  0.00  0.00    +0.202 C 
ATOM     22  O   UNL     1       0.631  -0.631  -1.274  0.00  0.00    -0.286 OA
BRANCH  21  23
ATOM     23  C   UNL     1       0.561   0.463   0.779  0.00  0.00    +0.059 A 
ATOM     24  C   UNL     1       1.802   1.086   0.822  0.00  0.00    +0.019 A 
ATOM     25  C   UNL     1       2.069   1.870   1.915  0.00  0.00    +0.008 A 
ATOM     26  C   UNL     1       1.125   1.999   2.886  0.00  0.00    +0.046 A 
ATOM     27  S   UNL     1      -0.185   1.027   2.299  0.00  0.00    -0.093 S 
ENDBRANCH  21  23
ENDBRANCH   8  21
BRANCH   1  28
ATOM     28  S   UNL     1      -9.380  -1.478   0.952  0.00  0.00    -0.092 S 
BRANCH  28  29
ATOM     29  C   UNL     1     -10.077   0.196   0.908  0.00  0.00    +0.111 C 
BRANCH  29  33
ATOM     30  C   UNL     1     -14.311  -0.010   1.431  0.00  0.00    +0.000 A 
ATOM     31  C   UNL     1     -13.484   0.113   2.531  0.00  0.00    +0.000 A 
ATOM     32  C   UNL     1     -12.114   0.180   2.362  0.00  0.00    +0.004 A 
ATOM     33  C   UNL     1     -11.570   0.123   1.092  0.00  0.00    -0.037 A 
ATOM     34  C   UNL     1     -12.398   0.005  -0.009  0.00  0.00    +0.004 A 
ATOM     35  C   UNL     1     -13.768  -0.066   0.161  0.00  0.00    +0.000 A 
ENDBRANCH  29  33
ENDBRANCH  28  29
ENDBRANCH   1  28
TORSDOF 7
