REMARK  Name = ZINC35226652
REMARK  11 active torsions:
REMARK  status: ('A' for Active; 'I' for Inactive)
REMARK    1  A    between atoms: C_1  and  C_2
REMARK    2  A    between atoms: C_2  and  C_4
REMARK    3  A    between atoms: C_2  and  N_12
REMARK    4  A    between atoms: C_4  and  C_5
REMARK    5  A    between atoms: C_5  and  C_6
REMARK    6  A    between atoms: C_13  and  C_15
REMARK    7  A    between atoms: C_18  and  C_20
REMARK    8  A    between atoms: C_20  and  N_21
REMARK    9  A    between atoms: N_21  and  C_22
REMARK   10  A    between atoms: N_21  and  C_30
REMARK   11  A    between atoms: C_22  and  C_23
REMARK                            x       y       z     vdW  Elec       q    Type
REMARK                         _______ _______ _______ _____ _____    ______ ____
ROOT
ATOM      1  C   UNL     1       2.570  -1.829   2.348  0.00  0.00    +0.189 A 
ATOM      2  C   UNL     1       3.869  -1.429   2.477  0.00  0.00    +0.055 A 
ATOM      3  C   UNL     1       4.213  -1.607   3.826  0.00  0.00    +0.043 A 
ATOM      4  C   UNL     1       3.124  -2.103   4.453  0.00  0.00    +0.090 A 
ATOM      5  O   UNL     1       2.134  -2.231   3.560  0.00  0.00    -0.457 OA
ENDROOT
BRANCH   1   7
ATOM      6  N   UNL     1       0.503  -2.238   1.121  0.00  0.00    -0.306 N 
ATOM      7  C   UNL     1       1.784  -1.819   1.109  0.00  0.00    +0.280 C 
ATOM      8  O   UNL     1       2.289  -1.433   0.072  0.00  0.00    -0.267 OA
ATOM      9  H   UNL     1       0.101  -2.546   1.948  0.00  0.00    +0.149 HD
BRANCH   6  11
ATOM     10  C   UNL     1      -0.891  -0.840  -0.323  0.00  0.00    +0.028 C 
ATOM     11  C   UNL     1      -0.282  -2.228  -0.117  0.00  0.00    +0.071 C 
BRANCH  11  12
ATOM     12  C   UNL     1      -1.401  -3.267  -0.019  0.00  0.00    +0.026 C 
BRANCH  12  13
ATOM     13  C   UNL     1      -0.791  -4.668   0.062  0.00  0.00    +0.037 C 
BRANCH  13  14
ATOM     14  C   UNL     1      -1.893  -5.691   0.158  0.00  0.00    -0.047 A 
ATOM     15  C   UNL     1      -2.374  -6.075   1.396  0.00  0.00    +0.003 A 
ATOM     16  C   UNL     1      -3.385  -7.014   1.484  0.00  0.00    +0.000 A 
ATOM     17  C   UNL     1      -3.915  -7.568   0.334  0.00  0.00    +0.000 A 
ATOM     18  C   UNL     1      -3.435  -7.184  -0.904  0.00  0.00    +0.000 A 
ATOM     19  C   UNL     1      -2.427  -6.242  -0.992  0.00  0.00    +0.003 A 
ENDBRANCH  13  14
ENDBRANCH  12  13
ENDBRANCH  11  12
ENDBRANCH   6  11
ENDBRANCH   1   7
BRANCH   4  20
ATOM     20  C   UNL     1       3.035  -2.450   5.917  0.00  0.00    -0.002 C 
BRANCH  20  21
ATOM     21  N   UNL     1       3.102  -1.220   6.716  0.00  0.00    +0.389 N 
ATOM     22  H   UNL     1       3.904  -0.677   6.433  0.00  0.00    -0.080 HD
BRANCH  21  23
ATOM     23  C   UNL     1       1.879  -0.433   6.507  0.00  0.00    -0.068 C 
ATOM     24  C   UNL     1       0.658  -1.350   6.611  0.00  0.00    -0.015 C 
ATOM     25  C   UNL     1      -0.615  -0.531   6.393  0.00  0.00    -0.002 C 
ATOM     26  C   UNL     1      -0.577   0.113   5.005  0.00  0.00    -0.000 C 
ATOM     27  C   UNL     1       0.644   1.030   4.902  0.00  0.00    -0.002 C 
ATOM     28  C   UNL     1       1.917   0.210   5.120  0.00  0.00    -0.015 C 
ENDBRANCH  21  23
BRANCH  21  29
ATOM     29  C   UNL     1       3.224  -1.566   8.139  0.00  0.00    -0.042 C 
BRANCH  29  30
ATOM     30  C   UNL     1       3.468  -0.315   8.942  0.00  0.00    -0.064 A 
ATOM     31  C   UNL     1       4.749   0.192   9.059  0.00  0.00    +0.003 A 
ATOM     32  C   UNL     1       4.973   1.340   9.795  0.00  0.00    +0.015 A 
ATOM     33  C   UNL     1       3.916   1.982  10.414  0.00  0.00    +0.018 A 
ATOM     34  C   UNL     1       2.635   1.475  10.297  0.00  0.00    +0.015 A 
ATOM     35  C   UNL     1       2.410   0.329   9.556  0.00  0.00    +0.003 A 
ATOM     36 BR   UNL     1       4.223   3.553  11.422  0.00  0.00    -0.050 Br
ENDBRANCH  29  30
ENDBRANCH  21  29
ENDBRANCH  20  21
ENDBRANCH   4  20
TORSDOF 10
