REMARK  Name = ZINC49946941
REMARK  10 active torsions:
REMARK  status: ('A' for Active; 'I' for Inactive)
REMARK    1  A    between atoms: C_1  and  C_2
REMARK    2  A    between atoms: C_5  and  C_31
REMARK    3  A    between atoms: C_6  and  C_8
REMARK    4  A    between atoms: C_10  and  C_27
REMARK    5  A    between atoms: C_11  and  C_16
REMARK    6  A    between atoms: C_16  and  N_17
REMARK    7  A    between atoms: C_19  and  C_26
REMARK    8  A    between atoms: C_22  and  C_25
REMARK    9  A    between atoms: C_27  and  O_29
REMARK   10  A    between atoms: O_29  and  C_30
REMARK                            x       y       z     vdW  Elec       q    Type
REMARK                         _______ _______ _______ _____ _____    ______ ____
ROOT
ATOM      1  C   UNL     1       0.207  -3.043   3.012  0.00  0.00    +0.144 C 
ATOM      2  C   UNL     1      -1.174  -3.632   3.213  0.00  0.00    +0.079 C 
ATOM      3  C   UNL     1      -1.917  -3.157   4.237  0.00  0.00    +0.038 C 
ATOM      4  N   UNL     1      -1.438  -2.179   5.061  0.00  0.00    -0.271 N 
ATOM      5  C   UNL     1      -0.226  -1.625   4.928  0.00  0.00    +0.304 C 
ATOM      6  O   UNL     1       0.113  -0.759   5.712  0.00  0.00    -0.252 OA
ATOM      7  N   UNL     1       0.629  -1.994   3.955  0.00  0.00    -0.288 N 
ATOM      8  H   UNL     1      -2.007  -1.869   5.782  0.00  0.00    +0.156 HD
ATOM      9  H   UNL     1       1.502  -1.578   3.878  0.00  0.00    +0.151 HD
ENDROOT
BRANCH   1  15
ATOM     10  C   UNL     1      -2.102  -1.110  -0.985  0.00  0.00    +0.044 C 
ATOM     11  C   UNL     1      -0.836  -1.545  -0.293  0.00  0.00    -0.050 A 
ATOM     12  C   UNL     1       0.382  -1.417  -0.934  0.00  0.00    +0.003 A 
ATOM     13  C   UNL     1       1.543  -1.815  -0.299  0.00  0.00    +0.004 A 
ATOM     14  C   UNL     1       1.486  -2.342   0.978  0.00  0.00    -0.045 A 
ATOM     15  C   UNL     1       0.269  -2.469   1.620  0.00  0.00    -0.019 A 
ATOM     16  C   UNL     1      -0.892  -2.066   0.986  0.00  0.00    +0.009 A 
ATOM     17  C   UNL     1       2.752  -2.777   1.670  0.00  0.00    +0.044 C 
ENDBRANCH   1  15
BRANCH   2  18
ATOM     18  C   UNL     1      -1.669  -4.645   2.359  0.00  0.00    +0.339 C 
ATOM     19  O   UNL     1      -1.233  -5.778   2.441  0.00  0.00    -0.245 OA
BRANCH  18  20
ATOM     20  O   UNL     1      -2.626  -4.354   1.452  0.00  0.00    -0.465 OA
ATOM     21  C   UNL     1      -3.156  -5.445   0.697  0.00  0.00    +0.280 C 
ENDBRANCH  18  20
ENDBRANCH   2  18
BRANCH   3  22
ATOM     22  C   UNL     1      -3.297  -3.715   4.472  0.00  0.00    +0.135 C 
BRANCH  22  23
ATOM     23  N   UNL     1      -3.329  -4.411   5.766  0.00  0.00    -0.296 NA
ATOM     24  C   UNL     1      -2.466  -5.598   5.746  0.00  0.00    +0.088 C 
ATOM     25  C   UNL     1      -2.410  -6.213   7.146  0.00  0.00    +0.000 C 
ATOM     26  C   UNL     1      -3.825  -6.596   7.587  0.00  0.00    +0.009 C 
ATOM     27  C   UNL     1      -4.716  -5.351   7.552  0.00  0.00    +0.000 C 
ATOM     28  C   UNL     1      -4.705  -4.761   6.140  0.00  0.00    +0.088 C 
ATOM     29  C   UNL     1      -6.147  -5.736   7.934  0.00  0.00    +0.009 C 
ATOM     30  C   UNL     1      -1.527  -7.462   7.121  0.00  0.00    +0.009 C 
ENDBRANCH  22  23
ENDBRANCH   3  22
TORSDOF 5
