REMARK  Name = ZINC57832536
REMARK  8 active torsions:
REMARK  status: ('A' for Active; 'I' for Inactive)
REMARK    1  A    between atoms: C_8  and  S_10
REMARK    2  A    between atoms: S_10  and  C_11
REMARK    3  A    between atoms: C_11  and  C_12
REMARK    4  A    between atoms: C_15  and  C_18
REMARK    5  A    between atoms: N_20  and  C_21
REMARK    6  A    between atoms: C_26  and  S_27
REMARK    7  A    between atoms: S_27  and  C_28
REMARK    8  A    between atoms: C_28  and  C_29
REMARK                            x       y       z     vdW  Elec       q    Type
REMARK                         _______ _______ _______ _____ _____    ______ ____
ROOT
ATOM      1  C   UNL     1       5.353  -5.706  -0.077  0.00  0.00    -0.037 A 
ATOM      2  C   UNL     1       5.599  -6.360   1.117  0.00  0.00    +0.005 A 
ATOM      3  C   UNL     1       6.081  -7.652   1.112  0.00  0.00    +0.013 A 
ATOM      4  C   UNL     1       6.321  -8.300  -0.101  0.00  0.00    +0.037 A 
ATOM      5  C   UNL     1       6.071  -7.634  -1.302  0.00  0.00    +0.013 A 
ATOM      6  C   UNL     1       5.583  -6.344  -1.283  0.00  0.00    +0.005 A 
ENDROOT
BRANCH   4   7
ATOM      7  C   UNL     1       6.839  -9.684  -0.114  0.00  0.00    +0.248 C 
ATOM      8  O   UNL     1       7.057 -10.262   0.934  0.00  0.00    -0.270 OA
ATOM      9  N   UNL     1       7.069 -10.307  -1.286  0.00  0.00    -0.281 N 
ATOM     10  H   UNL     1       6.835  -9.872  -2.121  0.00  0.00    +0.155 HD
BRANCH   9  11
ATOM     11  C   UNL     1       7.648 -11.583  -1.300  0.00  0.00    +0.047 A 
ATOM     12  C   UNL     1       7.354 -12.490  -0.294  0.00  0.00    +0.024 A 
ATOM     13  C   UNL     1       7.926 -13.749  -0.309  0.00  0.00    +0.002 A 
ATOM     14  C   UNL     1       8.792 -14.107  -1.326  0.00  0.00    +0.001 A 
ATOM     15  C   UNL     1       9.091 -13.210  -2.334  0.00  0.00    +0.016 A 
ATOM     16  C   UNL     1       8.517 -11.946  -2.330  0.00  0.00    +0.030 A 
BRANCH  16  17
ATOM     17  S   UNL     1       8.890 -10.802  -3.617  0.00  0.00    -0.114 S 
BRANCH  17  18
ATOM     18  C   UNL     1      10.033 -11.709  -4.693  0.00  0.00    +0.169 C 
BRANCH  18  19
ATOM     19  C   UNL     1      10.437 -10.832  -5.850  0.00  0.00    +0.221 C 
ATOM     20  O   UNL     1       9.996  -9.706  -5.940  0.00  0.00    -0.275 OA
ATOM     21  N   UNL     1      11.287 -11.299  -6.786  0.00  0.00    -0.329 N 
ATOM     22  H   UNL     1      11.640 -12.200  -6.714  0.00  0.00    +0.145 HD
ATOM     23  H   UNL     1      11.547 -10.735  -7.530  0.00  0.00    +0.145 HD
ENDBRANCH  18  19
ENDBRANCH  17  18
ENDBRANCH  16  17
ENDBRANCH   9  11
ENDBRANCH   4   7
BRANCH   1  24
ATOM     24  C   UNL     1       4.826  -4.294  -0.065  0.00  0.00    +0.111 C 
BRANCH  24  25
ATOM     25  S   UNL     1       3.012  -4.325  -0.049  0.00  0.00    -0.094 S 
BRANCH  25  33
ATOM     26  C   UNL     1      -0.107   1.311   0.012  0.00  0.00    +0.002 A 
ATOM     27  C   UNL     1       1.060   2.061   0.006  0.00  0.00    +0.001 A 
ATOM     28  C   UNL     1       2.282   1.412  -0.008  0.00  0.00    +0.017 A 
ATOM     29  C   UNL     1       2.320   0.040  -0.017  0.00  0.00    +0.040 A 
ATOM     30  C   UNL     1       1.153  -0.756  -0.012  0.00  0.00    +0.079 A 
ATOM     31  C   UNL     1      -0.078  -0.059   0.003  0.00  0.00    +0.029 A 
ATOM     32  N   UNL     1       1.355  -2.092  -0.021  0.00  0.00    -0.233 NA
ATOM     33  C   UNL     1       2.557  -2.623  -0.035  0.00  0.00    +0.136 A 
ATOM     34  S   UNL     1       3.611  -1.180  -0.035  0.00  0.00    -0.061 S 
ENDBRANCH  25  33
ENDBRANCH  24  25
ENDBRANCH   1  24
TORSDOF 8
