REMARK  Name = ZINC64609757
REMARK  5 active torsions:
REMARK  status: ('A' for Active; 'I' for Inactive)
REMARK    1  A    between atoms: C_4  and  C_7
REMARK    2  A    between atoms: C_7  and  C_12
REMARK    3  A    between atoms: C_12  and  N_13
REMARK    4  A    between atoms: C_14  and  C_16
REMARK    5  A    between atoms: C_25  and  C_27
REMARK                            x       y       z     vdW  Elec       q    Type
REMARK                         _______ _______ _______ _____ _____    ______ ____
ROOT
ATOM      1  C   UNL     1       6.079   3.310   2.048  0.00  0.00    +0.082 C 
ATOM      2  C   UNL     1       5.504   4.240   3.119  0.00  0.00    +0.021 C 
ATOM      3  C   UNL     1       7.002   3.933   3.096  0.00  0.00    -0.015 C 
ATOM      4  C   UNL     1       7.949   5.046   2.640  0.00  0.00    +0.026 C 
ATOM      5  C   UNL     1       8.371   5.868   3.864  0.00  0.00    +0.108 C 
ATOM      6  N   UNL     1       8.863   4.952   4.902  0.00  0.00    -0.299 N 
ATOM      7  C   UNL     1       7.986   3.878   5.385  0.00  0.00    +0.108 C 
ATOM      8  C   UNL     1       7.556   3.016   4.191  0.00  0.00    +0.026 C 
ATOM      9  C   UNL     1      10.105   5.097   5.405  0.00  0.00    +0.242 C 
ATOM     10  O   UNL     1      10.823   5.986   5.000  0.00  0.00    -0.273 OA
ENDROOT
BRANCH   9  11
ATOM     11  C   UNL     1      10.601   4.152   6.469  0.00  0.00    +0.190 C 
ATOM     12  C   UNL     1       9.748   4.274   7.712  0.00  0.00    +0.016 C 
ATOM     13  C   UNL     1      10.582   4.673   8.700  0.00  0.00    -0.001 A 
ATOM     14  C   UNL     1      10.368   4.964  10.123  0.00  0.00    +0.048 A 
ATOM     15  C   UNL     1      11.422   5.352  10.879  0.00  0.00    +0.124 A 
ATOM     16  C   UNL     1      12.711   5.482  10.336  0.00  0.00    +0.040 A 
ATOM     17  C   UNL     1      12.983   5.231   9.039  0.00  0.00    +0.029 A 
ATOM     18  C   UNL     1      11.950   4.817   8.153  0.00  0.00    +0.043 A 
ATOM     19  N   UNL     1      11.962   4.519   6.875  0.00  0.00    -0.370 N 
ATOM     20  F   UNL     1      11.230   5.622  12.189  0.00  0.00    -0.205 F 
ATOM     21  H   UNL     1      12.740   4.537   6.296  0.00  0.00    +0.161 HD
ENDBRANCH   9  11
BRANCH   1  23
ATOM     22  N   UNL     1       6.641   0.931   1.667  0.00  0.00    -0.314 N 
ATOM     23  C   UNL     1       5.780   1.838   2.171  0.00  0.00    +0.217 C 
ATOM     24  O   UNL     1       4.765   1.470   2.723  0.00  0.00    -0.275 OA
ATOM     25  H   UNL     1       7.452   1.226   1.226  0.00  0.00    +0.149 HD
BRANCH  22  26
ATOM     26  C   UNL     1       6.349  -0.499   1.786  0.00  0.00    +0.115 C 
BRANCH  26  27
ATOM     27  C   UNL     1       7.518  -1.306   1.217  0.00  0.00    +0.011 C 
ATOM     28  C   UNL     1       8.824  -0.938   1.950  0.00  0.00    +0.013 C 
ATOM     29  C   UNL     1       8.963  -2.022   3.047  0.00  0.00    +0.001 C 
ATOM     30  C   UNL     1       8.462  -3.300   2.329  0.00  0.00    +0.001 C 
ATOM     31  C   UNL     1       7.288  -2.809   1.458  0.00  0.00    +0.013 C 
BRANCH  27  35
ATOM     32  C   UNL     1       7.921  -0.542  -2.967  0.00  0.00    +0.000 A 
ATOM     33  C   UNL     1       8.856  -1.324  -2.314  0.00  0.00    +0.000 A 
ATOM     34  C   UNL     1       8.725  -1.571  -0.960  0.00  0.00    +0.004 A 
ATOM     35  C   UNL     1       7.660  -1.036  -0.259  0.00  0.00    -0.040 A 
ATOM     36  C   UNL     1       6.726  -0.254  -0.912  0.00  0.00    +0.004 A 
ATOM     37  C   UNL     1       6.856  -0.008  -2.266  0.00  0.00    +0.000 A 
ENDBRANCH  27  35
ENDBRANCH  26  27
ENDBRANCH  22  26
ENDBRANCH   1  23
TORSDOF 5
