REMARK  Name = ZINC13033809
REMARK  10 active torsions:
REMARK  status: ('A' for Active; 'I' for Inactive)
REMARK    1  A    between atoms: C_1  and  O_2
REMARK    2  A    between atoms: O_2  and  C_3
REMARK    3  A    between atoms: C_6  and  C_9
REMARK    4  A    between atoms: C_9  and  N_10
REMARK    5  A    between atoms: C_11  and  C_15
REMARK    6  A    between atoms: C_15  and  N_66
REMARK    7  A    between atoms: C_16  and  C_17
REMARK    8  A    between atoms: C_16  and  N_66
REMARK    9  A    between atoms: C_23  and  C_24
REMARK   10  A    between atoms: C_23  and  N_66
REMARK                            x       y       z     vdW  Elec       q    Type
REMARK                         _______ _______ _______ _____ _____    ______ ____
ROOT
ATOM      1  N   UNL     1       2.088  -2.583  -1.761  0.00  0.00    +0.390 N 
ATOM      2  H   UNL     1       1.331  -2.506  -2.450  0.00  0.00    -0.080 HD
ENDROOT
BRANCH   1   3
ATOM      3  C   UNL     1       1.679  -1.894  -0.519  0.00  0.00    +0.001 C 
BRANCH   3   5
ATOM      4  N   UNL     1       0.043  -0.031  -1.117  0.00  0.00    -0.227 N 
ATOM      5  C   UNL     1       1.285  -0.478  -0.854  0.00  0.00    +0.135 A 
ATOM      6  N   UNL     1       2.085   0.555  -0.948  0.00  0.00    -0.115 NA
ATOM      7  N   UNL     1       1.371   1.584  -1.252  0.00  0.00    -0.023 NA
ATOM      8  N   UNL     1       0.137   1.234  -1.355  0.00  0.00    -0.044 NA
BRANCH   4   9
ATOM      9  C   UNL     1      -1.185  -0.830  -1.130  0.00  0.00    +0.182 C 
BRANCH   9  13
ATOM     10  C   UNL     1      -2.127  -1.929  -5.151  0.00  0.00    +0.120 A 
ATOM     11  C   UNL     1      -1.415  -2.802  -4.340  0.00  0.00    +0.046 A 
ATOM     12  C   UNL     1      -1.112  -2.444  -3.041  0.00  0.00    +0.009 A 
ATOM     13  C   UNL     1      -1.517  -1.218  -2.548  0.00  0.00    -0.026 A 
ATOM     14  C   UNL     1      -2.232  -0.348  -3.352  0.00  0.00    +0.009 A 
ATOM     15  C   UNL     1      -2.532  -0.699  -4.654  0.00  0.00    +0.046 A 
BRANCH  10  17
ATOM     16  C   UNL     1      -3.161  -1.331  -7.206  0.00  0.00    +0.277 C 
ATOM     17  O   UNL     1      -2.426  -2.278  -6.430  0.00  0.00    -0.495 OA
ENDBRANCH  10  17
ENDBRANCH   9  13
ENDBRANCH   4   9
ENDBRANCH   3   5
ENDBRANCH   1   3
BRANCH   1  18
ATOM     18  C   UNL     1       3.305  -1.951  -2.312  0.00  0.00    -0.040 C 
BRANCH  18  19
ATOM     19  C   UNL     1       3.482  -2.404  -3.738  0.00  0.00    -0.046 A 
ATOM     20  C   UNL     1       4.196  -3.558  -4.025  0.00  0.00    +0.005 A 
ATOM     21  C   UNL     1       4.329  -3.939  -5.351  0.00  0.00    +0.020 A 
ATOM     22  C   UNL     1       3.758  -3.156  -6.337  0.00  0.00    +0.111 A 
ATOM     23  N   UNL     1       3.090  -2.063  -6.028  0.00  0.00    -0.263 NA
ATOM     24  C   UNL     1       2.939  -1.673  -4.777  0.00  0.00    +0.112 A 
ENDBRANCH  18  19
ENDBRANCH   1  18
BRANCH   1  25
ATOM     25  C   UNL     1       2.342  -4.013  -1.485  0.00  0.00    -0.036 C 
BRANCH  25  26
ATOM     26  C   UNL     1       1.019  -4.725  -1.371  0.00  0.00    +0.001 A 
ATOM     27  C   UNL     1       0.474  -5.318  -2.464  0.00  0.00    +0.017 A 
ATOM     28  C   UNL     1      -0.808  -6.006  -2.320  0.00  0.00    +0.002 A 
ATOM     29  C   UNL     1      -1.415  -6.639  -3.412  0.00  0.00    +0.059 A 
ATOM     30  C   UNL     1      -2.627  -7.276  -3.247  0.00  0.00    +0.163 A 
ATOM     31  C   UNL     1      -3.250  -7.291  -1.996  0.00  0.00    +0.164 A 
ATOM     32  C   UNL     1      -2.657  -6.668  -0.911  0.00  0.00    +0.075 A 
ATOM     33  C   UNL     1      -1.437  -6.021  -1.060  0.00  0.00    +0.053 A 
ATOM     34  N   UNL     1      -0.833  -5.394   0.010  0.00  0.00    -0.322 N 
ATOM     35  H   UNL     1      -1.267  -5.404   0.877  0.00  0.00    +0.169 HD
ATOM     36  C   UNL     1       0.349  -4.768  -0.132  0.00  0.00    +0.251 A 
ATOM     37  O   UNL     1       0.853  -4.225   0.836  0.00  0.00    -0.268 OA
ATOM     38  O   UNL     1      -4.444  -7.921  -1.824  0.00  0.00    -0.485 OA
ATOM     39  C   UNL     1      -5.193  -8.214  -3.008  0.00  0.00    +0.270 C 
ATOM     40  C   UNL     1      -4.241  -8.833  -4.040  0.00  0.00    +0.270 C 
ATOM     41  O   UNL     1      -3.206  -7.884  -4.320  0.00  0.00    -0.485 OA
ENDBRANCH  25  26
ENDBRANCH   1  25
TORSDOF 9
