REMARK  Name = ZINC04947791
REMARK  3 active torsions:
REMARK  status: ('A' for Active; 'I' for Inactive)
REMARK    1  A    between atoms: C_1  and  C_2
REMARK    2  A    between atoms: C_14  and  C_17
REMARK    3  A    between atoms: C_18  and  C_19
REMARK                            x       y       z     vdW  Elec       q    Type
REMARK                         _______ _______ _______ _____ _____    ______ ____
ROOT
ATOM      1  C   UNL     1       1.041   1.499   1.954  0.00  0.00    +0.008 C 
ATOM      2  C   UNL     1       1.465   1.012   0.567  0.00  0.00    -0.009 C 
ATOM      3  C   UNL     1       2.902   1.458   0.283  0.00  0.00    +0.008 C 
ATOM      4  C   UNL     1       3.419   0.770  -0.981  0.00  0.00    +0.037 C 
ATOM      5  C   UNL     1       2.421   1.000  -2.110  0.00  0.00    -0.023 A 
ATOM      6  C   UNL     1       1.150   1.376  -1.845  0.00  0.00    -0.004 A 
ATOM      7  S   UNL     1       0.375   1.520  -3.434  0.00  0.00    -0.078 S 
ATOM      8  C   UNL     1       1.705   1.089  -4.421  0.00  0.00    +0.080 A 
ATOM      9  C   UNL     1       2.749   0.840  -3.518  0.00  0.00    +0.068 A 
ATOM     10  C   UNL     1       4.058   0.434  -4.080  0.00  0.00    +0.248 C 
ATOM     11  O   UNL     1       4.975   0.083  -3.360  0.00  0.00    -0.270 OA
ATOM     12  N   UNL     1       4.193   0.471  -5.422  0.00  0.00    -0.289 N 
ATOM     13  C   UNL     1       3.220   1.098  -6.311  0.00  0.00    +0.197 C 
ATOM     14  N   UNL     1       1.851   0.973  -5.780  0.00  0.00    -0.316 N 
ATOM     15  C   UNL     1       0.540   1.616  -0.499  0.00  0.00    +0.046 C 
ATOM     16  H   UNL     1       4.977   0.059  -5.816  0.00  0.00    +0.151 HD
ATOM     17  H   UNL     1       1.091   0.817  -6.362  0.00  0.00    +0.149 HD
ENDROOT
BRANCH  13  18
ATOM     18  C   UNL     1       3.559   2.559  -6.462  0.00  0.00    +0.034 C 
ATOM     19  C   UNL     1       3.836   3.055  -7.662  0.00  0.00    +0.022 C 
ATOM     20 BR   UNL     1       3.591   3.684  -4.943  0.00  0.00    -0.051 Br
BRANCH  19  21
ATOM     21  C   UNL     1       4.001   4.513  -7.838  0.00  0.00    -0.024 A 
ATOM     22  C   UNL     1       3.214   5.401  -7.103  0.00  0.00    +0.008 A 
ATOM     23  C   UNL     1       3.377   6.761  -7.268  0.00  0.00    +0.001 A 
ATOM     24  C   UNL     1       4.310   7.245  -8.168  0.00  0.00    +0.000 A 
ATOM     25  C   UNL     1       5.089   6.370  -8.903  0.00  0.00    +0.001 A 
ATOM     26  C   UNL     1       4.940   5.008  -8.744  0.00  0.00    +0.008 A 
ENDBRANCH  19  21
ENDBRANCH  13  18
TORSDOF 2
