REMARK  Name = ZINC64626436
REMARK  13 active torsions:
REMARK  status: ('A' for Active; 'I' for Inactive)
REMARK    1  A    between atoms: C_1  and  C_2
REMARK    2  A    between atoms: C_10  and  C_12
REMARK    3  A    between atoms: C_12  and  N_13
REMARK    4  A    between atoms: N_13  and  C_14
REMARK    5  A    between atoms: N_13  and  C_18
REMARK    6  A    between atoms: C_14  and  C_15
REMARK    7  A    between atoms: C_15  and  O_16
REMARK    8  A    between atoms: O_16  and  C_17
REMARK    9  A    between atoms: C_18  and  C_19
REMARK   10  A    between atoms: N_22  and  C_25
REMARK   11  A    between atoms: C_25  and  C_26
REMARK   12  A    between atoms: C_31  and  O_32
REMARK   13  A    between atoms: O_32  and  C_33
REMARK                            x       y       z     vdW  Elec       q    Type
REMARK                         _______ _______ _______ _____ _____    ______ ____
ROOT
ATOM      1  N   UNL     1       1.262  -1.599   3.212  0.00  0.00    -0.298 NA
ENDROOT
BRANCH   1   2
ATOM      2  C   UNL     1       1.652  -0.823   2.028  0.00  0.00    +0.113 C 
BRANCH   2  12
ATOM      3  C   UNL     1       1.371   1.378  -0.335  0.00  0.00    +0.042 C 
ATOM      4  C   UNL     1       0.892  -0.046  -0.218  0.00  0.00    -0.040 C 
ATOM      5  C   UNL     1       0.750  -0.942  -1.221  0.00  0.00    -0.001 A 
ATOM      6  C   UNL     1       0.989  -0.861  -2.667  0.00  0.00    +0.010 A 
ATOM      7  C   UNL     1       0.749  -1.949  -3.434  0.00  0.00    +0.001 A 
ATOM      8  C   UNL     1       0.279  -3.149  -2.883  0.00  0.00    +0.002 A 
ATOM      9  C   UNL     1       0.036  -3.300  -1.564  0.00  0.00    +0.026 A 
ATOM     10  C   UNL     1       0.254  -2.220  -0.664  0.00  0.00    +0.043 A 
ATOM     11  N   UNL     1       0.096  -2.119   0.633  0.00  0.00    -0.376 N 
ATOM     12  C   UNL     1       0.479  -0.765   1.047  0.00  0.00    +0.120 C 
ATOM     13  H   UNL     1      -0.219  -2.824   1.221  0.00  0.00    +0.160 HD
ENDBRANCH   2  12
ENDBRANCH   1   2
BRANCH   1  14
ATOM     14  C   UNL     1       1.547  -3.028   3.022  0.00  0.00    +0.112 C 
BRANCH  14  15
ATOM     15  C   UNL     1       3.053  -3.229   2.844  0.00  0.00    +0.174 C 
BRANCH  15  16
ATOM     16  O   UNL     1       3.719  -2.960   4.080  0.00  0.00    -0.382 OA
ATOM     17  C   UNL     1       5.144  -3.017   3.996  0.00  0.00    +0.194 C 
ENDBRANCH  15  16
ENDBRANCH  14  15
ENDBRANCH   1  14
BRANCH   1  18
ATOM     18  C   UNL     1       1.925  -1.087   4.419  0.00  0.00    +0.088 C 
BRANCH  18  19
ATOM     19  C   UNL     1       1.424  -1.858   5.642  0.00  0.00    -0.000 C 
ATOM     20  C   UNL     1      -0.065  -1.573   5.854  0.00  0.00    -0.014 C 
ATOM     21  C   UNL     1      -0.540  -2.284   7.123  0.00  0.00    -0.078 C 
ATOM     22  N   UNL     1       0.223  -1.793   8.277  0.00  0.00    +0.382 N 
ATOM     23  C   UNL     1       1.643  -2.127   8.114  0.00  0.00    -0.078 C 
ATOM     24  C   UNL     1       2.201  -1.410   6.883  0.00  0.00    -0.014 C 
ATOM     25  H   UNL     1       0.120  -0.791   8.346  0.00  0.00    -0.081 HD
BRANCH  22  26
ATOM     26  C   UNL     1      -0.289  -2.420   9.503  0.00  0.00    -0.039 C 
BRANCH  26  27
ATOM     27  C   UNL     1       0.409  -1.827  10.700  0.00  0.00    -0.022 A 
ATOM     28  C   UNL     1       1.456  -2.504  11.295  0.00  0.00    +0.005 A 
ATOM     29  C   UNL     1       2.096  -1.961  12.394  0.00  0.00    +0.000 A 
ATOM     30  C   UNL     1       1.691  -0.739  12.899  0.00  0.00    +0.004 A 
ATOM     31  C   UNL     1       0.645  -0.058  12.307  0.00  0.00    +0.046 A 
ATOM     32  C   UNL     1       0.004  -0.599  11.201  0.00  0.00    +0.121 A 
BRANCH  32  33
ATOM     33  O   UNL     1      -1.022   0.071  10.614  0.00  0.00    -0.495 OA
ATOM     34  C   UNL     1      -1.385   1.331  11.184  0.00  0.00    +0.277 C 
ENDBRANCH  32  33
ENDBRANCH  26  27
ENDBRANCH  22  26
ENDBRANCH  18  19
ENDBRANCH   1  18
TORSDOF 10
