REMARK  Name = ZINC64031820
REMARK  2 active torsions:
REMARK  status: ('A' for Active; 'I' for Inactive)
REMARK    1  A    between atoms: C_8  and  C_28
REMARK    2  A    between atoms: C_16  and  C_18
REMARK                            x       y       z     vdW  Elec       q    Type
REMARK                         _______ _______ _______ _____ _____    ______ ____
ROOT
ATOM      1  C   UNL     1      -0.143   1.360  -1.506  0.00  0.00    +0.001 A 
ATOM      2  C   UNL     1       1.022   2.131  -1.387  0.00  0.00    +0.002 A 
ATOM      3  C   UNL     1       2.225   1.592  -1.097  0.00  0.00    +0.026 A 
ATOM      4  C   UNL     1       2.358   0.191  -0.900  0.00  0.00    +0.043 A 
ATOM      5  N   UNL     1       3.405  -0.557  -0.635  0.00  0.00    -0.375 N 
ATOM      6  C   UNL     1       2.957  -1.936  -0.457  0.00  0.00    +0.133 C 
ATOM      7  C   UNL     1       3.665  -2.896  -1.420  0.00  0.00    +0.151 C 
ATOM      8  N   UNL     1       2.890  -4.146  -1.463  0.00  0.00    -0.289 N 
ATOM      9  C   UNL     1       1.489  -4.141  -1.899  0.00  0.00    +0.113 C 
ATOM     10  C   UNL     1       0.677  -3.198  -0.992  0.00  0.00    +0.052 C 
ATOM     11  C   UNL     1       1.481  -1.930  -0.817  0.00  0.00    -0.035 C 
ATOM     12  C   UNL     1       1.143  -0.649  -1.027  0.00  0.00    -0.001 A 
ATOM     13  C   UNL     1      -0.127   0.018  -1.341  0.00  0.00    +0.010 A 
ATOM     14  C   UNL     1       3.472  -5.306  -1.099  0.00  0.00    +0.241 C 
ATOM     15  O   UNL     1       4.652  -5.331  -0.821  0.00  0.00    -0.273 OA
ATOM     16  H   UNL     1       4.322  -0.247  -0.569  0.00  0.00    +0.160 HD
ENDROOT
BRANCH  14  17
ATOM     17  C   UNL     1       2.656  -6.571  -1.036  0.00  0.00    +0.207 C 
ATOM     18  C   UNL     1       2.069  -6.764   0.344  0.00  0.00    -0.001 C 
ATOM     19  C   UNL     1       2.785  -7.674   0.980  0.00  0.00    +0.127 C 
ATOM     20  C   UNL     1       2.488  -8.136   2.392  0.00  0.00    +0.076 C 
ATOM     21  C   UNL     1       1.570  -7.110   3.062  0.00  0.00    +0.008 C 
ATOM     22  C   UNL     1       0.378  -6.818   2.144  0.00  0.00    +0.005 C 
ATOM     23  C   UNL     1       0.871  -6.047   0.914  0.00  0.00    +0.036 C 
ATOM     24  O   UNL     1       3.811  -8.125   0.215  0.00  0.00    -0.410 OA
ATOM     25  N   UNL     1       3.525  -7.767  -1.191  0.00  0.00    -0.140 NA
ATOM     26  H   UNL     1       4.372  -7.537  -1.688  0.00  0.00    +0.168 HD
ENDBRANCH  14  17
BRANCH   7  27
ATOM     27  C   UNL     1       3.726  -2.285  -2.796  0.00  0.00    +0.064 A 
ATOM     28  C   UNL     1       4.946  -2.158  -3.433  0.00  0.00    +0.025 A 
ATOM     29  C   UNL     1       4.992  -1.595  -4.699  0.00  0.00    +0.003 A 
ATOM     30  C   UNL     1       3.803  -1.179  -5.279  0.00  0.00    +0.020 A 
ATOM     31  C   UNL     1       2.621  -1.338  -4.581  0.00  0.00    +0.111 A 
ATOM     32  N   UNL     1       2.615  -1.883  -3.381  0.00  0.00    -0.258 NA
ENDBRANCH   7  27
TORSDOF 2
