REMARK  Name = ZINC65096812
REMARK  6 active torsions:
REMARK  status: ('A' for Active; 'I' for Inactive)
REMARK    1  A    between atoms: C_1  and  C_2
REMARK    2  A    between atoms: C_5  and  C_8
REMARK    3  A    between atoms: C_8  and  C_9
REMARK    4  A    between atoms: N_11  and  C_12
REMARK    5  A    between atoms: C_12  and  C_14
REMARK    6  A    between atoms: C_12  and  C_20
REMARK                            x       y       z     vdW  Elec       q    Type
REMARK                         _______ _______ _______ _____ _____    ______ ____
ROOT
ATOM      1  C   UNL     1       3.129  -6.569  -0.026  0.00  0.00    +0.190 C 
ENDROOT
BRANCH   1   2
ATOM      2  C   UNL     1       3.042  -7.998  -0.497  0.00  0.00    +0.245 C 
ATOM      3  O   UNL     1       1.995  -8.432  -0.927  0.00  0.00    -0.273 OA
ATOM      4  N   UNL     1       4.129  -8.793  -0.441  0.00  0.00    -0.269 N 
ATOM      5  C   UNL     1       5.380  -8.307   0.157  0.00  0.00    +0.114 C 
ATOM      6  C   UNL     1       6.532  -8.720  -0.768  0.00  0.00    +0.024 C 
ATOM      7  C   UNL     1       6.601 -10.246  -0.821  0.00  0.00    +0.038 C 
ATOM      8  C   UNL     1       5.249 -10.823  -1.149  0.00  0.00    -0.026 A 
ATOM      9  C   UNL     1       4.082 -10.100  -0.945  0.00  0.00    +0.039 A 
ATOM     10  C   UNL     1       2.849 -10.665  -1.248  0.00  0.00    +0.024 A 
ATOM     11  C   UNL     1       2.783 -11.950  -1.749  0.00  0.00    +0.002 A 
ATOM     12  C   UNL     1       3.944 -12.674  -1.949  0.00  0.00    +0.000 A 
ATOM     13  C   UNL     1       5.175 -12.109  -1.658  0.00  0.00    +0.005 A 
ENDBRANCH   1   2
BRANCH   1  14
ATOM     14  C   UNL     1       2.906  -6.516   1.463  0.00  0.00    -0.018 A 
ATOM     15  C   UNL     1       1.626  -6.626   1.974  0.00  0.00    +0.006 A 
ATOM     16  C   UNL     1       1.421  -6.577   3.340  0.00  0.00    +0.000 A 
ATOM     17  C   UNL     1       2.495  -6.420   4.195  0.00  0.00    +0.000 A 
ATOM     18  C   UNL     1       3.775  -6.312   3.684  0.00  0.00    +0.000 A 
ATOM     19  C   UNL     1       3.981  -6.364   2.318  0.00  0.00    +0.006 A 
ENDBRANCH   1  14
BRANCH   1  22
ATOM     20  C   UNL     1       2.278  -4.441  -0.854  0.00  0.00    +0.218 C 
ATOM     21  O   UNL     1       3.282  -3.908  -0.430  0.00  0.00    -0.275 OA
ATOM     22  N   UNL     1       2.105  -5.769  -0.703  0.00  0.00    -0.300 N 
ATOM     23  H   UNL     1       1.302  -6.195  -1.042  0.00  0.00    +0.150 HD
BRANCH  20  24
ATOM     24  C   UNL     1       1.225  -3.618  -1.549  0.00  0.00    +0.130 C 
BRANCH  24  29
ATOM     25  C   UNL     1       2.883   1.916  -1.693  0.00  0.00    +0.044 C 
ATOM     26  C   UNL     1       2.451   0.473  -1.656  0.00  0.00    -0.050 A 
ATOM     27  C   UNL     1       2.797  -0.380  -2.687  0.00  0.00    +0.003 A 
ATOM     28  C   UNL     1       2.401  -1.703  -2.653  0.00  0.00    +0.004 A 
ATOM     29  C   UNL     1       1.658  -2.175  -1.586  0.00  0.00    -0.039 A 
ATOM     30  C   UNL     1       1.312  -1.323  -0.554  0.00  0.00    +0.004 A 
ATOM     31  C   UNL     1       1.712   0.000  -0.587  0.00  0.00    +0.003 A 
ENDBRANCH  24  29
ENDBRANCH  20  24
ENDBRANCH   1  22
TORSDOF 5
