REMARK  Name = ZINC29770410
REMARK  11 active torsions:
REMARK  status: ('A' for Active; 'I' for Inactive)
REMARK    1  A    between atoms: C_1  and  C_2
REMARK    2  A    between atoms: C_5  and  S_13
REMARK    3  A    between atoms: N_6  and  C_7
REMARK    4  A    between atoms: S_13  and  C_14
REMARK    5  A    between atoms: C_14  and  C_15
REMARK    6  A    between atoms: N_17  and  C_18
REMARK    7  A    between atoms: C_18  and  C_19
REMARK    8  A    between atoms: C_19  and  C_21
REMARK    9  A    between atoms: C_19  and  N_29
REMARK   10  A    between atoms: C_24  and  O_27
REMARK   11  A    between atoms: O_27  and  C_28
REMARK                            x       y       z     vdW  Elec       q    Type
REMARK                         _______ _______ _______ _____ _____    ______ ____
ROOT
ATOM      1  C   UNL     1      -0.701  -2.722  -2.508  0.00  0.00    +0.223 C 
ATOM      2  O   UNL     1      -0.934  -2.127  -3.538  0.00  0.00    -0.275 OA
ATOM      3  N   UNL     1      -0.364  -2.039  -1.396  0.00  0.00    -0.316 N 
ATOM      4  H   UNL     1      -0.152  -2.579  -0.461  0.00  0.00    +0.149 HD
ENDROOT
BRANCH   1   5
ATOM      5  C   UNL     1      -0.786  -4.226  -2.470  0.00  0.00    +0.173 C 
BRANCH   5   6
ATOM      6  S   UNL     1      -1.256  -4.845  -4.105  0.00  0.00    -0.077 S 
BRANCH   6  11
ATOM      7  C   UNL     1      -1.700 -10.124  -4.526  0.00  0.00    +0.088 C 
ATOM      8  C   UNL     1      -1.469  -8.738  -3.981  0.00  0.00    +0.131 A 
ATOM      9  N   UNL     1      -1.129  -8.435  -2.760  0.00  0.00    -0.134 NA
ATOM     10  N   UNL     1      -1.016  -7.161  -2.636  0.00  0.00    -0.122 NA
ATOM     11  C   UNL     1      -1.280  -6.577  -3.782  0.00  0.00    +0.192 A 
ATOM     12  N   UNL     1      -1.583  -7.565  -4.674  0.00  0.00    -0.303 N 
BRANCH  12  13
ATOM     13  C   UNL     1      -1.951  -7.403  -6.083  0.00  0.00    +0.091 C 
ATOM     14  C   UNL     1      -0.811  -6.709  -6.831  0.00  0.00    +0.025 C 
ATOM     15  C   UNL     1      -1.196  -6.539  -8.302  0.00  0.00    +0.002 C 
ATOM     16  C   UNL     1      -2.464  -5.689  -8.403  0.00  0.00    +0.000 C 
ATOM     17  C   UNL     1      -3.604  -6.383  -7.655  0.00  0.00    +0.002 C 
ATOM     18  C   UNL     1      -3.220  -6.553  -6.184  0.00  0.00    +0.025 C 
ENDBRANCH  12  13
ENDBRANCH   6  11
ENDBRANCH   5   6
ENDBRANCH   1   5
BRANCH   3  19
ATOM     19  C   UNL     1      -0.281  -0.577  -1.432  0.00  0.00    +0.093 C 
BRANCH  19  20
ATOM     20  C   UNL     1      -0.050  -0.044  -0.017  0.00  0.00    -0.020 C 
BRANCH  20  21
ATOM     21  N   UNL     1      -1.188  -0.409   0.837  0.00  0.00    +0.385 N 
ATOM     22  C   UNL     1      -0.911  -1.641   1.585  0.00  0.00    -0.078 C 
ATOM     23  C   UNL     1      -2.054  -1.911   2.567  0.00  0.00    -0.019 C 
ATOM     24  C   UNL     1      -3.366  -2.047   1.791  0.00  0.00    -0.004 C 
ATOM     25  C   UNL     1      -3.607  -0.769   0.982  0.00  0.00    -0.019 C 
ATOM     26  C   UNL     1      -2.420  -0.533   0.046  0.00  0.00    -0.078 C 
ATOM     27  H   UNL     1      -1.339   0.401   1.566  0.00  0.00    -0.081 HD
ENDBRANCH  20  21
BRANCH  20  28
ATOM     28  C   UNL     1       0.085   1.457  -0.061  0.00  0.00    -0.059 A 
ATOM     29  C   UNL     1      -1.038   2.245  -0.228  0.00  0.00    +0.005 A 
ATOM     30  C   UNL     1      -0.919   3.621  -0.263  0.00  0.00    +0.046 A 
ATOM     31  C   UNL     1       0.331   4.211  -0.142  0.00  0.00    +0.120 A 
ATOM     32  C   UNL     1       1.457   3.417   0.021  0.00  0.00    +0.046 A 
ATOM     33  C   UNL     1       1.331   2.042   0.061  0.00  0.00    +0.005 A 
BRANCH  31  34
ATOM     34  O   UNL     1       0.453   5.564  -0.182  0.00  0.00    -0.495 OA
ATOM     35  C   UNL     1      -0.749   6.318  -0.352  0.00  0.00    +0.277 C 
ENDBRANCH  31  34
ENDBRANCH  20  28
ENDBRANCH  19  20
ENDBRANCH   3  19
TORSDOF 9
