REMARK  Name = ZINC08077484
REMARK  10 active torsions:
REMARK  status: ('A' for Active; 'I' for Inactive)
REMARK    1  A    between atoms: C_1  and  C_2
REMARK    2  A    between atoms: C_2  and  C_3
REMARK    3  A    between atoms: C_2  and  C_4
REMARK    4  A    between atoms: C_2  and  C_5
REMARK    5  A    between atoms: C_12  and  C_14
REMARK    6  A    between atoms: N_16  and  C_17
REMARK    7  A    between atoms: C_17  and  C_18
REMARK    8  A    between atoms: C_18  and  C_19
REMARK    9  A    between atoms: C_22  and  S_25
REMARK   10  A    between atoms: S_25  and  N_28
REMARK                            x       y       z     vdW  Elec       q    Type
REMARK                         _______ _______ _______ _____ _____    ______ ____
ROOT
ATOM      1  C   UNL     1      -0.014   1.213   0.009  0.00  0.00    +0.251 C 
ATOM      2  O   UNL     1       0.002  -0.004   0.002  0.00  0.00    -0.270 OA
ATOM      3  N   UNL     1      -1.191   1.871   0.018  0.00  0.00    -0.311 N 
ATOM      4  H   UNL     1      -1.204   2.841   0.023  0.00  0.00    +0.149 HD
ENDROOT
BRANCH   1  11
ATOM      5  C   UNL     1       5.886   3.191  -0.500  0.00  0.00    -0.001 C 
ATOM      6  C   UNL     1       5.558   4.422   0.351  0.00  0.00    +0.009 C 
ATOM      7  C   UNL     1       4.147   4.909  -0.009  0.00  0.00    +0.043 C 
ATOM      8  C   UNL     1       3.225   3.729  -0.008  0.00  0.00    -0.006 A 
ATOM      9  C   UNL     1       3.578   2.409  -0.019  0.00  0.00    -0.036 A 
ATOM     10  C   UNL     1       2.543   1.487  -0.014  0.00  0.00    +0.024 A 
ATOM     11  C   UNL     1       1.245   1.963   0.001  0.00  0.00    +0.074 A 
ATOM     12  S   UNL     1       1.503   3.729  -0.000  0.00  0.00    -0.088 S 
ATOM     13  C   UNL     1       5.048   1.999  -0.036  0.00  0.00    +0.040 C 
BRANCH   5  15
ATOM     14  C   UNL     1       7.703   1.632  -1.213  0.00  0.00    +0.011 C 
ATOM     15  C   UNL     1       7.372   2.855  -0.355  0.00  0.00    -0.035 C 
ATOM     16  C   UNL     1       8.212   4.046  -0.818  0.00  0.00    +0.011 C 
ATOM     17  C   UNL     1       7.685   2.549   1.111  0.00  0.00    +0.011 C 
ENDBRANCH   5  15
ENDBRANCH   1  11
BRANCH   3  18
ATOM     18  C   UNL     1      -2.449   1.121   0.020  0.00  0.00    +0.109 C 
BRANCH  18  19
ATOM     19  C   UNL     1      -3.626   2.099   0.031  0.00  0.00    +0.054 C 
BRANCH  19  20
ATOM     20  C   UNL     1      -4.920   1.328   0.033  0.00  0.00    -0.046 A 
ATOM     21  C   UNL     1      -5.523   0.986  -1.164  0.00  0.00    +0.005 A 
ATOM     22  C   UNL     1      -6.708   0.275  -1.162  0.00  0.00    +0.029 A 
ATOM     23  C   UNL     1      -7.296  -0.086   0.036  0.00  0.00    +0.105 A 
ATOM     24  C   UNL     1      -6.696   0.261   1.232  0.00  0.00    +0.029 A 
ATOM     25  C   UNL     1      -5.508   0.968   1.231  0.00  0.00    +0.005 A 
BRANCH  23  26
ATOM     26  S   UNL     1      -8.809  -0.989   0.038  0.00  0.00    +0.056 S 
ATOM     27  O   UNL     1      -8.882  -1.662  -1.211  0.00  0.00    -0.153 OA
ATOM     28  O   UNL     1      -8.869  -1.677   1.280  0.00  0.00    -0.153 OA
BRANCH  26  29
ATOM     29  N   UNL     1     -10.040   0.119   0.051  0.00  0.00    -0.204 NA
ATOM     30  H   UNL     1      -9.838   1.068   0.056  0.00  0.00    +0.144 HD
ATOM     31  H   UNL     1     -10.962  -0.181   0.054  0.00  0.00    +0.144 HD
ENDBRANCH  26  29
ENDBRANCH  23  26
ENDBRANCH  19  20
ENDBRANCH  18  19
ENDBRANCH   3  18
TORSDOF 7
