REMARK  Name = ZINC26772096
REMARK  10 active torsions:
REMARK  status: ('A' for Active; 'I' for Inactive)
REMARK    1  A    between atoms: C_1  and  C_2
REMARK    2  A    between atoms: C_2  and  N_3
REMARK    3  A    between atoms: N_3  and  C_4
REMARK    4  A    between atoms: N_3  and  C_6
REMARK    5  A    between atoms: C_4  and  C_5
REMARK    6  A    between atoms: C_9  and  C_12
REMARK    7  A    between atoms: C_20  and  O_34
REMARK    8  A    between atoms: C_24  and  C_26
REMARK    9  A    between atoms: C_26  and  C_27
REMARK   10  A    between atoms: C_27  and  C_28
REMARK                            x       y       z     vdW  Elec       q    Type
REMARK                         _______ _______ _______ _____ _____    ______ ____
ROOT
ATOM      1  C   UNL     1      -0.002   1.497   0.060  0.00  0.00    +0.112 C 
ATOM      2  C   UNL     1      -0.657   2.025   1.339  0.00  0.00    +0.046 C 
ATOM      3  C   UNL     1       0.063   1.448   2.560  0.00  0.00    +0.008 C 
ATOM      4  C   UNL     1      -0.600   1.971   3.836  0.00  0.00    +0.001 C 
ATOM      5  C   UNL     1      -0.518   3.498   3.865  0.00  0.00    +0.003 C 
ATOM      6  C   UNL     1      -1.235   4.074   2.642  0.00  0.00    +0.035 C 
ATOM      7  C   UNL     1      -0.565   3.552   1.368  0.00  0.00    +0.072 C 
ATOM      8  C   UNL     1       0.906   3.976   1.362  0.00  0.00    +0.054 C 
ATOM      9  C   UNL     1       1.574   3.474   0.078  0.00  0.00    +0.111 C 
ATOM     10  N   UNL     1       1.367   2.022  -0.024  0.00  0.00    -0.294 N 
ATOM     11  C   UNL     1       2.413   1.190  -0.192  0.00  0.00    +0.216 C 
ATOM     12  O   UNL     1       2.223   0.010  -0.402  0.00  0.00    -0.276 OA
ENDROOT
BRANCH   1  16
ATOM     13  C   UNL     1       0.107  -2.774   0.163  0.00  0.00    +0.030 A 
ATOM     14  C   UNL     1      -0.625  -2.120  -0.820  0.00  0.00    +0.023 A 
ATOM     15  C   UNL     1      -0.658  -0.740  -0.850  0.00  0.00    +0.007 A 
ATOM     16  C   UNL     1       0.036  -0.009   0.097  0.00  0.00    -0.027 A 
ATOM     17  C   UNL     1       0.770  -0.657   1.073  0.00  0.00    +0.007 A 
ATOM     18  C   UNL     1       0.803  -2.037   1.113  0.00  0.00    +0.023 A 
BRANCH  13  19
ATOM     19  N   UNL     1       0.142  -4.170   0.198  0.00  0.00    -0.330 N 
BRANCH  19  21
ATOM     20  C   UNL     1       0.024  -5.106   2.454  0.00  0.00    +0.024 C 
ATOM     21  C   UNL     1       0.914  -4.858   1.235  0.00  0.00    +0.102 C 
ENDBRANCH  19  21
BRANCH  19  22
ATOM     22  C   UNL     1      -0.594  -4.946  -0.804  0.00  0.00    +0.102 C 
ATOM     23  C   UNL     1       0.310  -5.208  -2.011  0.00  0.00    +0.024 C 
ENDBRANCH  19  22
ENDBRANCH  13  19
ENDBRANCH   1  16
BRANCH   7  24
ATOM     24  O   UNL     1      -1.224   4.097   0.224  0.00  0.00    -0.388 OA
ATOM     25  H   UNL     1      -1.259   5.187   0.076  0.00  0.00    +0.210 HD
ENDBRANCH   7  24
BRANCH  11  26
ATOM     26  C   UNL     1       3.821   1.724  -0.119  0.00  0.00    +0.100 C 
BRANCH  26  27
ATOM     27  C   UNL     1       4.812   0.580  -0.342  0.00  0.00    +0.044 C 
BRANCH  27  28
ATOM     28  C   UNL     1       6.220   1.114  -0.269  0.00  0.00    -0.047 A 
ATOM     29  C   UNL     1       6.848   1.566  -1.414  0.00  0.00    +0.003 A 
ATOM     30  C   UNL     1       8.137   2.060  -1.346  0.00  0.00    +0.000 A 
ATOM     31  C   UNL     1       8.802   2.093  -0.134  0.00  0.00    +0.000 A 
ATOM     32  C   UNL     1       8.176   1.635   1.010  0.00  0.00    +0.000 A 
ATOM     33  C   UNL     1       6.885   1.146   0.943  0.00  0.00    +0.003 A 
ENDBRANCH  27  28
ENDBRANCH  26  27
ENDBRANCH  11  26
TORSDOF 8
