REMARK  Name = ZINC07022664
REMARK  6 active torsions:
REMARK  status: ('A' for Active; 'I' for Inactive)
REMARK    1  A    between atoms: C_1  and  C_2
REMARK    2  A    between atoms: C_5  and  C_8
REMARK    3  A    between atoms: C_10  and  C_13
REMARK    4  A    between atoms: C_13  and  O_14
REMARK    5  A    between atoms: O_14  and  C_15
REMARK    6  A    between atoms: C_20  and  C_21
REMARK                            x       y       z     vdW  Elec       q    Type
REMARK                         _______ _______ _______ _____ _____    ______ ____
ROOT
ATOM      1  C   UNL     1      -2.298  -0.367   0.011  0.00  0.00    +0.285 C 
ENDROOT
BRANCH   1   4
ATOM      2  C   UNL     1      -5.049  -2.809   0.012  0.00  0.00    +0.109 A 
ATOM      3  N   UNL     1      -3.841  -2.262   0.008  0.00  0.00    -0.241 NA
ATOM      4  C   UNL     1      -3.684  -0.959   0.014  0.00  0.00    +0.086 A 
ATOM      5  C   UNL     1      -4.773  -0.145   0.029  0.00  0.00    +0.074 A 
ATOM      6  S   UNL     1      -6.090  -1.356   0.024  0.00  0.00    -0.075 S 
BRANCH   2  11
ATOM      7  C   UNL     1      -6.539  -8.368  -0.011  0.00  0.00    +0.044 C 
ATOM      8  C   UNL     1      -6.149  -6.912  -0.005  0.00  0.00    -0.050 A 
ATOM      9  C   UNL     1      -7.129  -5.936   0.005  0.00  0.00    +0.004 A 
ATOM     10  C   UNL     1      -6.779  -4.602   0.011  0.00  0.00    +0.011 A 
ATOM     11  C   UNL     1      -5.432  -4.238   0.006  0.00  0.00    +0.007 A 
ATOM     12  C   UNL     1      -4.447  -5.227  -0.010  0.00  0.00    +0.011 A 
ATOM     13  C   UNL     1      -4.811  -6.558  -0.010  0.00  0.00    +0.004 A 
ENDBRANCH   2  11
ENDBRANCH   1   4
BRANCH   1  14
ATOM     14  O   UNL     1      -2.390   1.059   0.019  0.00  0.00    -0.485 OA
BRANCH  14  15
ATOM     15  C   UNL     1      -1.224   1.752   0.017  0.00  0.00    +0.133 A 
ATOM     16  C   UNL     1      -0.013   1.076   0.008  0.00  0.00    +0.048 A 
ATOM     17  C   UNL     1       1.174   1.781   0.000  0.00  0.00    +0.023 A 
ATOM     18  C   UNL     1       1.166   3.168   0.007  0.00  0.00    +0.042 A 
ATOM     19  C   UNL     1      -0.029   3.855   0.023  0.00  0.00    +0.036 A 
ATOM     20  C   UNL     1      -1.237   3.153   0.031  0.00  0.00    +0.079 A 
ATOM     21 CL   UNL     1       2.666   4.041  -0.003  0.00  0.00    -0.084 Cl
BRANCH  20  22
ATOM     22  C   UNL     1      -2.519   3.882   0.047  0.00  0.00    +0.245 C 
ATOM     23  O   UNL     1      -3.568   3.268   0.054  0.00  0.00    -0.270 OA
ATOM     24  N   UNL     1      -2.528   5.230   0.054  0.00  0.00    -0.325 N 
ATOM     25  H   UNL     1      -1.691   5.721   0.049  0.00  0.00    +0.145 HD
ATOM     26  H   UNL     1      -3.371   5.710   0.065  0.00  0.00    +0.145 HD
ENDBRANCH  20  22
ENDBRANCH  14  15
ENDBRANCH   1  14
TORSDOF 5
