REMARK  Name = ZINC38657190
REMARK  13 active torsions:
REMARK  status: ('A' for Active; 'I' for Inactive)
REMARK    1  A    between atoms: C_1  and  C_2
REMARK    2  A    between atoms: C_2  and  O_3
REMARK    3  A    between atoms: O_3  and  C_4
REMARK    4  A    between atoms: C_9  and  C_10
REMARK    5  A    between atoms: C_10  and  O_12
REMARK    6  A    between atoms: O_12  and  C_13
REMARK    7  A    between atoms: C_20  and  N_36
REMARK    8  A    between atoms: C_21  and  C_34
REMARK    9  A    between atoms: C_22  and  C_24
REMARK   10  A    between atoms: C_27  and  O_32
REMARK   11  A    between atoms: C_29  and  O_30
REMARK   12  A    between atoms: O_30  and  C_31
REMARK   13  A    between atoms: O_32  and  C_33
REMARK                            x       y       z     vdW  Elec       q    Type
REMARK                         _______ _______ _______ _____ _____    ______ ____
ROOT
ATOM      1  C   UNL     1       3.105  -0.992  -5.407  0.00  0.00    +0.135 A 
ATOM      2  C   UNL     1       2.997   0.353  -5.083  0.00  0.00    +0.047 A 
ATOM      3  C   UNL     1       3.507   1.311  -5.936  0.00  0.00    +0.012 A 
ATOM      4  C   UNL     1       4.128   0.936  -7.115  0.00  0.00    +0.008 A 
ATOM      5  C   UNL     1       4.239  -0.406  -7.443  0.00  0.00    +0.138 A 
ATOM      6  C   UNL     1       3.731  -1.371  -6.583  0.00  0.00    +0.093 A 
ATOM      7  O   UNL     1       4.843  -0.793  -8.593  0.00  0.00    -0.441 OA
ATOM      8  C   UNL     1       4.997   0.085  -9.598  0.00  0.00    +0.199 C 
ATOM      9  C   UNL     1       4.930   1.423  -9.397  0.00  0.00    +0.098 C 
ATOM     10  C   UNL     1       4.678   1.996  -8.031  0.00  0.00    +0.101 C 
ENDROOT
BRANCH  10  11
ATOM     11  C   UNL     1       5.972   2.523  -7.465  0.00  0.00    +0.007 A 
ATOM     12  C   UNL     1       7.039   1.667  -7.270  0.00  0.00    +0.012 A 
ATOM     13  C   UNL     1       8.226   2.146  -6.751  0.00  0.00    +0.046 A 
ATOM     14  C   UNL     1       8.350   3.490  -6.425  0.00  0.00    +0.124 A 
ATOM     15  C   UNL     1       7.281   4.350  -6.620  0.00  0.00    +0.091 A 
ATOM     16  C   UNL     1       6.093   3.868  -7.146  0.00  0.00    +0.128 A 
BRANCH  16  17
ATOM     17  O   UNL     1       5.045   4.710  -7.344  0.00  0.00    -0.495 OA
ATOM     18  C   UNL     1       5.240   6.082  -6.993  0.00  0.00    +0.277 C 
ENDBRANCH  16  17
BRANCH  14  19
ATOM     19  O   UNL     1       9.518   3.961  -5.914  0.00  0.00    -0.495 OA
ATOM     20  C   UNL     1      10.577   3.017  -5.740  0.00  0.00    +0.277 C 
ENDBRANCH  14  19
ENDBRANCH  10  11
BRANCH   8  21
ATOM     21  N   UNL     1       5.229  -0.387 -10.866  0.00  0.00    -0.328 N 
ATOM     22  H   UNL     1       5.280  -1.343 -11.025  0.00  0.00    +0.145 HD
ATOM     23  H   UNL     1       5.343   0.234 -11.602  0.00  0.00    +0.145 HD
ENDBRANCH   8  21
BRANCH   9  24
ATOM     24  C   UNL     1       5.102   2.308 -10.509  0.00  0.00    +0.101 C 
ATOM     25  N   UNL     1       5.238   3.011 -11.392  0.00  0.00    -0.191 NA
ENDBRANCH   9  24
BRANCH   1  26
ATOM     26  O   UNL     1       2.603  -1.936  -4.568  0.00  0.00    -0.422 OA
BRANCH  26  27
ATOM     27  C   UNL     1       3.468  -2.616  -3.790  0.00  0.00    +0.348 C 
ATOM     28  O   UNL     1       4.664  -2.441  -3.914  0.00  0.00    -0.244 OA
BRANCH  27  34
ATOM     29  C   UNL     1       3.861  -4.281  -1.976  0.00  0.00    +0.134 A 
ATOM     30  C   UNL     1       3.374  -5.173  -1.032  0.00  0.00    +0.046 A 
ATOM     31  C   UNL     1       2.014  -5.366  -0.897  0.00  0.00    +0.004 A 
ATOM     32  C   UNL     1       1.125  -4.671  -1.701  0.00  0.00    +0.001 A 
ATOM     33  C   UNL     1       1.589  -3.781  -2.644  0.00  0.00    +0.018 A 
ATOM     34  C   UNL     1       2.964  -3.572  -2.788  0.00  0.00    +0.101 A 
BRANCH  29  35
ATOM     35  O   UNL     1       5.197  -4.091  -2.109  0.00  0.00    -0.491 OA
BRANCH  35  37
ATOM     36  C   UNL     1       7.510  -4.503  -1.543  0.00  0.00    +0.048 C 
ATOM     37  C   UNL     1       6.049  -4.849  -1.248  0.00  0.00    +0.226 C 
ENDBRANCH  35  37
ENDBRANCH  29  35
ENDBRANCH  27  34
ENDBRANCH  26  27
ENDBRANCH   1  26
TORSDOF 10
