REMARK  Name = ZINC04669949
REMARK  4 active torsions:
REMARK  status: ('A' for Active; 'I' for Inactive)
REMARK    1  A    between atoms: C_1  and  C_2
REMARK    2  A    between atoms: C_7  and  N_12
REMARK    3  A    between atoms: C_9  and  C_11
REMARK    4  A    between atoms: C_13  and  C_15
REMARK                            x       y       z     vdW  Elec       q    Type
REMARK                         _______ _______ _______ _____ _____    ______ ____
ROOT
ATOM      1  C   UNL     1       2.785  -4.239   3.627  0.00  0.00    +0.078 C 
ATOM      2  C   UNL     1       3.929  -3.280   3.966  0.00  0.00    +0.032 C 
ATOM      3  C   UNL     1       4.646  -3.772   5.227  0.00  0.00    +0.108 C 
ATOM      4  N   UNL     1       5.067  -5.164   5.019  0.00  0.00    -0.303 N 
ATOM      5  C   UNL     1       6.377  -5.535   5.211  0.00  0.00    +0.174 A 
ATOM      6  N   UNL     1       6.873  -6.743   4.952  0.00  0.00    -0.327 N 
ATOM      7  H   UNL     1       6.374  -7.498   4.601  0.00  0.00    +0.169 HD
ATOM      8  C   UNL     1       8.207  -6.741   5.266  0.00  0.00    +0.065 A 
ATOM      9  C   UNL     1       9.212  -7.701   5.203  0.00  0.00    +0.028 A 
ATOM     10  C   UNL     1      10.492  -7.380   5.603  0.00  0.00    +0.002 A 
ATOM     11  C   UNL     1      10.785  -6.106   6.067  0.00  0.00    +0.002 A 
ATOM     12  C   UNL     1       9.801  -5.144   6.135  0.00  0.00    +0.028 A 
ATOM     13  C   UNL     1       8.503  -5.451   5.736  0.00  0.00    +0.065 A 
ATOM     14  N   UNL     1       7.335  -4.738   5.678  0.00  0.00    -0.327 N 
ATOM     15  H   UNL     1       7.224  -3.809   5.936  0.00  0.00    +0.169 HD
ATOM     16  C   UNL     1       4.062  -6.152   4.602  0.00  0.00    +0.108 C 
ATOM     17  C   UNL     1       3.352  -5.633   3.348  0.00  0.00    +0.032 C 
ENDROOT
BRANCH   1  19
ATOM     18  N   UNL     1       1.471  -2.526   2.420  0.00  0.00    -0.312 N 
ATOM     19  C   UNL     1       2.056  -3.740   2.406  0.00  0.00    +0.216 C 
ATOM     20  O   UNL     1       1.996  -4.431   1.411  0.00  0.00    -0.276 OA
ATOM     21  H   UNL     1       1.520  -1.974   3.216  0.00  0.00    +0.149 HD
BRANCH  18  27
ATOM     22  C   UNL     1      -0.019   1.526   0.010  0.00  0.00    +0.008 C 
ATOM     23  C   UNL     1       0.002  -0.004   0.002  0.00  0.00    -0.009 C 
ATOM     24  C   UNL     1      -1.433  -0.534   0.013  0.00  0.00    +0.003 C 
ATOM     25  C   UNL     1      -1.413  -2.063   0.004  0.00  0.00    +0.002 C 
ATOM     26  C   UNL     1      -0.673  -2.570   1.244  0.00  0.00    +0.022 C 
ATOM     27  C   UNL     1       0.763  -2.041   1.233  0.00  0.00    +0.076 C 
ATOM     28  C   UNL     1       0.742  -0.511   1.242  0.00  0.00    +0.009 C 
ATOM     29  C   UNL     1       0.026  -0.018   2.500  0.00  0.00    +0.009 C 
ENDBRANCH  18  27
ENDBRANCH   1  19
TORSDOF 2
