REMARK  Name = ZINC65742912
REMARK  12 active torsions:
REMARK  status: ('A' for Active; 'I' for Inactive)
REMARK    1  A    between atoms: C_1  and  C_2
REMARK    2  A    between atoms: C_2  and  C_4
REMARK    3  A    between atoms: C_2  and  C_36
REMARK    4  A    between atoms: C_4  and  C_5
REMARK    5  A    between atoms: C_5  and  C_6
REMARK    6  A    between atoms: C_6  and  C_7
REMARK    7  A    between atoms: C_7  and  C_9
REMARK    8  A    between atoms: C_7  and  C_10
REMARK    9  A    between atoms: C_16  and  C_35
REMARK   10  A    between atoms: C_27  and  C_34
REMARK   11  A    between atoms: C_30  and  O_33
REMARK   12  A    between atoms: C_36  and  O_37
REMARK                            x       y       z     vdW  Elec       q    Type
REMARK                         _______ _______ _______ _____ _____    ______ ____
ROOT
ATOM      1  C   UNL     1      -5.726  -0.740  -2.514  0.00  0.00    -0.002 C 
ATOM      2  C   UNL     1      -6.522   0.059  -1.452  0.00  0.00    +0.004 C 
ATOM      3  C   UNL     1      -7.720   0.707  -2.198  0.00  0.00    +0.005 C 
ATOM      4  C   UNL     1      -7.902  -0.207  -3.415  0.00  0.00    +0.006 C 
ATOM      5  C   UNL     1      -6.428  -0.463  -3.839  0.00  0.00    -0.025 C 
ATOM      6  C   UNL     1      -6.431  -1.588  -4.854  0.00  0.00    +0.007 C 
ATOM      7  C   UNL     1      -7.192  -1.085  -6.093  0.00  0.00    +0.005 C 
ATOM      8  C   UNL     1      -8.605  -0.642  -5.731  0.00  0.00    +0.010 C 
ATOM      9  C   UNL     1      -8.621   0.405  -4.601  0.00  0.00    +0.067 C 
ATOM     10  C   UNL     1     -10.068   0.681  -4.248  0.00  0.00    +0.160 C 
ATOM     11  O   UNL     1     -10.463   0.658  -3.101  0.00  0.00    -0.292 OA
ATOM     12  C   UNL     1     -10.966   0.978  -5.370  0.00  0.00    +0.046 C 
ATOM     13  C   UNL     1     -10.644   0.594  -6.606  0.00  0.00    -0.058 C 
ATOM     14  C   UNL     1      -9.349  -0.145  -6.956  0.00  0.00    -0.007 C 
ATOM     15  C   UNL     1      -9.682  -1.336  -7.862  0.00  0.00    +0.014 C 
ATOM     16  C   UNL     1     -10.476  -0.857  -9.077  0.00  0.00    +0.032 C 
ATOM     17  C   UNL     1     -11.813  -0.275  -8.610  0.00  0.00    +0.119 C 
ATOM     18  C   UNL     1     -11.604   0.947  -7.727  0.00  0.00    +0.062 C 
ATOM     19  C   UNL     1      -8.415   0.780  -7.739  0.00  0.00    +0.016 C 
ATOM     20  C   UNL     1      -5.848   0.802  -4.475  0.00  0.00    +0.012 C 
ENDROOT
BRANCH   1  21
ATOM     21  C   UNL     1      -4.277  -0.252  -2.569  0.00  0.00    -0.010 C 
ATOM     22  C   UNL     1      -3.495  -1.090  -3.582  0.00  0.00    +0.008 C 
BRANCH  21  23
ATOM     23  C   UNL     1      -3.638  -0.395  -1.187  0.00  0.00    +0.003 C 
BRANCH  23  24
ATOM     24  C   UNL     1      -2.231   0.207  -1.210  0.00  0.00    +0.001 C 
BRANCH  24  25
ATOM     25  C   UNL     1      -1.592   0.064   0.172  0.00  0.00    +0.005 C 
BRANCH  25  27
ATOM     26  C   UNL     1      -0.280   2.173  -0.100  0.00  0.00    +0.010 C 
ATOM     27  C   UNL     1      -0.185   0.666   0.148  0.00  0.00    +0.011 C 
BRANCH  27  28
ATOM     28  C   UNL     1       0.501   0.413   1.492  0.00  0.00    +0.159 C 
BRANCH  28  29
ATOM     29  O   UNL     1       1.853   0.872   1.431  0.00  0.00    -0.395 OA
ATOM     30  H   UNL     1       2.350   0.742   2.250  0.00  0.00    +0.209 HD
ENDBRANCH  28  29
ENDBRANCH  27  28
ENDBRANCH  25  27
ENDBRANCH  24  25
ENDBRANCH  23  24
ENDBRANCH  21  23
ENDBRANCH   1  21
BRANCH  17  31
ATOM     31  O   UNL     1     -12.606   0.072  -9.747  0.00  0.00    -0.391 OA
ATOM     32  H   UNL     1     -13.469   0.448  -9.524  0.00  0.00    +0.210 HD
ENDBRANCH  17  31
TORSDOF 8
