REMARK  Name = ZINC62498110
REMARK  4 active torsions:
REMARK  status: ('A' for Active; 'I' for Inactive)
REMARK    1  A    between atoms: C_1  and  N_2
REMARK    2  A    between atoms: C_4  and  C_14
REMARK    3  A    between atoms: C_11  and  O_13
REMARK    4  A    between atoms: C_14  and  C_15
REMARK                            x       y       z     vdW  Elec       q    Type
REMARK                         _______ _______ _______ _____ _____    ______ ____
ROOT
ATOM      1  C   UNL     1      -0.018   1.461   0.010  0.00  0.00    +0.129 C 
ATOM      2  N   UNL     1       0.002  -0.004   0.002  0.00  0.00    -0.327 N 
ATOM      3  C   UNL     1      -1.248  -0.783   0.004  0.00  0.00    +0.149 C 
ATOM      4  C   UNL     1      -1.070  -1.947  -0.983  0.00  0.00    +0.195 C 
ATOM      5  O   UNL     1       0.054  -2.729  -0.574  0.00  0.00    -0.485 OA
ATOM      6  C   UNL     1       1.215  -2.077  -0.301  0.00  0.00    +0.145 A 
ATOM      7  C   UNL     1       1.216  -0.716  -0.013  0.00  0.00    +0.072 A 
ATOM      8  C   UNL     1       2.406  -0.063   0.262  0.00  0.00    +0.030 A 
ATOM      9  C   UNL     1       3.598  -0.763   0.243  0.00  0.00    +0.047 A 
ATOM     10  C   UNL     1       3.601  -2.118  -0.051  0.00  0.00    +0.120 A 
ATOM     11  C   UNL     1       2.413  -2.775  -0.314  0.00  0.00    +0.093 A 
ENDROOT
BRANCH  10  12
ATOM     12  O   UNL     1       4.775  -2.805  -0.070  0.00  0.00    -0.507 OA
ATOM     13  H   UNL     1       5.019  -3.190   0.783  0.00  0.00    +0.292 HD
ENDBRANCH  10  12
BRANCH   4  14
ATOM     14  C   UNL     1      -2.330  -2.815  -0.984  0.00  0.00    +0.081 C 
BRANCH  14  15
ATOM     15  C   UNL     1      -2.203  -3.883  -2.039  0.00  0.00    -0.041 A 
ATOM     16  C   UNL     1      -2.643  -3.638  -3.327  0.00  0.00    +0.004 A 
ATOM     17  C   UNL     1      -2.527  -4.617  -4.296  0.00  0.00    +0.003 A 
ATOM     18  C   UNL     1      -1.971  -5.842  -3.979  0.00  0.00    +0.038 A 
ATOM     19  C   UNL     1      -1.529  -6.088  -2.690  0.00  0.00    +0.124 A 
ATOM     20  C   UNL     1      -1.641  -5.105  -1.721  0.00  0.00    +0.042 A 
ATOM     21  F   UNL     1      -0.986  -7.285  -2.379  0.00  0.00    -0.205 F 
ENDBRANCH  14  15
ENDBRANCH   4  14
TORSDOF 3
