REMARK  Name = ZINC65431495
REMARK  5 active torsions:
REMARK  status: ('A' for Active; 'I' for Inactive)
REMARK    1  A    between atoms: C_1  and  C_2
REMARK    2  A    between atoms: N_7  and  C_9
REMARK    3  A    between atoms: C_9  and  C_10
REMARK    4  A    between atoms: C_14  and  C_16
REMARK    5  A    between atoms: N_18  and  C_19
REMARK                            x       y       z     vdW  Elec       q    Type
REMARK                         _______ _______ _______ _____ _____    ______ ____
ROOT
ATOM      1  C   UNL     1       1.666  -3.960   2.315  0.00  0.00    -0.063 A 
ATOM      2  C   UNL     1       0.711  -4.768   2.907  0.00  0.00    +0.002 A 
ATOM      3  C   UNL     1       0.824  -6.146   2.843  0.00  0.00    +0.001 A 
ATOM      4  C   UNL     1       1.892  -6.724   2.188  0.00  0.00    +0.013 A 
ATOM      5  C   UNL     1       2.860  -5.914   1.588  0.00  0.00    +0.041 A 
ATOM      6  C   UNL     1       2.736  -4.524   1.652  0.00  0.00    +0.015 A 
ENDROOT
BRANCH   5   7
ATOM      7  C   UNL     1       4.005  -6.525   0.886  0.00  0.00    +0.280 C 
ATOM      8  O   UNL     1       4.941  -5.738   0.306  0.00  0.00    -0.265 OA
ATOM      9  N   UNL     1       4.116  -7.830   0.825  0.00  0.00    -0.171 NA
BRANCH   9  10
ATOM     10  C   UNL     1       5.171  -8.393   0.178  0.00  0.00    +0.259 A 
ATOM     11  N   UNL     1       6.155  -7.750  -0.424  0.00  0.00    -0.108 NA
ATOM     12  N   UNL     1       6.987  -8.588  -0.934  0.00  0.00    -0.128 NA
ATOM     13  C   UNL     1       6.584  -9.825  -0.688  0.00  0.00    +0.162 A 
ATOM     14  N   UNL     1       5.417  -9.733   0.035  0.00  0.00    -0.267 N 
ATOM     15  C   UNL     1       4.764 -10.859   0.443  0.00  0.00    +0.096 A 
ATOM     16  C   UNL     1       5.256 -12.081   0.146  0.00  0.00    +0.018 A 
ATOM     17  C   UNL     1       6.449 -12.208  -0.587  0.00  0.00    +0.005 A 
ATOM     18  C   UNL     1       7.106 -11.093  -1.008  0.00  0.00    +0.049 A 
ENDBRANCH   9  10
ENDBRANCH   5   7
BRANCH   1  19
ATOM     19  C   UNL     1       1.534  -2.461   2.390  0.00  0.00    -0.043 C 
BRANCH  19  25
ATOM     20  C   UNL     1      -0.019   1.526   0.010  0.00  0.00    +0.005 C 
ATOM     21  C   UNL     1       0.002  -0.004   0.002  0.00  0.00    -0.031 C 
ATOM     22  C   UNL     1      -1.434  -0.535   0.015  0.00  0.00    -0.001 C 
ATOM     23  C   UNL     1      -1.402  -2.064   0.086  0.00  0.00    -0.018 C 
ATOM     24  C   UNL     1      -0.613  -2.496   1.324  0.00  0.00    -0.078 C 
ATOM     25  N   UNL     1       0.758  -1.980   1.239  0.00  0.00    +0.383 N 
ATOM     26  C   UNL     1       0.740  -0.512   1.242  0.00  0.00    -0.075 C 
ATOM     27  H   UNL     1       1.188  -2.307   0.386  0.00  0.00    -0.081 HD
ENDBRANCH  19  25
ENDBRANCH   1  19
TORSDOF 4
