REMARK  Name = ZINC12459275
REMARK  6 active torsions:
REMARK  status: ('A' for Active; 'I' for Inactive)
REMARK    1  A    between atoms: C_6  and  C_7
REMARK    2  A    between atoms: C_7  and  N_8
REMARK    3  A    between atoms: C_9  and  C_11
REMARK    4  A    between atoms: C_11  and  C_12
REMARK    5  A    between atoms: C_19  and  C_20
REMARK    6  A    between atoms: C_19  and  N_54
REMARK                            x       y       z     vdW  Elec       q    Type
REMARK                         _______ _______ _______ _____ _____    ______ ____
ROOT
ATOM      1  C   UNL     1       0.621  -0.429   1.175  0.00  0.00    +0.028 C 
ATOM      2  C   UNL     1       0.319  -1.901   1.153  0.00  0.00    +0.200 C 
ATOM      3  O   UNL     1       0.967  -2.638   1.865  0.00  0.00    -0.278 OA
ATOM      4  N   UNL     1      -0.635  -2.432   0.381  0.00  0.00    -0.318 N 
ATOM      5  C   UNL     1      -1.446  -1.638  -0.538  0.00  0.00    +0.085 C 
ATOM      6  C   UNL     1      -1.369  -0.158  -0.159  0.00  0.00    -0.059 C 
ATOM      7  H   UNL     1      -0.795  -3.387   0.433  0.00  0.00    +0.149 HD
ATOM      8  N   UNL     1       0.055   0.207  -0.029  0.00  0.00    +0.389 N 
ATOM      9  H   UNL     1       0.564  -0.127  -0.856  0.00  0.00    -0.081 HD
ENDROOT
BRANCH   1  10
ATOM     10  C   UNL     1       2.137  -0.222   1.182  0.00  0.00    +0.089 C 
BRANCH  10  12
ATOM     11  N   UNL     1       4.036  -0.601  -0.357  0.00  0.00    -0.311 N 
ATOM     12  C   UNL     1       2.724  -0.765  -0.096  0.00  0.00    +0.212 C 
ATOM     13  O   UNL     1       2.016  -1.350  -0.888  0.00  0.00    -0.276 OA
ATOM     14  H   UNL     1       4.602  -0.134   0.276  0.00  0.00    +0.149 HD
BRANCH  11  15
ATOM     15  C   UNL     1       4.606  -1.130  -1.599  0.00  0.00    +0.139 C 
BRANCH  15  21
ATOM     16  C   UNL     1       6.516   0.362  -2.227  0.00  0.00    +0.006 A 
ATOM     17  C   UNL     1       7.866   0.653  -2.267  0.00  0.00    +0.020 A 
ATOM     18  C   UNL     1       8.782  -0.239  -1.739  0.00  0.00    +0.041 A 
ATOM     19  C   UNL     1       8.345  -1.419  -1.165  0.00  0.00    +0.020 A 
ATOM     20  C   UNL     1       6.994  -1.707  -1.120  0.00  0.00    +0.006 A 
ATOM     21  C   UNL     1       6.079  -0.815  -1.648  0.00  0.00    -0.030 A 
ATOM     22 CL   UNL     1      10.479   0.123  -1.795  0.00  0.00    -0.084 Cl
ENDBRANCH  15  21
ENDBRANCH  11  15
ENDBRANCH  10  12
ENDBRANCH   1  10
BRANCH   8  23
ATOM     23  C   UNL     1       0.197   1.679   0.062  0.00  0.00    -0.074 C 
BRANCH  23  24
ATOM     24  C   UNL     1      -0.213   2.301  -1.275  0.00  0.00    -0.028 C 
ATOM     25  C   UNL     1       0.726   1.807  -2.377  0.00  0.00    +0.002 C 
ATOM     26  C   UNL     1       0.316   2.429  -3.713  0.00  0.00    +0.000 C 
ATOM     27  C   UNL     1       0.403   3.953  -3.614  0.00  0.00    +0.000 C 
ATOM     28  C   UNL     1      -0.536   4.447  -2.512  0.00  0.00    +0.000 C 
ATOM     29  C   UNL     1      -0.126   3.825  -1.176  0.00  0.00    +0.002 C 
ENDBRANCH  23  24
ENDBRANCH   8  23
TORSDOF 6
