REMARK  Name = ZINC32115636
REMARK  6 active torsions:
REMARK  status: ('A' for Active; 'I' for Inactive)
REMARK    1  A    between atoms: C_3  and  O_23
REMARK    2  A    between atoms: C_4  and  C_8
REMARK    3  A    between atoms: N_9  and  N_10
REMARK    4  A    between atoms: C_11  and  C_13
REMARK    5  A    between atoms: C_13  and  C_14
REMARK    6  A    between atoms: C_14  and  C_15
REMARK                            x       y       z     vdW  Elec       q    Type
REMARK                         _______ _______ _______ _____ _____    ______ ____
ROOT
ATOM      1  N   UNL     1       3.284  -2.380  -0.633  0.00  0.00    -0.202 N 
ATOM      2  C   UNL     1       4.351  -3.113  -1.006  0.00  0.00    +0.308 C 
ATOM      3  O   UNL     1       4.208  -4.273  -1.329  0.00  0.00    -0.267 OA
ATOM      4  H   UNL     1       3.414  -1.328  -0.340  0.00  0.00    +0.177 HD
ENDROOT
BRANCH   2   5
ATOM      5  C   UNL     1       5.724  -2.491  -1.022  0.00  0.00    +0.394 C 
ATOM      6  F   UNL     1       5.922  -1.829  -2.239  0.00  0.00    -0.188 F 
ATOM      7  F   UNL     1       5.833  -1.575   0.030  0.00  0.00    -0.188 F 
BRANCH   5   8
ATOM      8  C   UNL     1       6.782  -3.584  -0.859  0.00  0.00    +0.411 C 
ATOM      9  F   UNL     1       6.584  -4.246   0.357  0.00  0.00    -0.189 F 
ATOM     10  F   UNL     1       6.672  -4.500  -1.911  0.00  0.00    -0.189 F 
BRANCH   8  11
ATOM     11  C   UNL     1       8.175  -2.953  -0.876  0.00  0.00    +0.461 C 
ATOM     12  F   UNL     1       8.284  -2.037   0.177  0.00  0.00    -0.165 F 
ATOM     13  F   UNL     1       9.142  -3.952  -0.726  0.00  0.00    -0.165 F 
ATOM     14  F   UNL     1       8.373  -2.291  -2.092  0.00  0.00    -0.165 F 
ENDBRANCH   8  11
ENDBRANCH   5   8
ENDBRANCH   2   5
BRANCH   1  16
ATOM     15  C   UNL     1       0.965  -2.223  -0.381  0.00  0.00    +0.142 C 
ATOM     16  N   UNL     1       2.008  -2.958  -0.618  0.00  0.00    -0.187 NA
BRANCH  15  20
ATOM     17  C   UNL     1       1.142   1.976  -0.997  0.00  0.00    +0.019 A 
ATOM     18  C   UNL     1       0.222   1.453  -0.108  0.00  0.00    +0.047 A 
ATOM     19  C   UNL     1       0.156   0.085   0.100  0.00  0.00    +0.126 A 
ATOM     20  C   UNL     1       1.026  -0.766  -0.595  0.00  0.00    +0.037 A 
ATOM     21  C   UNL     1       1.952  -0.227  -1.490  0.00  0.00    +0.028 A 
ATOM     22  C   UNL     1       2.004   1.139  -1.685  0.00  0.00    +0.019 A 
ATOM     23 BR   UNL     1       3.263   1.870  -2.892  0.00  0.00    -0.050 Br
BRANCH  19  24
ATOM     24  O   UNL     1      -0.749  -0.429   0.973  0.00  0.00    -0.506 OA
ATOM     25  H   UNL     1      -0.799  -1.516   1.136  0.00  0.00    +0.292 HD
ENDBRANCH  19  24
ENDBRANCH  15  20
ENDBRANCH   1  16
TORSDOF 6
