REMARK  Name = ZINC40786357
REMARK  5 active torsions:
REMARK  status: ('A' for Active; 'I' for Inactive)
REMARK    1  A    between atoms: C_1  and  C_2
REMARK    2  A    between atoms: C_3  and  N_8
REMARK    3  A    between atoms: C_4  and  C_7
REMARK    4  A    between atoms: C_9  and  C_11
REMARK    5  A    between atoms: N_15  and  C_16
REMARK                            x       y       z     vdW  Elec       q    Type
REMARK                         _______ _______ _______ _____ _____    ______ ____
ROOT
ATOM      1  N   UNL     1       0.804   1.174  -2.277  0.00  0.00    -0.278 N 
ATOM      2  C   UNL     1       1.391   0.782  -3.426  0.00  0.00    +0.265 C 
ATOM      3  O   UNL     1       1.936  -0.305  -3.491  0.00  0.00    -0.268 OA
ATOM      4  H   UNL     1       0.289   1.996  -2.252  0.00  0.00    +0.155 HD
ENDROOT
BRANCH   2   5
ATOM      5  C   UNL     1       1.373   1.663  -4.595  0.00  0.00    +0.106 A 
ATOM      6  C   UNL     1       2.048   1.448  -5.777  0.00  0.00    +0.048 A 
ATOM      7  C   UNL     1       1.762   2.514  -6.616  0.00  0.00    +0.038 A 
ATOM      8  C   UNL     1       0.903   3.403  -5.959  0.00  0.00    +0.057 A 
ATOM      9  N   UNL     1       0.672   2.846  -4.703  0.00  0.00    -0.339 N 
ATOM     10  C   UNL     1      -0.178   3.427  -3.661  0.00  0.00    +0.149 C 
ATOM     11  C   UNL     1       0.524   4.537  -6.689  0.00  0.00    +0.034 A 
ATOM     12  C   UNL     1       0.985   4.719  -7.945  0.00  0.00    +0.048 A 
ATOM     13  S   UNL     1       2.006   3.278  -8.199  0.00  0.00    -0.095 S 
ENDBRANCH   2   5
BRANCH   1  16
ATOM     14  C   UNL     1       1.742   2.377   0.215  0.00  0.00    +0.068 C 
ATOM     15  C   UNL     1       1.379   0.920   0.085  0.00  0.00    +0.069 A 
ATOM     16  C   UNL     1       0.939   0.392  -1.115  0.00  0.00    +0.066 A 
ATOM     17  C   UNL     1       0.644  -0.938  -1.095  0.00  0.00    +0.028 A 
ATOM     18  S   UNL     1       0.971  -1.373   0.492  0.00  0.00    +0.009 S 
ATOM     19  N   UNL     1       1.472   0.101   1.102  0.00  0.00    -0.213 NA
ATOM     20  C   UNL     1       0.147  -1.806  -2.222  0.00  0.00    +0.055 C 
ENDBRANCH   1  16
TORSDOF 2
