REMARK  Name = ZINC39495265
REMARK  8 active torsions:
REMARK  status: ('A' for Active; 'I' for Inactive)
REMARK    1  A    between atoms: C_4  and  C_7
REMARK    2  A    between atoms: C_7  and  C_8
REMARK    3  A    between atoms: C_9  and  C_22
REMARK    4  A    between atoms: C_13  and  C_14
REMARK    5  A    between atoms: C_19  and  O_20
REMARK    6  A    between atoms: C_22  and  C_24
REMARK    7  A    between atoms: C_22  and  N_27
REMARK    8  A    between atoms: C_24  and  C_25
REMARK                            x       y       z     vdW  Elec       q    Type
REMARK                         _______ _______ _______ _____ _____    ______ ____
ROOT
ATOM      1  C   UNL     1       3.957  -0.962   1.624  0.00  0.00    -0.029 A 
ATOM      2  C   UNL     1       4.727  -0.071   2.344  0.00  0.00    -0.023 A 
ATOM      3  C   UNL     1       5.358  -0.478   3.505  0.00  0.00    +0.007 A 
ATOM      4  C   UNL     1       5.221  -1.780   3.953  0.00  0.00    +0.021 A 
ATOM      5  C   UNL     1       4.453  -2.680   3.241  0.00  0.00    +0.049 A 
ATOM      6  C   UNL     1       3.811  -2.273   2.072  0.00  0.00    +0.008 A 
ATOM      7 CL   UNL     1       4.284  -4.314   3.804  0.00  0.00    -0.083 Cl
ENDROOT
BRANCH   6   8
ATOM      8  C   UNL     1       2.979  -3.233   1.306  0.00  0.00    +0.025 A 
ATOM      9  C   UNL     1       3.578  -4.116   0.410  0.00  0.00    +0.012 A 
ATOM     10  C   UNL     1       2.800  -5.008  -0.300  0.00  0.00    +0.001 A 
ATOM     11  C   UNL     1       1.427  -5.028  -0.127  0.00  0.00    +0.004 A 
ATOM     12  C   UNL     1       0.824  -4.156   0.759  0.00  0.00    +0.046 A 
ATOM     13  C   UNL     1       1.593  -3.260   1.484  0.00  0.00    +0.125 A 
BRANCH  13  14
ATOM     14  O   UNL     1       1.002  -2.407   2.361  0.00  0.00    -0.506 OA
ATOM     15  H   UNL     1       0.667  -1.596   1.954  0.00  0.00    +0.292 HD
ENDBRANCH  13  14
ENDBRANCH   6   8
BRANCH   1  16
ATOM     16  C   UNL     1       3.270  -0.515   0.359  0.00  0.00    +0.071 C 
BRANCH  16  20
ATOM     17  C   UNL     1       5.665  -1.578  -3.015  0.00  0.00    +0.000 A 
ATOM     18  C   UNL     1       4.695  -2.448  -2.554  0.00  0.00    +0.000 A 
ATOM     19  C   UNL     1       3.920  -2.105  -1.462  0.00  0.00    +0.004 A 
ATOM     20  C   UNL     1       4.115  -0.890  -0.830  0.00  0.00    -0.043 A 
ATOM     21  C   UNL     1       5.085  -0.020  -1.291  0.00  0.00    +0.004 A 
ATOM     22  C   UNL     1       5.859  -0.363  -2.384  0.00  0.00    +0.000 A 
ENDBRANCH  16  20
ENDBRANCH   1  16
BRANCH   2  23
ATOM     23  C   UNL     1       4.881   1.349   1.863  0.00  0.00    +0.110 C 
BRANCH  23  24
ATOM     24  N   UNL     1       3.659   2.101   2.161  0.00  0.00    -0.311 N 
ATOM     25  C   UNL     1       3.251   2.246   3.438  0.00  0.00    +0.326 C 
ATOM     26  O   UNL     1       3.944   1.838   4.346  0.00  0.00    -0.280 OA
ATOM     27  H   UNL     1       3.143   2.494   1.440  0.00  0.00    +0.149 HD
ENDBRANCH  23  24
BRANCH  23  28
ATOM     28  C   UNL     1       6.067   2.003   2.574  0.00  0.00    +0.097 C 
BRANCH  28  29
ATOM     29  C   UNL     1       6.298   3.379   2.006  0.00  0.00    +0.225 C 
ATOM     30  O   UNL     1       6.319   4.339   2.738  0.00  0.00    -0.301 OA
ENDBRANCH  28  29
ENDBRANCH  23  28
ENDBRANCH   2  23
TORSDOF 8
