REMARK  Name = ZINC58964419
REMARK  8 active torsions:
REMARK  status: ('A' for Active; 'I' for Inactive)
REMARK    1  A    between atoms: C_1  and  C_2
REMARK    2  A    between atoms: C_2  and  C_4
REMARK    3  A    between atoms: C_2  and  S_14
REMARK    4  A    between atoms: N_6  and  N_7
REMARK    5  A    between atoms: N_10  and  C_13
REMARK    6  A    between atoms: S_14  and  C_15
REMARK    7  A    between atoms: C_17  and  C_25
REMARK    8  A    between atoms: C_19  and  C_21
REMARK                            x       y       z     vdW  Elec       q    Type
REMARK                         _______ _______ _______ _____ _____    ______ ____
ROOT
ATOM      1  S   UNL     1       0.851  -0.589  -1.490  0.00  0.00    -0.074 S 
ENDROOT
BRANCH   1   2
ATOM      2  C   UNL     1      -0.189  -0.057  -2.809  0.00  0.00    +0.190 A 
ATOM      3  N   UNL     1       0.155  -0.338  -4.056  0.00  0.00    -0.221 NA
ATOM      4  C   UNL     1      -0.611   0.051  -5.076  0.00  0.00    +0.082 A 
ATOM      5  C   UNL     1      -1.788   0.763  -4.806  0.00  0.00    +0.061 A 
ATOM      6  C   UNL     1      -2.106   1.033  -3.489  0.00  0.00    +0.148 A 
ATOM      7  N   UNL     1      -1.300   0.610  -2.527  0.00  0.00    -0.218 NA
BRANCH   4   8
ATOM      8  C   UNL     1      -0.227  -0.262  -6.465  0.00  0.00    +0.038 A 
ATOM      9  C   UNL     1       0.870  -0.944  -6.925  0.00  0.00    +0.017 A 
ATOM     10  C   UNL     1       1.021  -1.116  -8.281  0.00  0.00    +0.008 A 
ATOM     11  C   UNL     1       0.082  -0.607  -9.122  0.00  0.00    +0.046 A 
ATOM     12  S   UNL     1      -1.072   0.142  -7.985  0.00  0.00    -0.095 S 
ENDBRANCH   4   8
BRANCH   6  13
ATOM     13  C   UNL     1      -3.361   1.796  -3.150  0.00  0.00    +0.434 C 
ATOM     14  F   UNL     1      -4.419   0.898  -2.975  0.00  0.00    -0.164 F 
ATOM     15  F   UNL     1      -3.162   2.519  -1.969  0.00  0.00    -0.164 F 
ATOM     16  F   UNL     1      -3.666   2.678  -4.192  0.00  0.00    -0.164 F 
ENDBRANCH   6  13
ENDBRANCH   1   2
BRANCH   1  18
ATOM     17  C   UNL     1      -0.019   1.526   0.010  0.00  0.00    +0.029 C 
ATOM     18  C   UNL     1       0.002  -0.004   0.002  0.00  0.00    +0.138 C 
BRANCH  18  19
ATOM     19  C   UNL     1       0.731  -0.503   1.223  0.00  0.00    +0.240 C 
ATOM     20  O   UNL     1       1.911  -0.775   1.156  0.00  0.00    -0.273 OA
ATOM     21  N   UNL     1       0.071  -0.647   2.389  0.00  0.00    -0.247 N 
ATOM     22  H   UNL     1      -0.872  -0.430   2.443  0.00  0.00    +0.169 HD
BRANCH  21  23
ATOM     23  N   UNL     1       0.732  -1.100   3.496  0.00  0.00    -0.231 NA
ATOM     24  C   UNL     1       0.190  -2.391   3.942  0.00  0.00    +0.087 C 
ATOM     25  C   UNL     1       0.993  -2.890   5.145  0.00  0.00    -0.062 C 
ATOM     26  N   UNL     1       0.914  -1.905   6.231  0.00  0.00    +0.380 N 
ATOM     27  C   UNL     1       1.482  -0.628   5.778  0.00  0.00    -0.062 C 
ATOM     28  C   UNL     1       0.682  -0.110   4.581  0.00  0.00    +0.087 C 
ATOM     29  C   UNL     1       1.671  -2.393   7.391  0.00  0.00    -0.096 C 
ATOM     30  H   UNL     1      -0.051  -1.769   6.492  0.00  0.00    -0.082 HD
ENDBRANCH  21  23
ENDBRANCH  18  19
ENDBRANCH   1  18
TORSDOF 6
