REMARK  Name = ZINC37388655
REMARK  7 active torsions:
REMARK  status: ('A' for Active; 'I' for Inactive)
REMARK    1  A    between atoms: C_1  and  C_2
REMARK    2  A    between atoms: C_2  and  C_3
REMARK    3  A    between atoms: C_3  and  C_4
REMARK    4  A    between atoms: C_7  and  N_10
REMARK    5  A    between atoms: N_10  and  S_11
REMARK    6  A    between atoms: S_11  and  C_14
REMARK    7  A    between atoms: C_19  and  C_20
REMARK                            x       y       z     vdW  Elec       q    Type
REMARK                         _______ _______ _______ _____ _____    ______ ____
ROOT
ATOM      1  N   UNL     1      -1.419  -6.349  -0.026  0.00  0.00    -0.216 N 
ATOM      2  H   UNL     1      -1.990  -6.906  -0.578  0.00  0.00    +0.174 HD
ENDROOT
BRANCH   1   6
ATOM      3  C   UNL     1      -1.957  -2.220   0.020  0.00  0.00    -0.047 A 
ATOM      4  C   UNL     1      -1.932  -2.899  -1.184  0.00  0.00    +0.005 A 
ATOM      5  C   UNL     1      -1.754  -4.269  -1.203  0.00  0.00    +0.025 A 
ATOM      6  C   UNL     1      -1.599  -4.964  -0.010  0.00  0.00    +0.048 A 
ATOM      7  C   UNL     1      -1.625  -4.278   1.198  0.00  0.00    +0.025 A 
ATOM      8  C   UNL     1      -1.798  -2.908   1.209  0.00  0.00    +0.005 A 
BRANCH   3   9
ATOM      9  C   UNL     1      -2.152  -0.726   0.036  0.00  0.00    +0.035 C 
BRANCH   9  11
ATOM     10  C   UNL     1      -0.988   1.484  -0.025  0.00  0.00    +0.004 C 
ATOM     11  C   UNL     1      -0.790  -0.033  -0.041  0.00  0.00    +0.001 C 
ENDBRANCH   9  11
ENDBRANCH   3   9
ENDBRANCH   1   6
BRANCH   1  12
ATOM     12  S   UNL     1      -0.231  -7.039   0.899  0.00  0.00    +0.073 S 
ATOM     13  O   UNL     1      -0.287  -8.438   0.653  0.00  0.00    -0.150 OA
ATOM     14  O   UNL     1       0.947  -6.274   0.685  0.00  0.00    -0.150 OA
BRANCH  12  15
ATOM     15  C   UNL     1      -0.683  -6.807   2.586  0.00  0.00    +0.112 A 
ATOM     16  C   UNL     1       0.103  -6.023   3.410  0.00  0.00    +0.044 A 
ATOM     17  C   UNL     1      -0.252  -5.840   4.734  0.00  0.00    +0.020 A 
ATOM     18  C   UNL     1      -1.393  -6.442   5.234  0.00  0.00    +0.015 A 
ATOM     19  C   UNL     1      -2.179  -7.225   4.409  0.00  0.00    +0.006 A 
ATOM     20  C   UNL     1      -1.826  -7.403   3.084  0.00  0.00    -0.024 A 
ATOM     21  C   UNL     1      -2.686  -8.252   2.183  0.00  0.00    +0.046 C 
ATOM     22 BR   UNL     1       0.823  -4.769   5.862  0.00  0.00    -0.050 Br
ENDBRANCH  12  15
ENDBRANCH   1  12
TORSDOF 5
