REMARK  Name = ZINC16420931
REMARK  6 active torsions:
REMARK  status: ('A' for Active; 'I' for Inactive)
REMARK    1  A    between atoms: C_1  and  C_2
REMARK    2  A    between atoms: N_11  and  C_12
REMARK    3  A    between atoms: C_12  and  C_13
REMARK    4  A    between atoms: N_18  and  C_19
REMARK    5  A    between atoms: C_19  and  C_20
REMARK    6  A    between atoms: C_20  and  C_21
REMARK                            x       y       z     vdW  Elec       q    Type
REMARK                         _______ _______ _______ _____ _____    ______ ____
ROOT
ATOM      1  C   UNL     1       0.934  -0.368   3.604  0.00  0.00    +0.234 C 
ATOM      2  O   UNL     1       2.014  -0.892   3.434  0.00  0.00    -0.274 OA
ATOM      3  N   UNL     1       0.524  -0.059   4.849  0.00  0.00    -0.239 N 
ATOM      4  C   UNL     1       1.314  -0.331   5.907  0.00  0.00    +0.306 C 
ATOM      5  O   UNL     1       2.397  -0.856   5.736  0.00  0.00    -0.252 OA
ATOM      6  N   UNL     1       0.904  -0.021   7.152  0.00  0.00    -0.299 N 
ATOM      7  H   UNL     1      -0.341   0.360   4.985  0.00  0.00    +0.159 HD
ATOM      8  H   UNL     1       0.040   0.397   7.288  0.00  0.00    +0.150 HD
ENDROOT
BRANCH   1   9
ATOM      9  C   UNL     1       0.050  -0.064   2.422  0.00  0.00    +0.181 C 
BRANCH   9  19
ATOM     10  C   UNL     1      -0.019   1.526   0.010  0.00  0.00    +0.029 C 
ATOM     11  C   UNL     1       0.002  -0.004   0.002  0.00  0.00    +0.085 C 
ATOM     12  C   UNL     1       0.723  -0.500  -1.248  0.00  0.00    -0.020 A 
ATOM     13  C   UNL     1       0.555   0.057  -2.514  0.00  0.00    +0.013 A 
ATOM     14  C   UNL     1       1.237  -0.445  -3.570  0.00  0.00    +0.046 A 
ATOM     15  S   UNL     1       2.175  -1.763  -2.811  0.00  0.00    -0.101 S 
ATOM     16  C   UNL     1       1.590  -1.547  -1.154  0.00  0.00    -0.004 A 
ATOM     17  C   UNL     1       1.935  -2.311   0.083  0.00  0.00    +0.058 C 
ATOM     18  C   UNL     1       0.896  -1.954   1.159  0.00  0.00    +0.090 C 
ATOM     19  N   UNL     1       0.719  -0.494   1.186  0.00  0.00    -0.287 NA
ENDBRANCH   9  19
ENDBRANCH   1   9
BRANCH   6  20
ATOM     20  C   UNL     1       1.763  -0.317   8.301  0.00  0.00    +0.111 C 
BRANCH  20  21
ATOM     21  C   UNL     1       1.067   0.130   9.588  0.00  0.00    +0.061 C 
BRANCH  21  22
ATOM     22  C   UNL     1       1.950  -0.174  10.770  0.00  0.00    -0.009 A 
ATOM     23  C   UNL     1       2.893   0.605  11.354  0.00  0.00    +0.011 A 
ATOM     24  C   UNL     1       3.590   0.113  12.441  0.00  0.00    +0.008 A 
ATOM     25  C   UNL     1       3.310  -1.134  12.892  0.00  0.00    +0.045 A 
ATOM     26  S   UNL     1       2.022  -1.652  11.769  0.00  0.00    -0.102 S 
ENDBRANCH  21  22
ENDBRANCH  20  21
ENDBRANCH   6  20
TORSDOF 5
