REMARK  Name = ZINC23934213
REMARK  9 active torsions:
REMARK  status: ('A' for Active; 'I' for Inactive)
REMARK    1  A    between atoms: C_1  and  C_2
REMARK    2  A    between atoms: C_11  and  N_31
REMARK    3  A    between atoms: C_13  and  S_15
REMARK    4  A    between atoms: S_15  and  C_16
REMARK    5  A    between atoms: C_16  and  C_17
REMARK    6  A    between atoms: N_19  and  C_20
REMARK    7  A    between atoms: C_23  and  C_26
REMARK    8  A    between atoms: N_28  and  C_29
REMARK    9  A    between atoms: N_28  and  C_30
REMARK                            x       y       z     vdW  Elec       q    Type
REMARK                         _______ _______ _______ _____ _____    ______ ____
ROOT
ATOM      1  C   UNL     1       1.389  14.196   4.409  0.00  0.00    +0.008 C 
ATOM      2  C   UNL     1       1.750  12.739   4.112  0.00  0.00    -0.009 C 
ATOM      3  C   UNL     1       0.732  12.147   3.132  0.00  0.00    +0.008 C 
ATOM      4  C   UNL     1       0.937  10.636   3.022  0.00  0.00    +0.037 C 
ATOM      5  C   UNL     1       2.402  10.359   2.697  0.00  0.00    -0.025 A 
ATOM      6  C   UNL     1       3.345  11.297   2.915  0.00  0.00    -0.004 A 
ATOM      7  S   UNL     1       4.869  10.552   2.400  0.00  0.00    -0.073 S 
ATOM      8  C   UNL     1       4.236   8.975   1.891  0.00  0.00    +0.115 A 
ATOM      9  C   UNL     1       2.853   9.082   2.139  0.00  0.00    +0.051 A 
ATOM     10  C   UNL     1       2.080   7.932   1.814  0.00  0.00    +0.129 A 
ATOM     11  N   UNL     1       2.683   6.869   1.310  0.00  0.00    -0.207 NA
ATOM     12  C   UNL     1       3.995   6.833   1.106  0.00  0.00    +0.191 A 
ATOM     13  N   UNL     1       4.765   7.875   1.391  0.00  0.00    -0.214 NA
ATOM     14  C   UNL     1       3.144  12.674   3.473  0.00  0.00    +0.046 C 
ENDROOT
BRANCH  10  15
ATOM     15  N   UNL     1       0.712   7.929   2.018  0.00  0.00    -0.343 N 
ATOM     16  H   UNL     1       0.120   7.037   1.764  0.00  0.00    +0.144 HD
ATOM     17  H   UNL     1       0.215   8.819   2.433  0.00  0.00    +0.144 HD
ENDBRANCH  10  15
BRANCH  12  18
ATOM     18  S   UNL     1       4.726   5.375   0.438  0.00  0.00    -0.077 S 
BRANCH  18  19
ATOM     19  C   UNL     1       3.253   4.338   0.261  0.00  0.00    +0.173 C 
BRANCH  19  20
ATOM     20  C   UNL     1       3.647   3.000  -0.310  0.00  0.00    +0.227 C 
ATOM     21  O   UNL     1       4.808   2.771  -0.572  0.00  0.00    -0.275 OA
ATOM     22  N   UNL     1       2.708   2.059  -0.531  0.00  0.00    -0.285 N 
ATOM     23  H   UNL     1       1.644   2.299  -0.387  0.00  0.00    +0.155 HD
BRANCH  22  24
ATOM     24  C   UNL     1       3.084   0.780  -0.941  0.00  0.00    +0.033 A 
ATOM     25  C   UNL     1       2.262   0.056  -1.798  0.00  0.00    +0.024 A 
ATOM     26  C   UNL     1       2.632  -1.206  -2.205  0.00  0.00    +0.015 A 
ATOM     27  C   UNL     1       3.834  -1.760  -1.756  0.00  0.00    +0.037 A 
ATOM     28  C   UNL     1       4.657  -1.029  -0.895  0.00  0.00    +0.015 A 
ATOM     29  C   UNL     1       4.282   0.233  -0.492  0.00  0.00    +0.024 A 
BRANCH  27  30
ATOM     30  C   UNL     1       4.233  -3.113  -2.190  0.00  0.00    +0.246 C 
ATOM     31  O   UNL     1       3.404  -4.000  -2.252  0.00  0.00    -0.270 OA
ATOM     32  N   UNL     1       5.516  -3.364  -2.518  0.00  0.00    -0.304 N 
ATOM     33  C   UNL     1       5.891  -4.674  -3.057  0.00  0.00    +0.132 C 
ATOM     34  C   UNL     1       6.535  -2.329  -2.335  0.00  0.00    +0.132 C 
ENDBRANCH  27  30
ENDBRANCH  22  24
ENDBRANCH  19  20
ENDBRANCH  18  19
ENDBRANCH  12  18
TORSDOF 6
