REMARK  Name = ZINC53631469
REMARK  7 active torsions:
REMARK  status: ('A' for Active; 'I' for Inactive)
REMARK    1  A    between atoms: C_1  and  C_2
REMARK    2  A    between atoms: C_2  and  N_23
REMARK    3  A    between atoms: C_4  and  C_19
REMARK    4  A    between atoms: N_6  and  C_9
REMARK    5  A    between atoms: N_23  and  C_24
REMARK    6  A    between atoms: C_24  and  C_25
REMARK    7  A    between atoms: C_25  and  C_26
REMARK                            x       y       z     vdW  Elec       q    Type
REMARK                         _______ _______ _______ _____ _____    ______ ____
ROOT
ATOM      1  C   UNL     1       0.066   1.509   0.010  0.00  0.00    +0.061 C 
ATOM      2  C   UNL     1       0.065   0.002  -0.000  0.00  0.00    +0.015 C 
ATOM      3  C   UNL     1       0.157  -0.699   1.191  0.00  0.00    +0.086 C 
ATOM      4  C   UNL     1       0.144  -0.151   2.555  0.00  0.00    +0.175 C 
ATOM      5  N   UNL     1       0.252  -1.147   3.378  0.00  0.00    -0.170 NA
ATOM      6  N   UNL     1       0.341  -2.361   2.697  0.00  0.00    -0.157 N 
ATOM      7  C   UNL     1       0.283  -2.151   1.367  0.00  0.00    +0.272 C 
ATOM      8  O   UNL     1       0.328  -2.995   0.488  0.00  0.00    -0.268 OA
ENDROOT
BRANCH   6   9
ATOM      9  C   UNL     1       0.472  -3.674   3.335  0.00  0.00    +0.249 C 
ATOM     10  N   UNL     1       1.647  -3.719   4.215  0.00  0.00    -0.315 N 
ATOM     11  C   UNL     1       1.427  -3.944   5.573  0.00  0.00    +0.043 A 
ATOM     12  C   UNL     1       2.423  -4.020   6.563  0.00  0.00    +0.024 A 
ATOM     13  C   UNL     1       2.103  -4.247   7.881  0.00  0.00    +0.002 A 
ATOM     14  C   UNL     1       0.788  -4.408   8.278  0.00  0.00    +0.001 A 
ATOM     15  C   UNL     1      -0.214  -4.338   7.325  0.00  0.00    +0.016 A 
ATOM     16  C   UNL     1       0.108  -4.111   6.006  0.00  0.00    +0.032 A 
ATOM     17  S   UNL     1      -0.886  -3.963   4.538  0.00  0.00    -0.080 S 
ATOM     18  H   UNL     1       2.543  -3.596   3.865  0.00  0.00    +0.149 HD
ENDBRANCH   6   9
BRANCH   4  19
ATOM     19  C   UNL     1       0.026   1.304   2.929  0.00  0.00    +0.436 C 
ATOM     20  F   UNL     1       0.198   1.446   4.310  0.00  0.00    -0.164 F 
ATOM     21  F   UNL     1       1.010   2.039   2.259  0.00  0.00    -0.164 F 
ATOM     22  F   UNL     1      -1.238   1.779   2.565  0.00  0.00    -0.164 F 
ENDBRANCH   4  19
BRANCH   2  23
ATOM     23  N   UNL     1      -0.025  -0.665  -1.169  0.00  0.00    -0.346 N 
ATOM     24  H   UNL     1      -0.025  -1.635  -1.176  0.00  0.00    +0.146 HD
BRANCH  23  25
ATOM     25  C   UNL     1      -0.122   0.076  -2.429  0.00  0.00    +0.107 C 
BRANCH  25  26
ATOM     26  C   UNL     1      -0.212  -0.910  -3.595  0.00  0.00    +0.073 C 
BRANCH  26  27
ATOM     27  C   UNL     1      -0.312  -0.148  -4.891  0.00  0.00    +0.035 A 
ATOM     28  H   UNL     1       0.680   1.399  -7.412  0.00  0.00    +0.166 HD
ATOM     29  C   UNL     1       0.721   0.334  -5.608  0.00  0.00    +0.105 A 
ATOM     30  N   UNL     1       0.187   0.953  -6.706  0.00  0.00    -0.352 N 
ATOM     31  C   UNL     1      -1.155   0.828  -6.622  0.00  0.00    +0.171 A 
ATOM     32  N   UNL     1      -1.446   0.164  -5.537  0.00  0.00    -0.350 N 
ATOM     33  H   UNL     1      -2.341  -0.067  -5.243  0.00  0.00    +0.166 HD
ENDBRANCH  26  27
ENDBRANCH  25  26
ENDBRANCH  23  25
ENDBRANCH   2  23
TORSDOF 6
