REMARK  Name = ZINC03485346
REMARK  9 active torsions:
REMARK  status: ('A' for Active; 'I' for Inactive)
REMARK    1  A    between atoms: C_1  and  C_2
REMARK    2  A    between atoms: C_2  and  C_4
REMARK    3  A    between atoms: C_2  and  O_20
REMARK    4  A    between atoms: N_6  and  C_7
REMARK    5  A    between atoms: C_7  and  C_8
REMARK    6  A    between atoms: N_10  and  C_11
REMARK    7  A    between atoms: O_20  and  C_21
REMARK    8  A    between atoms: C_21  and  C_23
REMARK    9  A    between atoms: C_28  and  N_29
REMARK                            x       y       z     vdW  Elec       q    Type
REMARK                         _______ _______ _______ _____ _____    ______ ____
ROOT
ATOM      1  C   UNL     1      -4.798   0.736   0.952  0.00  0.00    +0.254 C 
ATOM      2  O   UNL     1      -5.083   1.915   0.990  0.00  0.00    -0.272 OA
ATOM      3  N   UNL     1      -3.516   0.348   1.099  0.00  0.00    -0.304 N 
ATOM      4  H   UNL     1      -3.258  -0.721   1.065  0.00  0.00    +0.149 HD
ENDROOT
BRANCH   1   6
ATOM      5  C   UNL     1      -5.583  -1.086  -0.535  0.00  0.00    +0.062 C 
ATOM      6  C   UNL     1      -5.878  -0.293   0.740  0.00  0.00    +0.259 C 
BRANCH   6   7
ATOM      7  O   UNL     1      -7.162   0.372   0.611  0.00  0.00    -0.449 OA
BRANCH   7   8
ATOM      8  C   UNL     1      -8.248  -0.308   1.027  0.00  0.00    +0.342 C 
ATOM      9  O   UNL     1      -8.125  -1.426   1.486  0.00  0.00    -0.245 OA
BRANCH   8  10
ATOM     10  C   UNL     1      -9.588   0.305   0.926  0.00  0.00    +0.090 A 
ATOM     11  C   UNL     1      -9.752   1.527   0.269  0.00  0.00    +0.037 A 
ATOM     12  C   UNL     1     -11.007   2.092   0.174  0.00  0.00    +0.042 A 
ATOM     13  C   UNL     1     -12.101   1.456   0.737  0.00  0.00    +0.022 A 
ATOM     14  C   UNL     1     -11.944   0.248   1.393  0.00  0.00    +0.035 A 
ATOM     15  C   UNL     1     -10.695  -0.330   1.491  0.00  0.00    +0.140 A 
ATOM     16 CL   UNL     1     -11.215   3.608  -0.647  0.00  0.00    -0.084 Cl
BRANCH  15  17
ATOM     17  N   UNL     1     -10.529  -1.622   2.194  0.00  0.00    +0.057 N 
ATOM     18  O   UNL     1     -11.242  -2.567   1.908  0.00  0.00    -0.126 OA
ATOM     19  O   UNL     1      -9.679  -1.741   3.058  0.00  0.00    -0.126 OA
ENDBRANCH  15  17
ENDBRANCH   8  10
ENDBRANCH   7   8
ENDBRANCH   6   7
ENDBRANCH   1   6
BRANCH   3  20
ATOM     20  C   UNL     1      -2.466   1.349   1.306  0.00  0.00    +0.200 C 
BRANCH  20  21
ATOM     21  C   UNL     1      -1.133   0.658   1.440  0.00  0.00    +0.234 C 
ATOM     22  O   UNL     1      -1.067  -0.551   1.370  0.00  0.00    -0.274 OA
ATOM     23  N   UNL     1      -0.015   1.385   1.632  0.00  0.00    -0.282 N 
ATOM     24  H   UNL     1      -0.063   2.484   1.614  0.00  0.00    +0.155 HD
BRANCH  23  25
ATOM     25  C   UNL     1       1.210   0.740   1.854  0.00  0.00    +0.072 A 
ATOM     26  C   UNL     1       1.476  -0.476   1.240  0.00  0.00    +0.029 A 
ATOM     27  C   UNL     1       2.685  -1.109   1.456  0.00  0.00    +0.043 A 
ATOM     28  C   UNL     1       3.629  -0.536   2.291  0.00  0.00    +0.161 A 
ATOM     29  C   UNL     1       3.366   0.676   2.910  0.00  0.00    +0.195 A 
ATOM     30  C   UNL     1       2.157   1.316   2.692  0.00  0.00    +0.182 A 
ATOM     31  F   UNL     1       1.899   2.497   3.294  0.00  0.00    -0.200 F 
ATOM     32  F   UNL     1       4.288   1.233   3.725  0.00  0.00    -0.199 F 
ATOM     33  F   UNL     1       4.809  -1.160   2.503  0.00  0.00    -0.202 F 
ENDBRANCH  23  25
ENDBRANCH  20  21
ENDBRANCH   3  20
TORSDOF 8
