REMARK  Name = ZINC14160104
REMARK  9 active torsions:
REMARK  status: ('A' for Active; 'I' for Inactive)
REMARK    1  A    between atoms: C_1  and  C_2
REMARK    2  A    between atoms: C_2  and  C_3
REMARK    3  A    between atoms: C_8  and  N_9
REMARK    4  A    between atoms: N_9  and  C_10
REMARK    5  A    between atoms: C_10  and  N_12
REMARK    6  A    between atoms: C_17  and  C_22
REMARK    7  A    between atoms: C_19  and  C_21
REMARK    8  A    between atoms: C_26  and  C_29
REMARK    9  A    between atoms: C_29  and  C_30
REMARK                            x       y       z     vdW  Elec       q    Type
REMARK                         _______ _______ _______ _____ _____    ______ ____
ROOT
ATOM      1  N   UNL     1      -2.512   3.912   0.100  0.00  0.00    -0.163 NA
ATOM      2  C   UNL     1      -2.614   5.229   0.108  0.00  0.00    +0.180 C 
ATOM      3  N   UNL     1      -3.849   5.820   0.081  0.00  0.00    -0.258 N 
ATOM      4  C   UNL     1      -4.994   5.038   0.156  0.00  0.00    +0.222 A 
ATOM      5  N   UNL     1      -4.874   3.723   0.248  0.00  0.00    -0.219 NA
ATOM      6  C   UNL     1      -5.944   2.950   0.327  0.00  0.00    +0.044 A 
ATOM      7  C   UNL     1      -7.202   3.532   0.300  0.00  0.00    +0.046 A 
ATOM      8  C   UNL     1      -7.291   4.911   0.197  0.00  0.00    +0.044 A 
ATOM      9  N   UNL     1      -6.181   5.626   0.128  0.00  0.00    -0.219 NA
ATOM     10  C   UNL     1      -8.637   5.588   0.165  0.00  0.00    +0.066 C 
ATOM     11  C   UNL     1      -5.798   1.454   0.438  0.00  0.00    +0.066 C 
ATOM     12  N   UNL     1      -1.489   6.001   0.144  0.00  0.00    -0.305 N 
ATOM     13  C   UNL     1      -1.451   7.232   0.946  0.00  0.00    +0.108 C 
ATOM     14  C   UNL     1      -1.017   8.394   0.055  0.00  0.00    +0.023 C 
ATOM     15  C   UNL     1       0.309   8.045  -0.625  0.00  0.00    -0.004 C 
ATOM     16  C   UNL     1       0.124   6.804  -1.502  0.00  0.00    +0.023 C 
ATOM     17  C   UNL     1      -0.295   5.621  -0.623  0.00  0.00    +0.108 C 
ATOM     18  H   UNL     1      -3.924   6.784   0.009  0.00  0.00    +0.157 HD
ENDROOT
BRANCH   1  19
ATOM     19  C   UNL     1      -1.303   3.333   0.138  0.00  0.00    +0.161 C 
ATOM     20  S   UNL     1      -0.293   3.550   1.503  0.00  0.00    -0.016 S 
BRANCH  19  21
ATOM     21  N   UNL     1      -0.883   2.580  -0.898  0.00  0.00    -0.295 N 
ATOM     22  H   UNL     1      -1.427   2.509  -1.698  0.00  0.00    +0.154 HD
BRANCH  21  28
ATOM     23  C   UNL     1       1.134   1.770  -1.950  0.00  0.00    -0.026 A 
ATOM     24  C   UNL     1       2.341   1.105  -1.869  0.00  0.00    +0.005 A 
ATOM     25  C   UNL     1       2.758   0.571  -0.663  0.00  0.00    +0.000 A 
ATOM     26  C   UNL     1       1.968   0.700   0.464  0.00  0.00    +0.002 A 
ATOM     27  C   UNL     1       0.759   1.365   0.389  0.00  0.00    +0.023 A 
ATOM     28  C   UNL     1       0.338   1.902  -0.820  0.00  0.00    +0.036 A 
BRANCH  23  30
ATOM     29  C   UNL     1       1.082   3.828  -3.334  0.00  0.00    +0.009 C 
ATOM     30  C   UNL     1       0.681   2.353  -3.264  0.00  0.00    +0.033 C 
ENDBRANCH  23  30
ENDBRANCH  21  28
ENDBRANCH  19  21
ENDBRANCH   1  19
BRANCH  15  31
ATOM     31  C   UNL     1       0.761   9.220  -1.494  0.00  0.00    +0.038 C 
BRANCH  31  32
ATOM     32  C   UNL     1       1.062  10.408  -0.617  0.00  0.00    -0.047 A 
ATOM     33  C   UNL     1       0.064  11.318  -0.320  0.00  0.00    +0.003 A 
ATOM     34  C   UNL     1       0.339  12.404   0.489  0.00  0.00    +0.000 A 
ATOM     35  C   UNL     1       1.613  12.586   0.993  0.00  0.00    +0.000 A 
ATOM     36  C   UNL     1       2.612  11.679   0.692  0.00  0.00    +0.000 A 
ATOM     37  C   UNL     1       2.336  10.590  -0.113  0.00  0.00    +0.003 A 
ENDBRANCH  31  32
ENDBRANCH  15  31
TORSDOF 6
