REMARK  Name = ZINC49289391
REMARK  11 active torsions:
REMARK  status: ('A' for Active; 'I' for Inactive)
REMARK    1  A    between atoms: C_1  and  C_2
REMARK    2  A    between atoms: C_2  and  C_3
REMARK    3  A    between atoms: C_3  and  C_4
REMARK    4  A    between atoms: C_4  and  C_6
REMARK    5  A    between atoms: C_4  and  N_7
REMARK    6  A    between atoms: C_8  and  C_10
REMARK    7  A    between atoms: C_10  and  O_11
REMARK    8  A    between atoms: O_11  and  C_12
REMARK    9  A    between atoms: C_17  and  C_18
REMARK   10  A    between atoms: C_18  and  C_19
REMARK   11  A    between atoms: C_19  and  N_20
REMARK                            x       y       z     vdW  Elec       q    Type
REMARK                         _______ _______ _______ _____ _____    ______ ____
ROOT
ATOM      1  C   UNL     1      -3.614  -6.220   0.497  0.00  0.00    +0.124 A 
ATOM      2  C   UNL     1      -4.704  -5.578   1.068  0.00  0.00    +0.047 A 
ATOM      3  C   UNL     1      -5.932  -6.208   1.107  0.00  0.00    +0.019 A 
ATOM      4  C   UNL     1      -6.077  -7.479   0.578  0.00  0.00    +0.018 A 
ATOM      5  C   UNL     1      -4.992  -8.120   0.009  0.00  0.00    +0.022 A 
ATOM      6  C   UNL     1      -3.762  -7.492  -0.038  0.00  0.00    -0.006 A 
ATOM      7 BR   UNL     1      -7.760  -8.338   0.632  0.00  0.00    -0.050 Br
ENDROOT
BRANCH   1   8
ATOM      8  O   UNL     1      -2.404  -5.602   0.458  0.00  0.00    -0.483 OA
BRANCH   8   9
ATOM      9  C   UNL     1      -2.325  -4.294   1.028  0.00  0.00    +0.324 C 
BRANCH   9  11
ATOM     10  N   UNL     1      -0.605  -2.548   1.364  0.00  0.00    -0.310 N 
ATOM     11  C   UNL     1      -0.918  -3.772   0.893  0.00  0.00    +0.251 C 
ATOM     12  O   UNL     1      -0.066  -4.453   0.362  0.00  0.00    -0.272 OA
ATOM     13  H   UNL     1      -1.286  -2.004   1.789  0.00  0.00    +0.149 HD
BRANCH  10  14
ATOM     14  C   UNL     1       0.763  -2.041   1.233  0.00  0.00    +0.070 C 
ATOM     15  C   UNL     1       1.608  -2.546   2.404  0.00  0.00    +0.028 C 
BRANCH  14  16
ATOM     16  C   UNL     1       0.742  -0.511   1.242  0.00  0.00    +0.022 C 
BRANCH  16  18
ATOM     17  C   UNL     1      -0.019   1.526   0.010  0.00  0.00    +0.004 C 
ATOM     18  C   UNL     1       0.002  -0.004   0.002  0.00  0.00    -0.002 C 
ENDBRANCH  16  18
ENDBRANCH  14  16
ENDBRANCH  10  14
ENDBRANCH   9  11
ENDBRANCH   8   9
ENDBRANCH   1   8
BRANCH   6  19
ATOM     19  C   UNL     1      -2.582  -8.189  -0.664  0.00  0.00    +0.019 C 
BRANCH  19  20
ATOM     20  C   UNL     1      -1.774  -8.900   0.424  0.00  0.00    -0.082 C 
BRANCH  20  21
ATOM     21  N   UNL     1      -0.624  -9.579  -0.186  0.00  0.00    +0.378 N 
ATOM     22  H   UNL     1      -0.091 -10.049   0.531  0.00  0.00    -0.090 HD
ATOM     23  H   UNL     1      -0.951 -10.256  -0.860  0.00  0.00    -0.090 HD
ATOM     24  H   UNL     1      -0.039  -8.900  -0.650  0.00  0.00    -0.090 HD
ENDBRANCH  20  21
ENDBRANCH  19  20
ENDBRANCH   6  19
TORSDOF 9
