REMARK  Name = ZINC38681178
REMARK  14 active torsions:
REMARK  status: ('A' for Active; 'I' for Inactive)
REMARK    1  A    between atoms: C_1  and  C_2
REMARK    2  A    between atoms: C_2  and  O_3
REMARK    3  A    between atoms: O_3  and  C_4
REMARK    4  A    between atoms: C_9  and  C_10
REMARK    5  A    between atoms: C_10  and  O_12
REMARK    6  A    between atoms: O_12  and  C_13
REMARK    7  A    between atoms: C_20  and  N_38
REMARK    8  A    between atoms: C_21  and  C_36
REMARK    9  A    between atoms: C_22  and  C_24
REMARK   10  A    between atoms: C_27  and  O_32
REMARK   11  A    between atoms: C_28  and  O_30
REMARK   12  A    between atoms: O_30  and  C_31
REMARK   13  A    between atoms: O_32  and  C_33
REMARK   14  A    between atoms: C_33  and  C_34
REMARK                            x       y       z     vdW  Elec       q    Type
REMARK                         _______ _______ _______ _____ _____    ______ ____
ROOT
ATOM      1  C   UNL     1       3.105  -0.992  -5.407  0.00  0.00    +0.135 A 
ATOM      2  C   UNL     1       2.997   0.353  -5.083  0.00  0.00    +0.047 A 
ATOM      3  C   UNL     1       3.507   1.311  -5.936  0.00  0.00    +0.012 A 
ATOM      4  C   UNL     1       4.127   0.936  -7.115  0.00  0.00    +0.008 A 
ATOM      5  C   UNL     1       4.238  -0.406  -7.443  0.00  0.00    +0.138 A 
ATOM      6  C   UNL     1       3.731  -1.371  -6.583  0.00  0.00    +0.093 A 
ATOM      7  O   UNL     1       4.843  -0.793  -8.593  0.00  0.00    -0.441 OA
ATOM      8  C   UNL     1       5.668   0.052  -9.234  0.00  0.00    +0.199 C 
ATOM      9  C   UNL     1       5.639   1.387  -9.013  0.00  0.00    +0.098 C 
ATOM     10  C   UNL     1       4.677   1.996  -8.032  0.00  0.00    +0.098 C 
ENDROOT
BRANCH  10  11
ATOM     11  C   UNL     1       3.542   2.644  -8.783  0.00  0.00    -0.031 A 
ATOM     12  C   UNL     1       2.727   1.878  -9.596  0.00  0.00    +0.008 A 
ATOM     13  C   UNL     1       1.685   2.468 -10.287  0.00  0.00    +0.050 A 
ATOM     14  C   UNL     1       1.455   3.829 -10.165  0.00  0.00    +0.162 A 
ATOM     15  C   UNL     1       2.275   4.599  -9.347  0.00  0.00    +0.162 A 
ATOM     16  C   UNL     1       3.315   4.002  -8.653  0.00  0.00    +0.054 A 
BRANCH  15  17
ATOM     17  O   UNL     1       2.053   5.935  -9.224  0.00  0.00    -0.491 OA
ATOM     18  C   UNL     1       2.935   6.663  -8.367  0.00  0.00    +0.277 C 
ENDBRANCH  15  17
BRANCH  14  19
ATOM     19  O   UNL     1       0.430   4.410 -10.845  0.00  0.00    -0.484 OA
BRANCH  19  20
ATOM     20  C   UNL     1      -0.370   3.557 -11.666  0.00  0.00    +0.256 C 
BRANCH  20  21
ATOM     21  C   UNL     1      -1.447   4.371 -12.336  0.00  0.00    +0.006 C 
ATOM     22  C   UNL     1      -1.699   4.202 -13.610  0.00  0.00    +0.007 C 
ENDBRANCH  20  21
ENDBRANCH  19  20
ENDBRANCH  14  19
ENDBRANCH  10  11
BRANCH   8  23
ATOM     23  N   UNL     1       6.566  -0.454 -10.141  0.00  0.00    -0.328 N 
ATOM     24  H   UNL     1       6.598  -1.408 -10.311  0.00  0.00    +0.145 HD
ATOM     25  H   UNL     1       7.168   0.143 -10.612  0.00  0.00    +0.145 HD
ENDBRANCH   8  23
BRANCH   9  26
ATOM     26  C   UNL     1       6.544   2.236  -9.727  0.00  0.00    +0.101 C 
ATOM     27  N   UNL     1       7.262   2.910 -10.294  0.00  0.00    -0.191 NA
ENDBRANCH   9  26
BRANCH   1  28
ATOM     28  O   UNL     1       2.603  -1.936  -4.568  0.00  0.00    -0.422 OA
BRANCH  28  29
ATOM     29  C   UNL     1       3.468  -2.616  -3.790  0.00  0.00    +0.348 C 
ATOM     30  O   UNL     1       4.664  -2.441  -3.914  0.00  0.00    -0.244 OA
BRANCH  29  36
ATOM     31  C   UNL     1       3.861  -4.281  -1.976  0.00  0.00    +0.134 A 
ATOM     32  C   UNL     1       3.374  -5.173  -1.032  0.00  0.00    +0.046 A 
ATOM     33  C   UNL     1       2.014  -5.366  -0.897  0.00  0.00    +0.004 A 
ATOM     34  C   UNL     1       1.125  -4.671  -1.701  0.00  0.00    +0.001 A 
ATOM     35  C   UNL     1       1.589  -3.781  -2.644  0.00  0.00    +0.018 A 
ATOM     36  C   UNL     1       2.964  -3.572  -2.788  0.00  0.00    +0.101 A 
BRANCH  31  37
ATOM     37  O   UNL     1       5.197  -4.091  -2.109  0.00  0.00    -0.491 OA
BRANCH  37  39
ATOM     38  C   UNL     1       7.510  -4.503  -1.543  0.00  0.00    +0.048 C 
ATOM     39  C   UNL     1       6.049  -4.849  -1.248  0.00  0.00    +0.226 C 
ENDBRANCH  37  39
ENDBRANCH  31  37
ENDBRANCH  29  36
ENDBRANCH  28  29
ENDBRANCH   1  28
TORSDOF 12
