REMARK  Name = ZINC05287775
REMARK  5 active torsions:
REMARK  status: ('A' for Active; 'I' for Inactive)
REMARK    1  A    between atoms: C_7  and  C_11
REMARK    2  A    between atoms: C_11  and  C_12
REMARK    3  A    between atoms: C_12  and  N_13
REMARK    4  A    between atoms: C_14  and  C_15
REMARK    5  A    between atoms: C_20  and  O_21
REMARK                            x       y       z     vdW  Elec       q    Type
REMARK                         _______ _______ _______ _____ _____    ______ ____
ROOT
ATOM      1  C   UNL     1       0.238  -3.590  -1.466  0.00  0.00    +0.117 C 
ENDROOT
BRANCH   1   2
ATOM      2  N   UNL     1      -0.672  -4.738  -1.462  0.00  0.00    -0.389 N 
ATOM      3  C   UNL     1      -1.906  -4.586  -1.822  0.00  0.00    +0.089 C 
ATOM      4  H   UNL     1      -0.350  -5.611  -1.190  0.00  0.00    +0.159 HD
BRANCH   3   5
ATOM      5  C   UNL     1      -2.793  -5.759  -1.924  0.00  0.00    +0.033 A 
ATOM      6  C   UNL     1      -4.091  -5.617  -2.423  0.00  0.00    +0.028 A 
ATOM      7  C   UNL     1      -4.915  -6.718  -2.516  0.00  0.00    +0.019 A 
ATOM      8  C   UNL     1      -4.463  -7.966  -2.117  0.00  0.00    +0.019 A 
ATOM      9  C   UNL     1      -3.182  -8.119  -1.623  0.00  0.00    +0.047 A 
ATOM     10  C   UNL     1      -2.338  -7.024  -1.528  0.00  0.00    +0.125 A 
ATOM     11 BR   UNL     1      -6.672  -6.525  -3.189  0.00  0.00    -0.050 Br
BRANCH  10  12
ATOM     12  O   UNL     1      -1.077  -7.174  -1.048  0.00  0.00    -0.506 OA
ATOM     13  H   UNL     1      -1.006  -7.067  -0.089  0.00  0.00    +0.292 HD
ENDBRANCH  10  12
ENDBRANCH   3   5
ENDBRANCH   1   2
BRANCH   1  14
ATOM     14  C   UNL     1       0.680  -3.284  -0.034  0.00  0.00    +0.058 C 
BRANCH  14  21
ATOM     15  C   UNL     1      -0.006   1.353   0.027  0.00  0.00    +0.001 A 
ATOM     16  C   UNL     1       1.180   2.075   0.015  0.00  0.00    +0.002 A 
ATOM     17  C   UNL     1       2.396   1.429  -0.014  0.00  0.00    +0.026 A 
ATOM     18  C   UNL     1       2.439   0.038  -0.029  0.00  0.00    +0.047 A 
ATOM     19  C   UNL     1       1.235  -0.689  -0.016  0.00  0.00    +0.003 A 
ATOM     20  C   UNL     1       0.014  -0.013   0.012  0.00  0.00    +0.010 A 
ATOM     21  C   UNL     1       1.616  -2.103  -0.038  0.00  0.00    -0.021 A 
ATOM     22  C   UNL     1       2.958  -2.148  -0.062  0.00  0.00    +0.087 A 
ATOM     23  N   UNL     1       3.467  -0.878  -0.058  0.00  0.00    -0.360 N 
ATOM     24  H   UNL     1       4.411  -0.656  -0.072  0.00  0.00    +0.165 HD
ENDBRANCH  14  21
ENDBRANCH   1  14
TORSDOF 5
