REMARK  Name = ZINC20879814
REMARK  6 active torsions:
REMARK  status: ('A' for Active; 'I' for Inactive)
REMARK    1  A    between atoms: C_6  and  C_7
REMARK    2  A    between atoms: C_7  and  O_8
REMARK    3  A    between atoms: O_8  and  C_9
REMARK    4  A    between atoms: C_14  and  C_15
REMARK    5  A    between atoms: C_15  and  N_16
REMARK    6  A    between atoms: N_16  and  C_17
REMARK                            x       y       z     vdW  Elec       q    Type
REMARK                         _______ _______ _______ _____ _____    ______ ____
ROOT
ATOM      1  C   UNL     1      -2.917   2.995   1.558  0.00  0.00    +0.126 A 
ATOM      2  C   UNL     1      -3.660   3.414   0.464  0.00  0.00    +0.047 A 
ATOM      3  C   UNL     1      -4.855   4.081   0.656  0.00  0.00    +0.023 A 
ATOM      4  C   UNL     1      -5.310   4.331   1.939  0.00  0.00    +0.042 A 
ATOM      5  C   UNL     1      -4.569   3.915   3.031  0.00  0.00    +0.028 A 
ATOM      6  C   UNL     1      -3.377   3.242   2.842  0.00  0.00    +0.013 A 
ATOM      7 CL   UNL     1      -6.811   5.169   2.178  0.00  0.00    -0.084 Cl
ENDROOT
BRANCH   1   8
ATOM      8  O   UNL     1      -1.741   2.339   1.370  0.00  0.00    -0.487 OA
BRANCH   8   9
ATOM      9  C   UNL     1      -1.332   2.114   0.020  0.00  0.00    +0.264 C 
BRANCH   9  15
ATOM     10  C   UNL     1       1.171   2.086   0.002  0.00  0.00    +0.008 A 
ATOM     11  C   UNL     1       2.377   1.412  -0.013  0.00  0.00    +0.020 A 
ATOM     12  C   UNL     1       2.397   0.029  -0.021  0.00  0.00    +0.041 A 
ATOM     13  C   UNL     1       1.208  -0.679  -0.013  0.00  0.00    +0.020 A 
ATOM     14  C   UNL     1       0.002  -0.004   0.002  0.00  0.00    +0.008 A 
ATOM     15  C   UNL     1      -0.017   1.378   0.010  0.00  0.00    -0.010 A 
ATOM     16 CL   UNL     1       3.912  -0.818  -0.039  0.00  0.00    -0.084 Cl
ENDBRANCH   9  15
ENDBRANCH   8   9
ENDBRANCH   1   8
BRANCH   6  17
ATOM     17  C   UNL     1      -2.574   2.783   4.032  0.00  0.00    +0.140 C 
BRANCH  17  18
ATOM     18  N   UNL     1      -1.484   3.729   4.280  0.00  0.00    -0.340 N 
ATOM     19  H   UNL     1      -1.362   4.610   3.633  0.00  0.00    +0.146 HD
BRANCH  18  20
ATOM     20  C   UNL     1      -0.598   3.513   5.341  0.00  0.00    +0.029 A 
ATOM     21  C   UNL     1      -0.756   2.402   6.162  0.00  0.00    +0.025 A 
ATOM     22  C   UNL     1       0.118   2.180   7.207  0.00  0.00    +0.029 A 
ATOM     23  C   UNL     1       1.152   3.073   7.446  0.00  0.00    +0.067 A 
ATOM     24  C   UNL     1       1.311   4.192   6.627  0.00  0.00    +0.069 A 
ATOM     25  C   UNL     1       0.434   4.410   5.575  0.00  0.00    +0.050 A 
ATOM     26  N   UNL     1       2.417   4.889   7.107  0.00  0.00    -0.306 N 
ATOM     27  H   UNL     1       2.738   5.818   6.613  0.00  0.00    +0.170 HD
ATOM     28  C   UNL     1       2.910   4.225   8.169  0.00  0.00    +0.325 A 
ATOM     29  O   UNL     1       3.878   4.568   8.822  0.00  0.00    -0.247 OA
ATOM     30  N   UNL     1       2.169   3.125   8.400  0.00  0.00    -0.306 N 
ATOM     31  H   UNL     1       2.248   2.337   9.164  0.00  0.00    +0.170 HD
ENDBRANCH  18  20
ENDBRANCH  17  18
ENDBRANCH   6  17
TORSDOF 6
