REMARK  Name = ZINC16713018
REMARK  8 active torsions:
REMARK  status: ('A' for Active; 'I' for Inactive)
REMARK    1  A    between atoms: C_4  and  C_7
REMARK    2  A    between atoms: C_8  and  C_9
REMARK    3  A    between atoms: N_10  and  N_11
REMARK    4  A    between atoms: N_13  and  C_30
REMARK    5  A    between atoms: C_16  and  C_19
REMARK    6  A    between atoms: C_19  and  C_20
REMARK    7  A    between atoms: N_22  and  C_23
REMARK    8  A    between atoms: C_33  and  O_36
REMARK                            x       y       z     vdW  Elec       q    Type
REMARK                         _______ _______ _______ _____ _____    ______ ____
ROOT
ATOM      1  N   UNL     1       1.017   3.447  -0.631  0.00  0.00    -0.126 NA
ATOM      2  C   UNL     1       0.990   2.191  -0.230  0.00  0.00    +0.190 C 
ATOM      3  N   UNL     1      -0.112   1.412   0.055  0.00  0.00    -0.217 N 
ATOM      4  C   UNL     1      -0.006   0.155   0.451  0.00  0.00    +0.239 C 
ATOM      5  O   UNL     1      -0.978  -0.526   0.700  0.00  0.00    -0.274 OA
ATOM      6  C   UNL     1       1.411  -0.383   0.574  0.00  0.00    +0.149 C 
ATOM      7  S   UNL     1       2.371   1.099   0.070  0.00  0.00    -0.075 S 
ENDROOT
BRANCH   3   8
ATOM      8  C   UNL     1      -1.390   1.972  -0.086  0.00  0.00    +0.043 A 
ATOM      9  C   UNL     1      -1.975   2.644   0.979  0.00  0.00    +0.027 A 
ATOM     10  C   UNL     1      -3.232   3.199   0.838  0.00  0.00    +0.047 A 
ATOM     11  C   UNL     1      -3.914   3.075  -0.363  0.00  0.00    +0.117 A 
ATOM     12  C   UNL     1      -3.333   2.398  -1.426  0.00  0.00    +0.047 A 
ATOM     13  C   UNL     1      -2.074   1.848  -1.288  0.00  0.00    +0.027 A 
BRANCH  11  14
ATOM     14  O   UNL     1      -5.154   3.617  -0.500  0.00  0.00    -0.507 OA
ATOM     15  H   UNL     1      -5.873   3.019  -0.256  0.00  0.00    +0.292 HD
ENDBRANCH  11  14
ENDBRANCH   3   8
BRANCH   1  17
ATOM     16  C   UNL     1      -0.065   5.328  -1.234  0.00  0.00    +0.135 C 
ATOM     17  N   UNL     1      -0.082   4.111  -0.747  0.00  0.00    -0.155 NA
BRANCH  16  19
ATOM     18  C   UNL     1      -1.257   7.309  -1.855  0.00  0.00    +0.009 C 
ATOM     19  C   UNL     1      -1.248   6.098  -1.253  0.00  0.00    +0.022 C 
BRANCH  18  23
ATOM     20  C   UNL     1      -4.812   9.621  -1.912  0.00  0.00    +0.000 A 
ATOM     21  C   UNL     1      -3.664  10.110  -2.510  0.00  0.00    +0.001 A 
ATOM     22  C   UNL     1      -2.504   9.365  -2.496  0.00  0.00    +0.008 A 
ATOM     23  C   UNL     1      -2.490   8.111  -1.874  0.00  0.00    -0.025 A 
ATOM     24  C   UNL     1      -3.657   7.622  -1.277  0.00  0.00    +0.008 A 
ATOM     25  C   UNL     1      -4.807   8.382  -1.295  0.00  0.00    +0.001 A 
ENDBRANCH  18  23
ENDBRANCH  16  19
ENDBRANCH   1  17
BRANCH   6  26
ATOM     26  C   UNL     1       1.727  -0.785   2.016  0.00  0.00    +0.120 C 
BRANCH  26  27
ATOM     27  C   UNL     1       3.091  -1.424   2.071  0.00  0.00    +0.219 C 
ATOM     28  O   UNL     1       3.745  -1.547   1.057  0.00  0.00    -0.275 OA
ATOM     29  N   UNL     1       3.583  -1.861   3.247  0.00  0.00    -0.285 N 
ATOM     30  H   UNL     1       3.036  -1.821   4.047  0.00  0.00    +0.155 HD
BRANCH  29  31
ATOM     31  C   UNL     1       4.886  -2.371   3.315  0.00  0.00    +0.034 A 
ATOM     32  C   UNL     1       5.187  -3.392   4.207  0.00  0.00    +0.026 A 
ATOM     33  C   UNL     1       6.470  -3.898   4.268  0.00  0.00    +0.040 A 
ATOM     34  C   UNL     1       7.459  -3.381   3.448  0.00  0.00    +0.124 A 
ATOM     35  C   UNL     1       7.162  -2.360   2.561  0.00  0.00    +0.040 A 
ATOM     36  C   UNL     1       5.878  -1.854   2.493  0.00  0.00    +0.026 A 
ATOM     37  F   UNL     1       8.716  -3.873   3.514  0.00  0.00    -0.205 F 
ENDBRANCH  29  31
ENDBRANCH  26  27
ENDBRANCH   6  26
TORSDOF 8
