REMARK  Name = ZINC63573414
REMARK  5 active torsions:
REMARK  status: ('A' for Active; 'I' for Inactive)
REMARK    1  A    between atoms: C_1  and  C_2
REMARK    2  A    between atoms: C_5  and  C_8
REMARK    3  A    between atoms: C_15  and  O_20
REMARK    4  A    between atoms: O_20  and  C_21
REMARK    5  A    between atoms: N_27  and  C_28
REMARK                            x       y       z     vdW  Elec       q    Type
REMARK                         _______ _______ _______ _____ _____    ______ ____
ROOT
ATOM      1  C   UNL     1      -0.500  -4.596   0.769  0.00  0.00    +0.134 C 
ATOM      2  C   UNL     1      -1.597  -5.484   1.366  0.00  0.00    +0.131 C 
ATOM      3  C   UNL     1      -1.083  -6.916   1.296  0.00  0.00    -0.035 C 
ATOM      4  C   UNL     1      -1.991  -7.609   0.621  0.00  0.00    +0.003 A 
ATOM      5  C   UNL     1      -2.090  -9.039   0.289  0.00  0.00    +0.055 A 
ATOM      6  C   UNL     1      -3.171  -9.422  -0.444  0.00  0.00    +0.121 A 
ATOM      7  C   UNL     1      -4.170  -8.543  -0.888  0.00  0.00    +0.047 A 
ATOM      8  C   UNL     1      -4.179  -7.209  -0.636  0.00  0.00    +0.029 A 
ATOM      9  C   UNL     1      -3.062  -6.674   0.154  0.00  0.00    +0.043 A 
ATOM     10  N   UNL     1      -2.824  -5.444   0.567  0.00  0.00    -0.375 N 
ATOM     11  C   UNL     1       0.259  -7.324   1.856  0.00  0.00    +0.052 C 
ATOM     12  C   UNL     1       1.294  -6.336   1.287  0.00  0.00    +0.114 C 
ATOM     13  N   UNL     1       0.776  -4.968   1.400  0.00  0.00    -0.276 N 
ATOM     14  C   UNL     1       1.476  -4.044   2.088  0.00  0.00    +0.307 C 
ATOM     15  O   UNL     1       0.982  -2.958   2.322  0.00  0.00    -0.252 OA
ATOM     16  N   UNL     1       2.723  -4.324   2.516  0.00  0.00    -0.269 N 
ATOM     17  H   UNL     1       3.153  -5.152   2.249  0.00  0.00    +0.156 HD
ATOM     18  H   UNL     1      -3.353  -4.653   0.379  0.00  0.00    +0.160 HD
ENDROOT
BRANCH   1  23
ATOM     19  C   UNL     1      -1.669   0.957   1.861  0.00  0.00    +0.044 C 
ATOM     20  C   UNL     1      -1.364  -0.491   1.576  0.00  0.00    -0.050 A 
ATOM     21  C   UNL     1      -1.654  -1.457   2.522  0.00  0.00    +0.004 A 
ATOM     22  C   UNL     1      -1.375  -2.785   2.260  0.00  0.00    +0.006 A 
ATOM     23  C   UNL     1      -0.805  -3.148   1.054  0.00  0.00    -0.025 A 
ATOM     24  C   UNL     1      -0.516  -2.182   0.108  0.00  0.00    +0.006 A 
ATOM     25  C   UNL     1      -0.800  -0.854   0.368  0.00  0.00    +0.004 A 
ENDBRANCH   1  23
BRANCH  16  26
ATOM     26  C   UNL     1       3.397  -3.421   3.344  0.00  0.00    +0.036 A 
ATOM     27  C   UNL     1       3.141  -2.059   3.244  0.00  0.00    +0.023 A 
ATOM     28  C   UNL     1       3.808  -1.170   4.063  0.00  0.00    +0.003 A 
ATOM     29  C   UNL     1       4.730  -1.633   4.983  0.00  0.00    +0.015 A 
ATOM     30  C   UNL     1       4.989  -2.988   5.086  0.00  0.00    +0.020 A 
ATOM     31  C   UNL     1       4.320  -3.884   4.272  0.00  0.00    +0.038 A 
ATOM     32 BR   UNL     1       6.252  -3.616   6.345  0.00  0.00    -0.050 Br
ENDBRANCH  16  26
BRANCH   6  33
ATOM     33  O   UNL     1      -3.290 -10.738  -0.766  0.00  0.00    -0.495 OA
ATOM     34  C   UNL     1      -4.433 -11.116  -1.536  0.00  0.00    +0.277 C 
ENDBRANCH   6  33
TORSDOF 3
