REMARK  Name = ZINC09291734
REMARK  9 active torsions:
REMARK  status: ('A' for Active; 'I' for Inactive)
REMARK    1  A    between atoms: C_1  and  C_2
REMARK    2  A    between atoms: C_10  and  C_13
REMARK    3  A    between atoms: C_16  and  S_19
REMARK    4  A    between atoms: S_19  and  C_20
REMARK    5  A    between atoms: C_21  and  C_29
REMARK    6  A    between atoms: C_32  and  O_37
REMARK    7  A    between atoms: C_33  and  O_35
REMARK    8  A    between atoms: O_35  and  C_36
REMARK    9  A    between atoms: O_37  and  C_38
REMARK                            x       y       z     vdW  Elec       q    Type
REMARK                         _______ _______ _______ _____ _____    ______ ____
ROOT
ATOM      1  C   UNL     1       0.035   1.420  -0.388  0.00  0.00    +0.044 C 
ATOM      2  C   UNL     1       0.041  -0.085  -0.301  0.00  0.00    -0.050 A 
ATOM      3  C   UNL     1       0.032  -0.842  -1.460  0.00  0.00    +0.007 A 
ATOM      4  C   UNL     1       0.039  -2.223  -1.396  0.00  0.00    +0.046 A 
ATOM      5  C   UNL     1       0.054  -2.856  -0.165  0.00  0.00    +0.131 A 
ATOM      6  C   UNL     1       0.062  -2.089   1.007  0.00  0.00    +0.043 A 
ATOM      7  C   UNL     1       0.061  -0.703   0.935  0.00  0.00    +0.017 A 
ATOM      8  C   UNL     1       0.073  -2.799   2.311  0.00  0.00    +0.083 C 
ATOM      9  C   UNL     1      -0.253  -4.109   2.310  0.00  0.00    +0.028 C 
ATOM     10  C   UNL     1      -0.620  -4.804   1.032  0.00  0.00    +0.234 C 
ATOM     11  O   UNL     1       0.065  -4.210  -0.073  0.00  0.00    -0.479 OA
ATOM     12  C   UNL     1      -0.235  -4.846   3.630  0.00  0.00    +0.163 C 
ATOM     13  N   UNL     1       0.140  -4.050   4.809  0.00  0.00    -0.182 N 
ATOM     14  C   UNL     1       0.437  -2.729   4.641  0.00  0.00    +0.209 C 
ATOM     15  N   UNL     1       0.399  -2.156   3.459  0.00  0.00    -0.216 NA
ATOM     16  N   UNL     1       0.744  -2.243   5.885  0.00  0.00    -0.275 N 
ATOM     17  C   UNL     1       0.632  -3.272   6.788  0.00  0.00    +0.208 C 
ATOM     18  N   UNL     1       0.275  -4.350   6.165  0.00  0.00    -0.169 NA
ATOM     19  H   UNL     1       0.997  -1.329   6.093  0.00  0.00    +0.156 HD
ENDROOT
BRANCH  10  20
ATOM     20  C   UNL     1      -2.106  -4.689   0.810  0.00  0.00    -0.003 A 
ATOM     21  C   UNL     1      -2.926  -5.774   1.060  0.00  0.00    +0.008 A 
ATOM     22  C   UNL     1      -4.288  -5.673   0.858  0.00  0.00    +0.015 A 
ATOM     23  C   UNL     1      -4.835  -4.479   0.403  0.00  0.00    +0.008 A 
ATOM     24  C   UNL     1      -4.007  -3.391   0.153  0.00  0.00    +0.015 A 
ATOM     25  C   UNL     1      -2.647  -3.498   0.363  0.00  0.00    +0.008 A 
BRANCH  23  26
ATOM     26  S   UNL     1      -6.572  -4.345   0.143  0.00  0.00    -0.129 S 
ATOM     27  C   UNL     1      -6.800  -2.642  -0.437  0.00  0.00    +0.090 C 
ENDBRANCH  23  26
ENDBRANCH  10  20
BRANCH  12  28
ATOM     28  C   UNL     1       0.735  -5.993   3.515  0.00  0.00    -0.017 A 
ATOM     29  C   UNL     1       2.092  -5.765   3.649  0.00  0.00    +0.009 A 
ATOM     30  C   UNL     1       2.986  -6.814   3.544  0.00  0.00    +0.050 A 
ATOM     31  C   UNL     1       2.522  -8.098   3.304  0.00  0.00    +0.162 A 
ATOM     32  C   UNL     1       1.157  -8.327   3.168  0.00  0.00    +0.162 A 
ATOM     33  C   UNL     1       0.266  -7.272   3.280  0.00  0.00    +0.055 A 
BRANCH  32  34
ATOM     34  O   UNL     1       0.697  -9.585   2.932  0.00  0.00    -0.491 OA
ATOM     35  C   UNL     1      -0.717  -9.746   2.805  0.00  0.00    +0.277 C 
ENDBRANCH  32  34
BRANCH  31  36
ATOM     36  O   UNL     1       3.401  -9.131   3.199  0.00  0.00    -0.491 OA
ATOM     37  C   UNL     1       4.787  -8.821   3.349  0.00  0.00    +0.277 C 
ENDBRANCH  31  36
ENDBRANCH  12  28
TORSDOF 5
