REMARK  Name = ZINC13611293
REMARK  3 active torsions:
REMARK  status: ('A' for Active; 'I' for Inactive)
REMARK    1  A    between atoms: C_1  and  C_2
REMARK    2  A    between atoms: C_6  and  N_8
REMARK    3  A    between atoms: C_22  and  C_25
REMARK                            x       y       z     vdW  Elec       q    Type
REMARK                         _______ _______ _______ _____ _____    ______ ____
ROOT
ATOM      1  N   UNL     1      -0.069   5.241   0.030  0.00  0.00    -0.217 N 
ATOM      2  C   UNL     1       1.021   6.035   0.024  0.00  0.00    +0.281 A 
ATOM      3  O   UNL     1       2.182   5.672   0.011  0.00  0.00    -0.265 OA
ATOM      4  C   UNL     1       0.538   7.426   0.036  0.00  0.00    +0.089 A 
ATOM      5  C   UNL     1       1.170   8.664   0.039  0.00  0.00    -0.019 A 
ATOM      6  C   UNL     1       0.364   9.807   0.050  0.00  0.00    +0.040 A 
ATOM      7  C   UNL     1      -1.029   9.669   0.061  0.00  0.00    +0.124 A 
ATOM      8  N   UNL     1      -1.591   8.479   0.061  0.00  0.00    -0.235 NA
ATOM      9  C   UNL     1      -0.871   7.364   0.049  0.00  0.00    +0.159 A 
ATOM     10  N   UNL     1      -1.221   6.033   0.039  0.00  0.00    -0.273 N 
ATOM     11  H   UNL     1      -2.130   5.695   0.040  0.00  0.00    +0.189 HD
ATOM     12  C   UNL     1       0.981  11.143   0.045  0.00  0.00    +0.165 C 
ATOM     13  O   UNL     1       0.320  12.139  -0.157  0.00  0.00    -0.292 OA
ATOM     14  C   UNL     1       2.472  11.228   0.302  0.00  0.00    +0.088 C 
ATOM     15  C   UNL     1       3.142  10.101  -0.494  0.00  0.00    +0.038 C 
ATOM     16  C   UNL     1       2.668   8.751   0.038  0.00  0.00    +0.046 C 
ENDROOT
BRANCH   1  22
ATOM     17  C   UNL     1      -2.514   0.976   0.019  0.00  0.00    +0.044 C 
ATOM     18  C   UNL     1      -1.220   1.750   0.017  0.00  0.00    -0.048 A 
ATOM     19  C   UNL     1      -0.013   1.076   0.008  0.00  0.00    +0.003 A 
ATOM     20  C   UNL     1       1.176   1.782   0.000  0.00  0.00    +0.002 A 
ATOM     21  C   UNL     1       1.161   3.163   0.007  0.00  0.00    +0.028 A 
ATOM     22  C   UNL     1      -0.050   3.842   0.022  0.00  0.00    +0.067 A 
ATOM     23  C   UNL     1      -1.243   3.130   0.030  0.00  0.00    +0.031 A 
ENDBRANCH   1  22
BRANCH  15  24
ATOM     24  C   UNL     1       4.639  10.203  -0.346  0.00  0.00    -0.006 A 
ATOM     25  C   UNL     1       5.581  10.378  -1.304  0.00  0.00    +0.011 A 
ATOM     26  C   UNL     1       6.911  10.443  -0.932  0.00  0.00    +0.008 A 
ATOM     27  C   UNL     1       7.233  10.331   0.380  0.00  0.00    +0.045 A 
ATOM     28  S   UNL     1       5.629  10.131   1.138  0.00  0.00    -0.101 S 
ENDBRANCH  15  24
TORSDOF 2
