REMARK  Name = ZINC35484157
REMARK  17 active torsions:
REMARK  status: ('A' for Active; 'I' for Inactive)
REMARK    1  A    between atoms: C_1  and  C_2
REMARK    2  A    between atoms: C_9  and  C_12
REMARK    3  A    between atoms: C_10  and  C_11
REMARK    4  A    between atoms: C_12  and  C_13
REMARK    5  A    between atoms: C_14  and  C_25
REMARK    6  A    between atoms: N_16  and  C_21
REMARK    7  A    between atoms: C_21  and  C_22
REMARK    8  A    between atoms: C_22  and  O_23
REMARK    9  A    between atoms: O_23  and  C_24
REMARK   10  A    between atoms: C_28  and  O_33
REMARK   11  A    between atoms: C_29  and  O_31
REMARK   12  A    between atoms: O_31  and  C_32
REMARK   13  A    between atoms: O_33  and  C_34
REMARK   14  A    between atoms: C_34  and  C_35
REMARK   15  A    between atoms: C_35  and  C_36
REMARK   16  A    between atoms: C_36  and  C_37
REMARK   17  A    between atoms: C_36  and  C_38
REMARK                            x       y       z     vdW  Elec       q    Type
REMARK                         _______ _______ _______ _____ _____    ______ ____
ROOT
ATOM      1  C   UNL     1      -0.350  -0.145   5.544  0.00  0.00    +0.078 C 
ATOM      2  C   UNL     1      -0.566   1.201   4.892  0.00  0.00    +0.145 C 
ATOM      3  N   UNL     1      -0.389   2.201   5.950  0.00  0.00    -0.281 N 
ATOM      4  C   UNL     1      -0.103   1.549   7.092  0.00  0.00    +0.288 C 
ATOM      5  O   UNL     1       0.103   2.080   8.165  0.00  0.00    -0.266 OA
ATOM      6  C   UNL     1      -0.083   0.092   6.849  0.00  0.00    +0.249 C 
ATOM      7  O   UNL     1       0.167  -0.855   7.783  0.00  0.00    -0.282 OA
ENDROOT
BRANCH   2   8
ATOM      8  C   UNL     1      -1.961   1.285   4.327  0.00  0.00    -0.019 A 
ATOM      9  C   UNL     1      -3.046   1.374   5.180  0.00  0.00    +0.009 A 
ATOM     10  C   UNL     1      -4.327   1.452   4.667  0.00  0.00    +0.050 A 
ATOM     11  C   UNL     1      -4.527   1.441   3.296  0.00  0.00    +0.162 A 
ATOM     12  C   UNL     1      -3.435   1.352   2.438  0.00  0.00    +0.162 A 
ATOM     13  C   UNL     1      -2.153   1.279   2.958  0.00  0.00    +0.055 A 
BRANCH  12  14
ATOM     14  O   UNL     1      -3.625   1.341   1.091  0.00  0.00    -0.491 OA
ATOM     15  C   UNL     1      -2.470   1.140   0.274  0.00  0.00    +0.277 C 
ENDBRANCH  12  14
BRANCH  11  16
ATOM     16  O   UNL     1      -5.787   1.517   2.790  0.00  0.00    -0.488 OA
BRANCH  16  17
ATOM     17  C   UNL     1      -6.859   1.606   3.730  0.00  0.00    +0.229 C 
BRANCH  17  18
ATOM     18  C   UNL     1      -8.190   1.682   2.980  0.00  0.00    +0.044 C 
BRANCH  18  19
ATOM     19  C   UNL     1      -9.338   1.777   3.987  0.00  0.00    -0.014 C 
ATOM     20  C   UNL     1     -10.658   1.979   3.238  0.00  0.00    +0.007 C 
ATOM     21  C   UNL     1      -9.408   0.486   4.804  0.00  0.00    +0.007 C 
ENDBRANCH  18  19
ENDBRANCH  17  18
ENDBRANCH  16  17
ENDBRANCH  11  16
ENDBRANCH   2   8
BRANCH   1  22
ATOM     22  C   UNL     1      -0.423  -1.456   4.890  0.00  0.00    +0.215 C 
ATOM     23  O   UNL     1      -0.505  -1.527   3.678  0.00  0.00    -0.285 OA
BRANCH  22  32
ATOM     24  C   UNL     1      -0.497  -3.779   9.939  0.00  0.00    +0.047 C 
ATOM     25  C   UNL     1      -0.416  -4.626   8.695  0.00  0.00    -0.008 A 
ATOM     26  C   UNL     1      -0.364  -5.981   8.789  0.00  0.00    +0.008 A 
ATOM     27  C   UNL     1      -0.288  -6.758   7.621  0.00  0.00    +0.018 A 
ATOM     28  C   UNL     1      -0.265  -6.167   6.409  0.00  0.00    +0.093 A 
ATOM     29  N   UNL     1      -0.317  -4.805   6.297  0.00  0.00    -0.303 N 
ATOM     30  C   UNL     1      -0.398  -4.019   7.420  0.00  0.00    +0.141 A 
ATOM     31  N   UNL     1      -0.441  -2.752   7.045  0.00  0.00    -0.224 NA
ATOM     32  C   UNL     1      -0.396  -2.688   5.702  0.00  0.00    +0.133 A 
ATOM     33  C   UNL     1      -0.309  -3.975   5.218  0.00  0.00    +0.051 A 
ATOM     34  C   UNL     1      -0.236  -4.386   3.770  0.00  0.00    +0.066 C 
ENDBRANCH  22  32
ENDBRANCH   1  22
BRANCH   3  35
ATOM     35  C   UNL     1      -0.502   3.653   5.792  0.00  0.00    +0.137 C 
BRANCH  35  36
ATOM     36  C   UNL     1      -1.948   4.083   6.045  0.00  0.00    +0.178 C 
BRANCH  36  37
ATOM     37  O   UNL     1      -2.291   3.823   7.407  0.00  0.00    -0.381 OA
ATOM     38  C   UNL     1      -3.629   4.190   7.750  0.00  0.00    +0.194 C 
ENDBRANCH  36  37
ENDBRANCH  35  36
ENDBRANCH   3  35
TORSDOF 11
