REMARK  Name = ZINC36661876
REMARK  7 active torsions:
REMARK  status: ('A' for Active; 'I' for Inactive)
REMARK    1  A    between atoms: C_1  and  C_2
REMARK    2  A    between atoms: C_5  and  N_8
REMARK    3  A    between atoms: C_12  and  S_13
REMARK    4  A    between atoms: S_13  and  C_14
REMARK    5  A    between atoms: C_14  and  C_15
REMARK    6  A    between atoms: N_17  and  C_18
REMARK    7  A    between atoms: C_23  and  C_24
REMARK                            x       y       z     vdW  Elec       q    Type
REMARK                         _______ _______ _______ _____ _____    ______ ____
ROOT
ATOM      1  C   UNL     1       4.062  -5.752   3.277  0.00  0.00    +0.228 C 
ATOM      2  O   UNL     1       4.348  -4.604   3.544  0.00  0.00    -0.275 OA
ATOM      3  N   UNL     1       4.753  -6.766   3.836  0.00  0.00    -0.284 N 
ATOM      4  H   UNL     1       4.475  -7.683   3.686  0.00  0.00    +0.155 HD
ENDROOT
BRANCH   3   5
ATOM      5  C   UNL     1       5.869  -6.495   4.629  0.00  0.00    +0.043 A 
ATOM      6  C   UNL     1       6.581  -5.318   4.453  0.00  0.00    +0.024 A 
ATOM      7  C   UNL     1       7.685  -5.052   5.239  0.00  0.00    +0.002 A 
ATOM      8  C   UNL     1       8.088  -5.956   6.208  0.00  0.00    +0.001 A 
ATOM      9  C   UNL     1       7.392  -7.131   6.396  0.00  0.00    +0.012 A 
ATOM     10  C   UNL     1       6.272  -7.410   5.612  0.00  0.00    +0.028 A 
BRANCH  10  11
ATOM     11  C   UNL     1       5.518  -8.664   5.813  0.00  0.00    +0.111 A 
ATOM     12  N   UNL     1       4.455  -9.100   5.171  0.00  0.00    -0.239 NA
ATOM     13  C   UNL     1       3.865 -10.276   5.463  0.00  0.00    +0.079 A 
ATOM     14  C   UNL     1       2.727 -10.858   4.855  0.00  0.00    +0.029 A 
ATOM     15  C   UNL     1       2.253 -12.062   5.272  0.00  0.00    +0.002 A 
ATOM     16  C   UNL     1       2.861 -12.768   6.301  0.00  0.00    +0.001 A 
ATOM     17  C   UNL     1       3.976 -12.236   6.921  0.00  0.00    +0.017 A 
ATOM     18  C   UNL     1       4.462 -11.019   6.509  0.00  0.00    +0.040 A 
ATOM     19  S   UNL     1       5.821  -9.980   6.985  0.00  0.00    -0.067 S 
ENDBRANCH  10  11
ENDBRANCH   3   5
BRANCH   1  20
ATOM     20  C   UNL     1       2.934  -6.045   2.322  0.00  0.00    +0.173 C 
BRANCH  20  21
ATOM     21  S   UNL     1       2.208  -4.486   1.746  0.00  0.00    -0.076 S 
BRANCH  21  26
ATOM     22  N   UNL     1       0.075  -4.173  -0.041  0.00  0.00    -0.277 N 
ATOM     23  C   UNL     1      -0.742  -5.007  -0.757  0.00  0.00    +0.230 A 
ATOM     24  N   UNL     1      -0.385  -6.230  -0.481  0.00  0.00    -0.137 NA
ATOM     25  N   UNL     1       0.594  -6.227   0.352  0.00  0.00    -0.122 NA
ATOM     26  C   UNL     1       0.922  -4.992   0.653  0.00  0.00    +0.196 A 
BRANCH  22  31
ATOM     27  C   UNL     1      -0.020   1.502   0.011  0.00  0.00    +0.044 C 
ATOM     28  C   UNL     1       0.005  -0.004  -0.003  0.00  0.00    -0.050 A 
ATOM     29  C   UNL     1       0.019  -0.683  -1.207  0.00  0.00    +0.005 A 
ATOM     30  C   UNL     1       0.042  -2.064  -1.223  0.00  0.00    +0.026 A 
ATOM     31  C   UNL     1       0.052  -2.770  -0.028  0.00  0.00    +0.050 A 
ATOM     32  C   UNL     1       0.038  -2.086   1.179  0.00  0.00    +0.026 A 
ATOM     33  C   UNL     1       0.021  -0.705   1.189  0.00  0.00    +0.005 A 
ENDBRANCH  22  31
ENDBRANCH  21  26
ENDBRANCH  20  21
ENDBRANCH   1  20
TORSDOF 6
