REMARK  Name = ZINC59501141
REMARK  13 active torsions:
REMARK  status: ('A' for Active; 'I' for Inactive)
REMARK    1  A    between atoms: C_1  and  C_2
REMARK    2  A    between atoms: C_2  and  N_3
REMARK    3  A    between atoms: N_3  and  C_4
REMARK    4  A    between atoms: N_3  and  C_6
REMARK    5  A    between atoms: C_4  and  C_5
REMARK    6  A    between atoms: C_10  and  C_12
REMARK    7  A    between atoms: C_12  and  O_14
REMARK    8  A    between atoms: O_14  and  C_15
REMARK    9  A    between atoms: C_15  and  C_16
REMARK   10  A    between atoms: C_16  and  C_18
REMARK   11  A    between atoms: C_18  and  O_41
REMARK   12  A    between atoms: C_23  and  C_40
REMARK   13  A    between atoms: C_38  and  C_39
REMARK                            x       y       z     vdW  Elec       q    Type
REMARK                         _______ _______ _______ _____ _____    ______ ____
ROOT
ATOM      1  C   UNL     1       9.194  -3.210   5.385  0.00  0.00    +0.133 C 
ATOM      2  C   UNL     1       9.240  -4.752   5.364  0.00  0.00    +0.043 C 
ATOM      3  C   UNL     1      10.715  -5.143   5.128  0.00  0.00    +0.008 C 
ATOM      4  C   UNL     1      11.515  -3.908   5.640  0.00  0.00    +0.002 C 
ATOM      5  C   UNL     1      10.636  -2.744   5.151  0.00  0.00    +0.007 C 
ATOM      6  C   UNL     1      10.947  -1.438   5.845  0.00  0.00    +0.010 C 
ATOM      7  C   UNL     1      10.881  -1.595   7.363  0.00  0.00    +0.005 C 
ATOM      8  C   UNL     1      11.903  -2.655   7.792  0.00  0.00    +0.006 C 
ATOM      9  C   UNL     1      11.527  -4.002   7.170  0.00  0.00    -0.003 C 
ATOM     10  C   UNL     1      12.525  -5.089   7.579  0.00  0.00    +0.008 C 
ATOM     11  C   UNL     1      12.486  -5.288   9.097  0.00  0.00    +0.032 C 
ATOM     12  C   UNL     1      12.745  -3.943   9.749  0.00  0.00    -0.056 C 
ATOM     13  C   UNL     1      13.700  -3.843  10.663  0.00  0.00    +0.051 C 
ATOM     14  C   UNL     1      13.992  -2.549  11.300  0.00  0.00    +0.179 C 
ATOM     15  O   UNL     1      14.842  -2.460  12.166  0.00  0.00    -0.288 OA
ATOM     16  C   UNL     1      13.232  -1.365  10.866  0.00  0.00    +0.047 C 
ATOM     17  C   UNL     1      12.278  -1.490   9.957  0.00  0.00    -0.012 C 
ATOM     18  C   UNL     1      11.869  -2.766   9.320  0.00  0.00    +0.011 C 
ATOM     19  C   UNL     1      10.424  -3.056   9.733  0.00  0.00    +0.020 C 
ATOM     20  C   UNL     1      10.858  -2.553   3.649  0.00  0.00    +0.015 C 
ENDROOT
BRANCH   1  21
ATOM     21  C   UNL     1       8.298  -2.702   4.284  0.00  0.00    +0.202 C 
ATOM     22  O   UNL     1       8.112  -3.375   3.299  0.00  0.00    -0.291 OA
BRANCH  21  23
ATOM     23  C   UNL     1       7.636  -1.355   4.413  0.00  0.00    +0.309 C 
BRANCH  23  24
ATOM     24  O   UNL     1       6.844  -1.100   3.251  0.00  0.00    -0.453 OA
BRANCH  24  25
ATOM     25  C   UNL     1       6.181   0.071   3.208  0.00  0.00    +0.340 C 
ATOM     26  O   UNL     1       6.272   0.855   4.131  0.00  0.00    -0.245 OA
BRANCH  25  31
ATOM     27  C   UNL     1       3.869   1.919   0.889  0.00  0.00    +0.030 A 
ATOM     28  C   UNL     1       3.770   1.016  -0.164  0.00  0.00    +0.023 A 
ATOM     29  C   UNL     1       4.452  -0.184  -0.118  0.00  0.00    +0.003 A 
ATOM     30  C   UNL     1       5.236  -0.496   0.974  0.00  0.00    +0.015 A 
ATOM     31  C   UNL     1       5.343   0.403   2.037  0.00  0.00    +0.061 A 
ATOM     32  C   UNL     1       4.658   1.618   1.988  0.00  0.00    +0.038 A 
BRANCH  27  33
ATOM     33  N   UNL     1       3.177   3.132   0.836  0.00  0.00    -0.330 N 
BRANCH  33  35
ATOM     34  C   UNL     1       3.185   4.179  -1.374  0.00  0.00    +0.024 C 
ATOM     35  C   UNL     1       2.343   3.450  -0.325  0.00  0.00    +0.102 C 
ENDBRANCH  33  35
BRANCH  33  36
ATOM     36  C   UNL     1       3.286   4.086   1.943  0.00  0.00    +0.102 C 
ATOM     37  C   UNL     1       2.191   3.800   2.973  0.00  0.00    +0.024 C 
ENDBRANCH  33  36
ENDBRANCH  27  33
ENDBRANCH  25  31
ENDBRANCH  24  25
ENDBRANCH  23  24
ENDBRANCH  21  23
ENDBRANCH   1  21
BRANCH   1  38
ATOM     38  O   UNL     1       8.726  -2.747   6.653  0.00  0.00    -0.380 OA
ATOM     39  H   UNL     1       7.824  -3.024   6.865  0.00  0.00    +0.211 HD
ENDBRANCH   1  38
TORSDOF 9
