REMARK  Name = ZINC27240191
REMARK  12 active torsions:
REMARK  status: ('A' for Active; 'I' for Inactive)
REMARK    1  A    between atoms: C_1  and  C_2
REMARK    2  A    between atoms: C_2  and  C_3
REMARK    3  A    between atoms: C_6  and  C_9
REMARK    4  A    between atoms: C_9  and  C_10
REMARK    5  A    between atoms: C_9  and  C_18
REMARK    6  A    between atoms: C_9  and  O_35
REMARK    7  A    between atoms: C_13  and  O_16
REMARK    8  A    between atoms: O_16  and  C_17
REMARK    9  A    between atoms: C_18  and  C_20
REMARK   10  A    between atoms: C_18  and  O_28
REMARK   11  A    between atoms: C_20  and  N_21
REMARK   12  A    between atoms: O_28  and  C_29
REMARK                            x       y       z     vdW  Elec       q    Type
REMARK                         _______ _______ _______ _____ _____    ______ ____
ROOT
ATOM      1  C   UNL     1      -0.010   7.336   2.232  0.00  0.00    +0.151 C 
ENDROOT
BRANCH   1   5
ATOM      2  C   UNL     1       2.894   7.460  -0.898  0.00  0.00    -0.048 A 
ATOM      3  C   UNL     1       1.787   8.287  -0.948  0.00  0.00    +0.004 A 
ATOM      4  C   UNL     1       0.847   8.247   0.065  0.00  0.00    +0.007 A 
ATOM      5  C   UNL     1       1.014   7.379   1.128  0.00  0.00    -0.008 A 
ATOM      6  C   UNL     1       2.123   6.556   1.181  0.00  0.00    +0.007 A 
ATOM      7  C   UNL     1       3.060   6.592   0.166  0.00  0.00    +0.004 A 
BRANCH   2   9
ATOM      8  C   UNL     1       4.994   8.537  -1.659  0.00  0.00    +0.009 C 
ATOM      9  C   UNL     1       3.918   7.504  -2.002  0.00  0.00    +0.032 C 
ENDBRANCH   2   9
ENDBRANCH   1   5
BRANCH   1  10
ATOM     10  C   UNL     1       0.632   7.753   3.530  0.00  0.00    -0.008 A 
ATOM     11  C   UNL     1       0.216   7.186   4.720  0.00  0.00    +0.010 A 
ATOM     12  C   UNL     1       0.808   7.563   5.911  0.00  0.00    +0.046 A 
ATOM     13  C   UNL     1       1.812   8.520   5.912  0.00  0.00    +0.120 A 
ATOM     14  C   UNL     1       2.223   9.092   4.717  0.00  0.00    +0.046 A 
ATOM     15  C   UNL     1       1.633   8.707   3.529  0.00  0.00    +0.010 A 
BRANCH  13  16
ATOM     16  O   UNL     1       2.390   8.898   7.083  0.00  0.00    -0.495 OA
ATOM     17  C   UNL     1       1.916   8.267   8.274  0.00  0.00    +0.277 C 
ENDBRANCH  13  16
ENDBRANCH   1  10
BRANCH   1  18
ATOM     18  O   UNL     1      -1.083   8.228   1.923  0.00  0.00    -0.376 OA
ATOM     19  H   UNL     1      -1.929   8.332   2.618  0.00  0.00    +0.211 HD
ENDBRANCH   1  18
BRANCH   1  20
ATOM     20  C   UNL     1      -0.554   5.912   2.368  0.00  0.00    +0.198 C 
BRANCH  20  21
ATOM     21  C   UNL     1      -1.083   5.437   1.013  0.00  0.00    -0.030 C 
BRANCH  21  22
ATOM     22  N   UNL     1      -2.285   6.204   0.660  0.00  0.00    +0.382 N 
ATOM     23  C   UNL     1      -3.406   5.883   1.571  0.00  0.00    -0.079 C 
ATOM     24  C   UNL     1      -4.723   6.430   1.090  0.00  0.00    -0.019 C 
ATOM     25  C   UNL     1      -5.439   5.333   0.275  0.00  0.00    -0.002 C 
ATOM     26  C   UNL     1      -4.905   5.217  -1.077  0.00  0.00    -0.002 C 
ATOM     27  C   UNL     1      -3.410   4.833  -1.082  0.00  0.00    -0.019 C 
ATOM     28  C   UNL     1      -2.600   6.064  -0.779  0.00  0.00    -0.079 C 
ATOM     29  H   UNL     1      -2.081   7.275   0.812  0.00  0.00    -0.082 HD
ENDBRANCH  21  22
ENDBRANCH  20  21
BRANCH  20  30
ATOM     30  O   UNL     1       0.492   5.042   2.803  0.00  0.00    -0.487 OA
BRANCH  30  31
ATOM     31  C   UNL     1       0.133   3.985   3.578  0.00  0.00    +0.121 A 
ATOM     32  C   UNL     1      -1.208   3.726   3.822  0.00  0.00    +0.045 A 
ATOM     33  C   UNL     1      -1.570   2.648   4.607  0.00  0.00    +0.004 A 
ATOM     34  C   UNL     1      -0.597   1.834   5.157  0.00  0.00    +0.000 A 
ATOM     35  C   UNL     1       0.740   2.093   4.919  0.00  0.00    +0.004 A 
ATOM     36  C   UNL     1       1.107   3.167   4.131  0.00  0.00    +0.045 A 
ENDBRANCH  30  31
ENDBRANCH  20  30
ENDBRANCH   1  20
TORSDOF 10
