REMARK  Name = ZINC04773562
REMARK  12 active torsions:
REMARK  status: ('A' for Active; 'I' for Inactive)
REMARK    1  A    between atoms: C_1  and  C_2
REMARK    2  A    between atoms: C_2  and  N_56
REMARK    3  A    between atoms: C_3  and  C_4
REMARK    4  A    between atoms: C_3  and  N_56
REMARK    5  A    between atoms: C_5  and  C_6
REMARK    6  A    between atoms: C_5  and  N_56
REMARK    7  A    between atoms: C_6  and  C_7
REMARK    8  A    between atoms: C_7  and  C_8
REMARK    9  A    between atoms: C_8  and  C_10
REMARK   10  A    between atoms: C_8  and  N_11
REMARK   11  A    between atoms: N_11  and  C_12
REMARK   12  A    between atoms: C_15  and  O_28
REMARK                            x       y       z     vdW  Elec       q    Type
REMARK                         _______ _______ _______ _____ _____    ______ ____
ROOT
ATOM      1  C   UNL     1       1.061   1.600  -0.001  0.00  0.00    +0.039 A 
ATOM      2  C   UNL     1      -0.113   0.842  -0.012  0.00  0.00    +0.027 A 
ATOM      3  C   UNL     1      -1.342   1.458   0.005  0.00  0.00    +0.048 A 
ATOM      4  C   UNL     1      -1.437   2.850   0.046  0.00  0.00    +0.128 A 
ATOM      5  C   UNL     1      -0.277   3.626   0.057  0.00  0.00    +0.076 A 
ATOM      6  C   UNL     1       0.986   2.995   0.034  0.00  0.00    +0.057 A 
ATOM      7  C   UNL     1       2.210   3.813   0.046  0.00  0.00    +0.196 C 
ATOM      8  O   UNL     1       3.289   3.302   0.275  0.00  0.00    -0.287 OA
ATOM      9  C   UNL     1       2.111   5.264  -0.225  0.00  0.00    +0.033 A 
ATOM     10  C   UNL     1       3.251   6.012  -0.503  0.00  0.00    +0.012 A 
ATOM     11  C   UNL     1       3.139   7.368  -0.755  0.00  0.00    +0.001 A 
ATOM     12  C   UNL     1       1.902   7.987  -0.731  0.00  0.00    +0.001 A 
ATOM     13  C   UNL     1       0.759   7.258  -0.456  0.00  0.00    +0.012 A 
ATOM     14  C   UNL     1       0.853   5.894  -0.201  0.00  0.00    +0.033 A 
ATOM     15  C   UNL     1      -0.358   5.097   0.093  0.00  0.00    +0.198 C 
ATOM     16  O   UNL     1      -1.407   5.649   0.362  0.00  0.00    -0.286 OA
ENDROOT
BRANCH   1  17
ATOM     17  N   UNL     1       2.297   0.971  -0.024  0.00  0.00    -0.341 N 
ATOM     18  H   UNL     1       3.107   1.496  -0.113  0.00  0.00    +0.146 HD
BRANCH  17  19
ATOM     19  C   UNL     1       2.377  -0.488   0.086  0.00  0.00    +0.067 C 
ATOM     20  C   UNL     1       2.196  -1.115  -1.298  0.00  0.00    +0.028 C 
BRANCH  19  21
ATOM     21  C   UNL     1       3.744  -0.882   0.649  0.00  0.00    +0.020 C 
BRANCH  21  22
ATOM     22  C   UNL     1       3.876  -0.360   2.082  0.00  0.00    -0.017 C 
BRANCH  22  23
ATOM     23  C   UNL     1       5.243  -0.754   2.645  0.00  0.00    -0.079 C 
BRANCH  23  24
ATOM     24  N   UNL     1       5.362  -0.225   4.020  0.00  0.00    +0.379 N 
ATOM     25  H   UNL     1       5.137   0.777   4.013  0.00  0.00    -0.082 HD
BRANCH  24  27
ATOM     26  C   UNL     1       4.757  -2.413   4.998  0.00  0.00    -0.017 C 
ATOM     27  C   UNL     1       4.416  -0.924   4.914  0.00  0.00    -0.082 C 
ENDBRANCH  24  27
BRANCH  24  28
ATOM     28  C   UNL     1       6.745  -0.402   4.510  0.00  0.00    -0.082 C 
ATOM     29  C   UNL     1       6.871   0.256   5.886  0.00  0.00    -0.017 C 
ENDBRANCH  24  28
ENDBRANCH  23  24
ENDBRANCH  22  23
ENDBRANCH  21  22
ENDBRANCH  19  21
ENDBRANCH  17  19
ENDBRANCH   1  17
BRANCH   4  30
ATOM     30  O   UNL     1      -2.654   3.448   0.068  0.00  0.00    -0.506 OA
ATOM     31  H   UNL     1      -3.013   3.643  -0.809  0.00  0.00    +0.292 HD
ENDBRANCH   4  30
TORSDOF 9
