REMARK  Name = ZINC40703437
REMARK  5 active torsions:
REMARK  status: ('A' for Active; 'I' for Inactive)
REMARK    1  A    between atoms: C_1  and  C_2
REMARK    2  A    between atoms: C_7  and  N_8
REMARK    3  A    between atoms: C_10  and  N_28
REMARK    4  A    between atoms: C_11  and  N_15
REMARK    5  A    between atoms: N_18  and  C_21
REMARK                            x       y       z     vdW  Elec       q    Type
REMARK                         _______ _______ _______ _____ _____    ______ ____
ROOT
ATOM      1  N   UNL     1       0.078  -0.013   2.422  0.00  0.00    -0.298 N 
ATOM      2  C   UNL     1      -0.033  -0.715   3.617  0.00  0.00    +0.149 A 
ATOM      3  C   UNL     1      -0.155  -0.035   4.830  0.00  0.00    +0.106 A 
ATOM      4  C   UNL     1      -0.263  -0.788   6.000  0.00  0.00    +0.147 A 
ATOM      5  N   UNL     1      -0.246  -2.117   5.915  0.00  0.00    -0.219 NA
ATOM      6  C   UNL     1      -0.130  -2.719   4.750  0.00  0.00    +0.225 A 
ATOM      7  N   UNL     1      -0.030  -2.046   3.621  0.00  0.00    -0.219 NA
ATOM      8  H   UNL     1      -0.023   0.952   2.415  0.00  0.00    +0.154 HD
ENDROOT
BRANCH   1  15
ATOM      9  C   UNL     1      -0.826   1.146  -0.014  0.00  0.00    +0.046 C 
ATOM     10  C   UNL     1      -0.089  -0.168   0.018  0.00  0.00    -0.028 A 
ATOM     11  C   UNL     1       0.172  -0.843  -1.158  0.00  0.00    +0.025 A 
ATOM     12  C   UNL     1       0.849  -2.049  -1.129  0.00  0.00    +0.041 A 
ATOM     13  C   UNL     1       1.267  -2.582   0.078  0.00  0.00    +0.022 A 
ATOM     14  C   UNL     1       1.010  -1.911   1.256  0.00  0.00    +0.025 A 
ATOM     15  C   UNL     1       0.335  -0.697   1.230  0.00  0.00    +0.035 A 
ATOM     16 CL   UNL     1       1.174  -2.896  -2.610  0.00  0.00    -0.084 Cl
ENDBRANCH   1  15
BRANCH   4  17
ATOM     17  N   UNL     1      -0.386  -0.162   7.234  0.00  0.00    -0.311 N 
ATOM     18  C   UNL     1      -1.705   0.248   7.737  0.00  0.00    +0.125 C 
ATOM     19  C   UNL     1      -1.920  -0.381   9.119  0.00  0.00    +0.124 C 
ATOM     20  N   UNL     1      -0.734  -0.117   9.945  0.00  0.00    -0.325 N 
ATOM     21  C   UNL     1       0.585  -0.526   9.443  0.00  0.00    +0.124 C 
ATOM     22  C   UNL     1       0.799   0.098   8.063  0.00  0.00    +0.125 C 
BRANCH  20  23
ATOM     23  C   UNL     1      -0.857   0.514  11.187  0.00  0.00    +0.065 A 
ATOM     24  C   UNL     1      -1.044  -0.242  12.336  0.00  0.00    +0.026 A 
ATOM     25  C   UNL     1      -1.165   0.384  13.562  0.00  0.00    +0.002 A 
ATOM     26  C   UNL     1      -1.102   1.762  13.646  0.00  0.00    +0.003 A 
ATOM     27  C   UNL     1      -0.917   2.521  12.504  0.00  0.00    +0.040 A 
ATOM     28  C   UNL     1      -0.788   1.901  11.275  0.00  0.00    +0.144 A 
ATOM     29  F   UNL     1      -0.601   2.641  10.160  0.00  0.00    -0.204 F 
ENDBRANCH  20  23
ENDBRANCH   4  17
BRANCH   3  30
ATOM     30  N   UNL     1      -0.167   1.369   4.872  0.00  0.00    -0.353 N 
ATOM     31  H   UNL     1      -0.173   1.879   4.047  0.00  0.00    +0.143 HD
ATOM     32  H   UNL     1      -0.170   1.828   5.726  0.00  0.00    +0.143 HD
ENDBRANCH   3  30
TORSDOF 4
