REMARK  Name = ZINC36786484
REMARK  10 active torsions:
REMARK  status: ('A' for Active; 'I' for Inactive)
REMARK    1  A    between atoms: C_1  and  C_2
REMARK    2  A    between atoms: C_2  and  C_4
REMARK    3  A    between atoms: C_2  and  N_7
REMARK    4  A    between atoms: C_4  and  C_5
REMARK    5  A    between atoms: C_4  and  C_6
REMARK    6  A    between atoms: N_7  and  C_8
REMARK    7  A    between atoms: N_7  and  C_9
REMARK    8  A    between atoms: C_9  and  C_10
REMARK    9  A    between atoms: N_12  and  C_13
REMARK   10  A    between atoms: C_14  and  N_21
REMARK                            x       y       z     vdW  Elec       q    Type
REMARK                         _______ _______ _______ _____ _____    ______ ____
ROOT
ATOM      1  C   UNL     1      -2.646  -3.386  -1.069  0.00  0.00    +0.201 C 
ATOM      2  O   UNL     1      -3.424  -3.491  -1.994  0.00  0.00    -0.278 OA
ATOM      3  N   UNL     1      -2.990  -3.832   0.155  0.00  0.00    -0.284 N 
ATOM      4  H   UNL     1      -2.343  -3.816   0.877  0.00  0.00    +0.155 HD
ENDROOT
BRANCH   3   5
ATOM      5  C   UNL     1      -4.285  -4.319   0.385  0.00  0.00    +0.073 A 
ATOM      6  C   UNL     1      -4.566  -5.673   0.204  0.00  0.00    +0.049 A 
ATOM      7  C   UNL     1      -5.848  -6.149   0.433  0.00  0.00    +0.044 A 
ATOM      8  C   UNL     1      -6.845  -5.282   0.841  0.00  0.00    +0.044 A 
ATOM      9  C   UNL     1      -6.568  -3.938   1.022  0.00  0.00    +0.042 A 
ATOM     10  C   UNL     1      -5.290  -3.457   0.800  0.00  0.00    +0.065 A 
ATOM     11 CL   UNL     1      -4.945  -1.771   1.034  0.00  0.00    -0.082 Cl
ATOM     12 CL   UNL     1      -8.450  -5.880   1.127  0.00  0.00    -0.083 Cl
BRANCH   6  13
ATOM     13  N   UNL     1      -3.556  -6.549  -0.209  0.00  0.00    -0.356 N 
ATOM     14  H   UNL     1      -2.659  -6.215  -0.369  0.00  0.00    +0.142 HD
ATOM     15  H   UNL     1      -3.752  -7.490  -0.335  0.00  0.00    +0.142 HD
ENDBRANCH   6  13
ENDBRANCH   3   5
BRANCH   1  16
ATOM     16  C   UNL     1      -1.294  -2.759  -1.289  0.00  0.00    +0.019 C 
BRANCH  16  17
ATOM     17  N   UNL     1      -1.163  -2.360  -2.697  0.00  0.00    +0.385 N 
ATOM     18  C   UNL     1      -1.179  -3.556  -3.549  0.00  0.00    -0.095 C 
ATOM     19  H   UNL     1      -1.932  -1.757  -2.948  0.00  0.00    -0.081 HD
BRANCH  17  21
ATOM     20  C   UNL     1       0.241  -1.225  -4.352  0.00  0.00    -0.013 C 
ATOM     21  C   UNL     1       0.105  -1.641  -2.886  0.00  0.00    -0.069 C 
BRANCH  21  22
ATOM     22  C   UNL     1       0.122  -0.395  -1.999  0.00  0.00    -0.031 C 
ATOM     23  C   UNL     1       1.442   0.353  -2.196  0.00  0.00    +0.005 C 
ATOM     24  C   UNL     1      -1.044   0.519  -2.380  0.00  0.00    +0.005 C 
ENDBRANCH  21  22
ENDBRANCH  17  21
ENDBRANCH  16  17
ENDBRANCH   1  16
TORSDOF 6
