REMARK  Name = ZINC28186491
REMARK  8 active torsions:
REMARK  status: ('A' for Active; 'I' for Inactive)
REMARK    1  A    between atoms: C_1  and  C_2
REMARK    2  A    between atoms: C_4  and  C_27
REMARK    3  A    between atoms: C_5  and  C_24
REMARK    4  A    between atoms: C_6  and  C_23
REMARK    5  A    between atoms: C_7  and  C_8
REMARK    6  A    between atoms: C_8  and  N_9
REMARK    7  A    between atoms: C_17  and  C_19
REMARK    8  A    between atoms: C_24  and  C_26
REMARK                            x       y       z     vdW  Elec       q    Type
REMARK                         _______ _______ _______ _____ _____    ______ ____
ROOT
ATOM      1  N   UNL     1       2.940  -3.353  -0.853  0.00  0.00    -0.220 N 
ATOM      2  C   UNL     1       3.971  -2.707  -1.436  0.00  0.00    +0.247 C 
ATOM      3  O   UNL     1       4.525  -1.703  -1.041  0.00  0.00    -0.273 OA
ATOM      4  C   UNL     1       4.288  -3.497  -2.684  0.00  0.00    +0.115 C 
ATOM      5  C   UNL     1       4.094  -2.632  -3.925  0.00  0.00    +0.035 C 
ATOM      6  C   UNL     1       4.393  -3.458  -5.178  0.00  0.00    +0.003 C 
ATOM      7  C   UNL     1       5.832  -3.973  -5.116  0.00  0.00    +0.000 C 
ATOM      8  C   UNL     1       6.005  -4.859  -3.881  0.00  0.00    +0.006 C 
ATOM      9  C   UNL     1       5.712  -4.039  -2.622  0.00  0.00    +0.018 C 
ATOM     10  C   UNL     1       5.865  -4.929  -1.387  0.00  0.00    +0.010 C 
ATOM     11  N   UNL     1       3.317  -4.598  -2.666  0.00  0.00    -0.285 N 
ATOM     12  C   UNL     1       2.575  -4.433  -1.554  0.00  0.00    +0.310 C 
ATOM     13  O   UNL     1       1.673  -5.178  -1.227  0.00  0.00    -0.252 OA
ATOM     14  H   UNL     1       3.314  -5.343  -3.476  0.00  0.00    +0.151 HD
ENDROOT
BRANCH   1  15
ATOM     15  C   UNL     1       2.303  -2.929   0.397  0.00  0.00    +0.153 C 
BRANCH  15  22
ATOM     16  C   UNL     1       2.873  -0.131   0.812  0.00  0.00    +0.044 C 
ATOM     17  C   UNL     1       1.521  -0.553   0.296  0.00  0.00    -0.045 A 
ATOM     18  C   UNL     1       0.559   0.405   0.023  0.00  0.00    +0.007 A 
ATOM     19  C   UNL     1      -0.680   0.027  -0.448  0.00  0.00    -0.039 A 
ATOM     20  C   UNL     1      -0.964  -1.328  -0.652  0.00  0.00    +0.023 A 
ATOM     21  C   UNL     1       0.011  -2.289  -0.369  0.00  0.00    -0.035 A 
ATOM     22  C   UNL     1       1.248  -1.895   0.097  0.00  0.00    -0.023 A 
ATOM     23  C   UNL     1      -0.286  -3.751  -0.580  0.00  0.00    +0.045 C 
ATOM     24  C   UNL     1      -1.726   1.071  -0.744  0.00  0.00    +0.044 C 
BRANCH  20  25
ATOM     25  C   UNL     1      -2.284  -1.739  -1.155  0.00  0.00    +0.161 C 
ATOM     26  O   UNL     1      -3.212  -1.869  -0.385  0.00  0.00    -0.292 OA
ATOM     27  C   UNL     1      -2.484  -1.993  -2.627  0.00  0.00    +0.091 C 
ENDBRANCH  20  25
ENDBRANCH  15  22
ENDBRANCH   1  15
TORSDOF 3
