REMARK  Name = ZINC63600615
REMARK  7 active torsions:
REMARK  status: ('A' for Active; 'I' for Inactive)
REMARK    1  A    between atoms: C_4  and  N_7
REMARK    2  A    between atoms: C_15  and  C_17
REMARK    3  A    between atoms: C_17  and  C_18
REMARK    4  A    between atoms: C_18  and  C_19
REMARK    5  A    between atoms: C_22  and  N_25
REMARK    6  A    between atoms: C_26  and  C_28
REMARK    7  A    between atoms: C_31  and  C_34
REMARK                            x       y       z     vdW  Elec       q    Type
REMARK                         _______ _______ _______ _____ _____    ______ ____
ROOT
ATOM      1  C   UNL     1       2.917  -4.663   2.769  0.00  0.00    -0.047 A 
ATOM      2  C   UNL     1       3.728  -4.720   3.889  0.00  0.00    +0.005 A 
ATOM      3  C   UNL     1       3.221  -5.184   5.087  0.00  0.00    +0.023 A 
ATOM      4  C   UNL     1       1.897  -5.594   5.167  0.00  0.00    +0.033 A 
ATOM      5  C   UNL     1       1.086  -5.536   4.041  0.00  0.00    +0.023 A 
ATOM      6  C   UNL     1       1.597  -5.066   2.847  0.00  0.00    +0.005 A 
ENDROOT
BRANCH   4   7
ATOM      7  N   UNL     1       1.381  -6.065   6.379  0.00  0.00    -0.283 N 
ATOM      8  C   UNL     1       1.802  -5.532   7.543  0.00  0.00    +0.248 C 
ATOM      9  O   UNL     1       2.554  -4.581   7.538  0.00  0.00    -0.273 OA
ATOM     10  H   UNL     1       0.720  -6.775   6.382  0.00  0.00    +0.155 HD
BRANCH   8  11
ATOM     11  C   UNL     1       1.339  -6.119   8.852  0.00  0.00    +0.239 C 
ATOM     12  C   UNL     1       2.176  -7.330   9.222  0.00  0.00    +0.041 C 
ATOM     13  C   UNL     1       2.755  -6.978  10.389  0.00  0.00    +0.098 C 
ATOM     14  N   UNL     1       2.369  -5.724  10.749  0.00  0.00    -0.153 NA
ATOM     15  N   UNL     1       1.588  -5.182   9.959  0.00  0.00    -0.170 NA
BRANCH  13  16
ATOM     16  C   UNL     1       3.678  -7.832  11.166  0.00  0.00    +0.039 A 
ATOM     17  C   UNL     1       4.306  -7.567  12.354  0.00  0.00    +0.018 A 
ATOM     18  C   UNL     1       5.131  -8.528  12.896  0.00  0.00    +0.008 A 
ATOM     19  C   UNL     1       5.296  -9.705  12.239  0.00  0.00    +0.046 A 
ATOM     20  S   UNL     1       4.256  -9.482  10.805  0.00  0.00    -0.095 S 
ENDBRANCH  13  16
ENDBRANCH   8  11
ENDBRANCH   4   7
BRANCH   1  21
ATOM     21  C   UNL     1       3.473  -4.156   1.464  0.00  0.00    +0.038 C 
BRANCH  21  22
ATOM     22  C   UNL     1       3.273  -2.642   1.378  0.00  0.00    +0.047 C 
BRANCH  22  31
ATOM     23  N   UNL     1       3.653  -0.674  -0.047  0.00  0.00    -0.279 N 
ATOM     24  C   UNL     1       4.927  -0.098  -0.146  0.00  0.00    +0.057 A 
ATOM     25  C   UNL     1       5.309   1.234  -0.257  0.00  0.00    +0.025 A 
ATOM     26  C   UNL     1       6.647   1.567  -0.343  0.00  0.00    +0.002 A 
ATOM     27  C   UNL     1       7.612   0.577  -0.319  0.00  0.00    +0.002 A 
ATOM     28  C   UNL     1       7.242  -0.750  -0.208  0.00  0.00    +0.025 A 
ATOM     29  C   UNL     1       5.898  -1.095  -0.121  0.00  0.00    +0.050 A 
ATOM     30  N   UNL     1       5.287  -2.350  -0.005  0.00  0.00    -0.324 N 
ATOM     31  C   UNL     1       3.837  -2.127   0.052  0.00  0.00    +0.164 C 
ATOM     32  H   UNL     1       5.738  -3.208   0.034  0.00  0.00    +0.148 HD
BRANCH  23  36
ATOM     33  C   UNL     1       0.020   1.359  -0.018  0.00  0.00    +0.000 A 
ATOM     34  C   UNL     1       0.323   0.503  -1.061  0.00  0.00    +0.002 A 
ATOM     35  C   UNL     1       1.527  -0.173  -1.074  0.00  0.00    +0.023 A 
ATOM     36  C   UNL     1       2.435   0.008  -0.037  0.00  0.00    +0.036 A 
ATOM     37  C   UNL     1       2.127   0.869   1.009  0.00  0.00    +0.023 A 
ATOM     38  C   UNL     1       0.920   1.542   1.015  0.00  0.00    +0.002 A 
ENDBRANCH  23  36
ENDBRANCH  22  31
ENDBRANCH  21  22
ENDBRANCH   1  21
TORSDOF 7
