REMARK  Name = ZINC50031478
REMARK  7 active torsions:
REMARK  status: ('A' for Active; 'I' for Inactive)
REMARK    1  A    between atoms: C_10  and  C_11
REMARK    2  A    between atoms: C_11  and  C_12
REMARK    3  A    between atoms: C_12  and  N_13
REMARK    4  A    between atoms: C_14  and  C_16
REMARK    5  A    between atoms: C_16  and  N_17
REMARK    6  A    between atoms: N_17  and  C_18
REMARK    7  A    between atoms: C_21  and  C_24
REMARK                            x       y       z     vdW  Elec       q    Type
REMARK                         _______ _______ _______ _____ _____    ______ ____
ROOT
ATOM      1  N   UNL     1       6.604   1.278   1.380  0.00  0.00    -0.314 N 
ATOM      2  C   UNL     1       7.141   1.706   2.540  0.00  0.00    +0.230 C 
ATOM      3  O   UNL     1       6.584   1.468   3.590  0.00  0.00    -0.274 OA
ATOM      4  H   UNL     1       7.049   1.468   0.540  0.00  0.00    +0.149 HD
ENDROOT
BRANCH   1   5
ATOM      5  C   UNL     1       5.347   0.524   1.389  0.00  0.00    +0.109 C 
BRANCH   5   6
ATOM      6  C   UNL     1       4.960   0.161  -0.046  0.00  0.00    +0.054 C 
BRANCH   6  16
ATOM      7  C   UNL     1      -0.016   1.357   0.009  0.00  0.00    +0.001 A 
ATOM      8  C   UNL     1       1.169   2.091   0.002  0.00  0.00    +0.001 A 
ATOM      9  C   UNL     1       2.378   1.468  -0.013  0.00  0.00    +0.009 A 
ATOM     10  C   UNL     1       2.438   0.064  -0.021  0.00  0.00    -0.015 A 
ATOM     11  C   UNL     1       1.233  -0.683  -0.013  0.00  0.00    -0.018 A 
ATOM     12  C   UNL     1       0.002  -0.004   0.002  0.00  0.00    +0.008 A 
ATOM     13  C   UNL     1       1.292  -2.087  -0.021  0.00  0.00    +0.008 A 
ATOM     14  C   UNL     1       2.502  -2.709  -0.036  0.00  0.00    +0.001 A 
ATOM     15  C   UNL     1       3.687  -1.976  -0.043  0.00  0.00    +0.004 A 
ATOM     16  C   UNL     1       3.668  -0.615  -0.037  0.00  0.00    -0.038 A 
ENDBRANCH   6  16
ENDBRANCH   5   6
ENDBRANCH   1   5
BRANCH   2  17
ATOM     17  C   UNL     1       8.433   2.481   2.530  0.00  0.00    +0.197 C 
BRANCH  17  18
ATOM     18  N   UNL     1       8.803   2.829   3.905  0.00  0.00    -0.335 N 
ATOM     19  H   UNL     1       8.237   2.557   4.643  0.00  0.00    +0.147 HD
BRANCH  18  20
ATOM     20  C   UNL     1       9.968   3.551   4.150  0.00  0.00    +0.028 A 
ATOM     21  C   UNL     1      10.776   3.946   3.088  0.00  0.00    +0.024 A 
ATOM     22  C   UNL     1      11.929   4.660   3.327  0.00  0.00    +0.020 A 
ATOM     23  C   UNL     1      12.287   4.988   4.638  0.00  0.00    +0.052 A 
ATOM     24  C   UNL     1      11.472   4.590   5.702  0.00  0.00    +0.020 A 
ATOM     25  C   UNL     1      10.318   3.881   5.456  0.00  0.00    +0.024 A 
BRANCH  23  26
ATOM     26  C   UNL     1      13.485   5.731   4.890  0.00  0.00    +0.099 C 
ATOM     27  N   UNL     1      14.436   6.319   5.090  0.00  0.00    -0.191 NA
ENDBRANCH  23  26
ENDBRANCH  18  20
ENDBRANCH  17  18
ENDBRANCH   2  17
TORSDOF 7
