REMARK  Name = ZINC36591377
REMARK  12 active torsions:
REMARK  status: ('A' for Active; 'I' for Inactive)
REMARK    1  A    between atoms: C_1  and  C_2
REMARK    2  A    between atoms: C_2  and  C_3
REMARK    3  A    between atoms: C_2  and  C_4
REMARK    4  A    between atoms: C_2  and  N_5
REMARK    5  A    between atoms: C_6  and  C_8
REMARK    6  A    between atoms: C_8  and  C_10
REMARK    7  A    between atoms: C_8  and  N_24
REMARK    8  A    between atoms: N_24  and  C_34
REMARK    9  A    between atoms: C_25  and  C_27
REMARK   10  A    between atoms: C_34  and  C_35
REMARK   11  A    between atoms: C_34  and  C_36
REMARK   12  A    between atoms: C_34  and  C_37
REMARK                            x       y       z     vdW  Elec       q    Type
REMARK                         _______ _______ _______ _____ _____    ______ ____
ROOT
ATOM      1  C   UNL     1       2.184   0.417  -2.469  0.00  0.00    +0.193 C 
ENDROOT
BRANCH   1   2
ATOM      2  C   UNL     1       1.744  -0.376  -3.672  0.00  0.00    -0.010 A 
ATOM      3  C   UNL     1       2.521  -1.385  -4.118  0.00  0.00    +0.015 A 
ATOM      4  C   UNL     1       2.151  -2.158  -5.242  0.00  0.00    -0.017 A 
ATOM      5  C   UNL     1       2.965  -3.205  -5.698  0.00  0.00    +0.008 A 
ATOM      6  C   UNL     1       2.584  -3.935  -6.785  0.00  0.00    +0.001 A 
ATOM      7  C   UNL     1       1.398  -3.656  -7.452  0.00  0.00    +0.001 A 
ATOM      8  C   UNL     1       0.583  -2.643  -7.034  0.00  0.00    +0.009 A 
ATOM      9  C   UNL     1       0.945  -1.878  -5.924  0.00  0.00    -0.010 A 
ATOM     10  C   UNL     1       0.102  -0.782  -5.440  0.00  0.00    -0.010 A 
ATOM     11  C   UNL     1       0.523  -0.050  -4.307  0.00  0.00    -0.012 A 
ATOM     12  C   UNL     1      -0.280   0.997  -3.833  0.00  0.00    +0.009 A 
ATOM     13  C   UNL     1      -1.452   1.290  -4.464  0.00  0.00    +0.001 A 
ATOM     14  C   UNL     1      -1.866   0.565  -5.575  0.00  0.00    +0.001 A 
ATOM     15  C   UNL     1      -1.101  -0.454  -6.068  0.00  0.00    +0.009 A 
ENDBRANCH   1   2
BRANCH   1  17
ATOM     16  N   UNL     1       0.218  -0.196  -1.099  0.00  0.00    -0.309 N 
ATOM     17  C   UNL     1       1.559  -0.166  -1.227  0.00  0.00    +0.239 C 
ATOM     18  O   UNL     1       2.263  -0.607  -0.344  0.00  0.00    -0.273 OA
ATOM     19  H   UNL     1      -0.345   0.157  -1.806  0.00  0.00    +0.149 HD
BRANCH  16  21
ATOM     20  C   UNL     1       0.081   0.024   1.333  0.00  0.00    +0.031 C 
ATOM     21  C   UNL     1      -0.390  -0.762   0.108  0.00  0.00    +0.026 C 
ATOM     22  C   UNL     1       0.028  -2.227   0.250  0.00  0.00    +0.031 C 
ATOM     23  C   UNL     1      -1.914  -0.675   0.000  0.00  0.00    +0.031 C 
ENDBRANCH  16  21
ENDBRANCH   1  17
BRANCH   1  24
ATOM     24  N   UNL     1       3.644   0.359  -2.353  0.00  0.00    -0.279 N 
ATOM     25  C   UNL     1       4.250  -0.803  -2.042  0.00  0.00    +0.237 C 
ATOM     26  O   UNL     1       3.585  -1.780  -1.769  0.00  0.00    -0.274 OA
BRANCH  25  27
ATOM     27  C   UNL     1       5.755  -0.889  -2.031  0.00  0.00    +0.159 C 
ATOM     28  C   UNL     1       6.258  -1.607  -3.303  0.00  0.00    +0.041 C 
ATOM     29  C   UNL     1       6.369  -3.071  -2.816  0.00  0.00    +0.098 C 
ATOM     30  C   UNL     1       6.554  -2.950  -1.319  0.00  0.00    +0.214 C 
ATOM     31  O   UNL     1       6.956  -3.837  -0.596  0.00  0.00    -0.276 OA
ATOM     32  N   UNL     1       6.208  -1.716  -0.907  0.00  0.00    -0.304 N 
ATOM     33  H   UNL     1       6.253  -1.412   0.013  0.00  0.00    +0.149 HD
ENDBRANCH  25  27
BRANCH  24  34
ATOM     34  C   UNL     1       4.444   1.566  -2.577  0.00  0.00    +0.030 C 
ATOM     35  C   UNL     1       3.525   2.720  -2.982  0.00  0.00    +0.031 C 
ATOM     36  C   UNL     1       5.186   1.932  -1.290  0.00  0.00    +0.031 C 
ATOM     37  C   UNL     1       5.458   1.306  -3.693  0.00  0.00    +0.031 C 
ENDBRANCH  24  34
ENDBRANCH   1  24
TORSDOF 6
