REMARK  Name = ZINC48845748
REMARK  4 active torsions:
REMARK  status: ('A' for Active; 'I' for Inactive)
REMARK    1  A    between atoms: C_1  and  N_2
REMARK    2  A    between atoms: N_2  and  C_3
REMARK    3  A    between atoms: N_2  and  C_9
REMARK    4  A    between atoms: C_9  and  C_19
REMARK                            x       y       z     vdW  Elec       q    Type
REMARK                         _______ _______ _______ _____ _____    ______ ____
ROOT
ATOM      1  C   UNL     1       0.617  -0.638  -1.192  0.00  0.00    +0.064 C 
ATOM      2  C   UNL     1       0.036  -0.396  -2.583  0.00  0.00    +0.004 C 
ATOM      3  C   UNL     1      -1.423  -0.866  -2.587  0.00  0.00    +0.004 C 
ATOM      4  C   UNL     1      -1.437  -2.391  -2.496  0.00  0.00    +0.035 C 
ATOM      5  C   UNL     1      -0.581  -2.860  -1.349  0.00  0.00    -0.045 A 
ATOM      6  C   UNL     1       0.365  -2.057  -0.752  0.00  0.00    -0.044 A 
ATOM      7  C   UNL     1       1.126  -2.553   0.298  0.00  0.00    +0.003 A 
ATOM      8  C   UNL     1       0.940  -3.843   0.750  0.00  0.00    +0.000 A 
ATOM      9  C   UNL     1      -0.012  -4.649   0.154  0.00  0.00    +0.000 A 
ATOM     10  C   UNL     1      -0.768  -4.158  -0.890  0.00  0.00    +0.004 A 
ENDROOT
BRANCH   1  12
ATOM     11  C   UNL     1      -1.319  -0.249   0.170  0.00  0.00    -0.094 C 
ATOM     12  N   UNL     1      -0.013   0.284  -0.237  0.00  0.00    +0.393 N 
ATOM     13  H   UNL     1       0.578   0.382   0.575  0.00  0.00    -0.080 HD
BRANCH  12  14
ATOM     14  C   UNL     1      -0.195   1.597  -0.871  0.00  0.00    -0.065 C 
ATOM     15  C   UNL     1      -0.856   2.557   0.121  0.00  0.00    -0.000 C 
ATOM     16  C   UNL     1      -0.988   3.938  -0.524  0.00  0.00    +0.079 C 
ATOM     17  N   UNL     1       0.342   4.434  -0.900  0.00  0.00    -0.316 NA
ATOM     18  C   UNL     1       0.977   3.552  -1.888  0.00  0.00    +0.079 C 
ATOM     19  C   UNL     1       1.168   2.159  -1.284  0.00  0.00    -0.000 C 
ATOM     20  H   UNL     1       0.292   5.382  -1.241  0.00  0.00    +0.122 HD
ENDBRANCH  12  14
ENDBRANCH   1  12
BRANCH   1  21
ATOM     21  C   UNL     1       2.102  -0.384  -1.223  0.00  0.00    +0.350 C 
ATOM     22  O   UNL     1       2.613   0.347  -0.391  0.00  0.00    -0.248 OA
ATOM     23  O   UNL     1       2.793  -0.908  -2.080  0.00  0.00    -0.248 OA
ENDBRANCH   1  21
TORSDOF 3
