REMARK  Name = ZINC08819459
REMARK  12 active torsions:
REMARK  status: ('A' for Active; 'I' for Inactive)
REMARK    1  A    between atoms: C_1  and  O_2
REMARK    2  A    between atoms: O_2  and  C_3
REMARK    3  A    between atoms: C_6  and  C_11
REMARK    4  A    between atoms: C_8  and  O_9
REMARK    5  A    between atoms: O_9  and  C_10
REMARK    6  A    between atoms: N_15  and  C_19
REMARK    7  A    between atoms: C_19  and  C_20
REMARK    8  A    between atoms: C_20  and  C_21
REMARK    9  A    between atoms: C_21  and  C_22
REMARK   10  A    between atoms: N_24  and  C_25
REMARK   11  A    between atoms: C_28  and  N_32
REMARK   12  A    between atoms: C_30  and  O_31
REMARK                            x       y       z     vdW  Elec       q    Type
REMARK                         _______ _______ _______ _____ _____    ______ ____
ROOT
ATOM      1  C   UNL     1       5.376  -3.981   2.235  0.00  0.00    +0.028 C 
ATOM      2  C   UNL     1       4.636  -3.656   1.145  0.00  0.00    +0.077 C 
ATOM      3  C   UNL     1       3.237  -3.191   1.062  0.00  0.00    +0.258 C 
ATOM      4  O   UNL     1       2.552  -3.041   2.057  0.00  0.00    -0.269 OA
ATOM      5  N   UNL     1       2.765  -2.944  -0.149  0.00  0.00    -0.255 N 
ATOM      6  C   UNL     1       3.525  -3.116  -1.250  0.00  0.00    +0.121 C 
ATOM      7  S   UNL     1       3.097  -2.861  -2.888  0.00  0.00    -0.027 S 
ATOM      8  S   UNL     1       5.086  -3.673  -0.585  0.00  0.00    -0.061 S 
ENDROOT
BRANCH   1  12
ATOM      9  C   UNL     1       9.460  -5.044   1.791  0.00  0.00    +0.162 A 
ATOM     10  C   UNL     1       9.006  -4.525   2.996  0.00  0.00    +0.050 A 
ATOM     11  C   UNL     1       7.681  -4.178   3.145  0.00  0.00    +0.012 A 
ATOM     12  C   UNL     1       6.789  -4.349   2.079  0.00  0.00    -0.020 A 
ATOM     13  C   UNL     1       7.248  -4.877   0.866  0.00  0.00    +0.057 A 
ATOM     14  C   UNL     1       8.579  -5.217   0.725  0.00  0.00    +0.162 A 
BRANCH   9  16
ATOM     15  C   UNL     1      11.616  -5.181   2.783  0.00  0.00    +0.277 C 
ATOM     16  O   UNL     1      10.768  -5.384   1.651  0.00  0.00    -0.491 OA
ENDBRANCH   9  16
BRANCH  14  17
ATOM     17  O   UNL     1       9.029  -5.727  -0.453  0.00  0.00    -0.491 OA
ATOM     18  C   UNL     1       8.071  -5.878  -1.503  0.00  0.00    +0.277 C 
ENDBRANCH  14  17
ENDBRANCH   1  12
BRANCH   5  19
ATOM     19  C   UNL     1       1.383  -2.480  -0.298  0.00  0.00    +0.115 C 
BRANCH  19  20
ATOM     20  C   UNL     1       1.351  -0.951  -0.247  0.00  0.00    +0.029 C 
BRANCH  20  21
ATOM     21  C   UNL     1      -0.092  -0.466  -0.403  0.00  0.00    +0.097 C 
BRANCH  21  22
ATOM     22  C   UNL     1      -0.123   1.040  -0.352  0.00  0.00    +0.217 C 
ATOM     23  O   UNL     1       0.906   1.664  -0.205  0.00  0.00    -0.275 OA
ATOM     24  N   UNL     1      -1.296   1.694  -0.475  0.00  0.00    -0.283 N 
ATOM     25  H   UNL     1      -2.112   1.198  -0.644  0.00  0.00    +0.155 HD
BRANCH  24  26
ATOM     26  C   UNL     1      -1.335   3.089  -0.357  0.00  0.00    +0.075 A 
ATOM     27  C   UNL     1      -0.207   3.844  -0.645  0.00  0.00    +0.029 A 
ATOM     28  C   UNL     1      -0.250   5.221  -0.533  0.00  0.00    +0.035 A 
ATOM     29  C   UNL     1      -1.412   5.849  -0.125  0.00  0.00    +0.130 A 
ATOM     30  C   UNL     1      -2.539   5.103   0.169  0.00  0.00    +0.080 A 
ATOM     31  C   UNL     1      -2.506   3.723   0.054  0.00  0.00    +0.140 A 
BRANCH  29  32
ATOM     32  N   UNL     1      -1.450   7.323  -0.001  0.00  0.00    +0.057 N 
ATOM     33  O   UNL     1      -2.473   7.878   0.359  0.00  0.00    -0.126 OA
ATOM     34  O   UNL     1      -0.458   7.982  -0.259  0.00  0.00    -0.126 OA
ENDBRANCH  29  32
BRANCH  31  35
ATOM     35  O   UNL     1      -3.613   2.988   0.343  0.00  0.00    -0.505 OA
ATOM     36  H   UNL     1      -3.672   2.712   1.267  0.00  0.00    +0.292 HD
ENDBRANCH  31  35
ENDBRANCH  24  26
ENDBRANCH  21  22
ENDBRANCH  20  21
ENDBRANCH  19  20
ENDBRANCH   5  19
TORSDOF 10
