REMARK  Name = ZINC04046332
REMARK  4 active torsions:
REMARK  status: ('A' for Active; 'I' for Inactive)
REMARK    1  A    between atoms: C_5  and  C_7
REMARK    2  A    between atoms: C_7  and  N_8
REMARK    3  A    between atoms: C_10  and  C_17
REMARK    4  A    between atoms: N_18  and  N_19
REMARK                            x       y       z     vdW  Elec       q    Type
REMARK                         _______ _______ _______ _____ _____    ______ ____
ROOT
ATOM      1  N   UNL     1       0.870   3.450   0.012  0.00  0.00    -0.342 N 
ATOM      2  C   UNL     1      -0.482   3.614   0.026  0.00  0.00    +0.096 A 
ATOM      3  C   UNL     1      -1.092   2.397   0.019  0.00  0.00    +0.020 A 
ATOM      4  C   UNL     1      -0.017   1.389   0.010  0.00  0.00    +0.009 A 
ATOM      5  C   UNL     1       1.189   2.109   0.002  0.00  0.00    +0.050 A 
ATOM      6  C   UNL     1       2.396   1.418  -0.013  0.00  0.00    +0.026 A 
ATOM      7  C   UNL     1       2.400   0.040  -0.021  0.00  0.00    +0.002 A 
ATOM      8  C   UNL     1       1.208  -0.670  -0.013  0.00  0.00    +0.001 A 
ATOM      9  C   UNL     1       0.002  -0.004   0.002  0.00  0.00    +0.010 A 
ENDROOT
BRANCH   3  10
ATOM     10  C   UNL     1      -2.540   2.139   0.023  0.00  0.00    +0.141 C 
ATOM     11  N   UNL     1      -2.982   0.917   0.018  0.00  0.00    -0.178 NA
BRANCH  11  12
ATOM     12  N   UNL     1      -4.361   0.671   0.022  0.00  0.00    -0.127 N 
ATOM     13  C   UNL     1      -5.311   1.662   0.037  0.00  0.00    +0.246 C 
ATOM     14  O   UNL     1      -5.158   2.835  -0.230  0.00  0.00    -0.273 OA
ATOM     15  C   UNL     1      -6.584   0.981   0.453  0.00  0.00    +0.097 C 
ATOM     16  C   UNL     1      -7.930   1.308  -0.215  0.00  0.00    +0.031 C 
ATOM     17  C   UNL     1      -7.867   1.170  -1.730  0.00  0.00    -0.026 C 
ATOM     18  C   UNL     1      -7.748  -0.099  -2.096  0.00  0.00    -0.026 C 
ATOM     19  C   UNL     1      -7.599  -0.920  -0.724  0.00  0.00    +0.031 C 
ATOM     20  C   UNL     1      -6.269  -0.333  -0.372  0.00  0.00    +0.097 C 
ATOM     21  C   UNL     1      -4.915  -0.599   0.017  0.00  0.00    +0.246 C 
ATOM     22  O   UNL     1      -4.390  -1.661   0.274  0.00  0.00    -0.273 OA
ATOM     23  C   UNL     1      -8.600  -0.072   0.096  0.00  0.00    -0.015 C 
ATOM     24  C   UNL     1     -10.072  -0.304   0.172  0.00  0.00    +0.009 C 
ATOM     25  C   UNL     1      -9.179  -0.461   1.415  0.00  0.00    +0.009 C 
ENDBRANCH  11  12
ENDBRANCH   3  10
BRANCH   1  26
ATOM     26  C   UNL     1       1.845   4.543   0.009  0.00  0.00    +0.158 C 
BRANCH  26  31
ATOM     27  C   UNL     1       3.779   4.541  -3.234  0.00  0.00    +0.000 A 
ATOM     28  C   UNL     1       3.018   5.394  -4.011  0.00  0.00    +0.001 A 
ATOM     29  C   UNL     1       1.877   5.973  -3.487  0.00  0.00    +0.020 A 
ATOM     30  C   UNL     1       1.497   5.698  -2.186  0.00  0.00    +0.046 A 
ATOM     31  C   UNL     1       2.259   4.843  -1.409  0.00  0.00    -0.009 A 
ATOM     32  C   UNL     1       3.402   4.269  -1.932  0.00  0.00    +0.007 A 
ATOM     33 CL   UNL     1       0.065   6.425  -1.527  0.00  0.00    -0.083 Cl
ENDBRANCH  26  31
ENDBRANCH   1  26
TORSDOF 4
