REMARK  Name = ZINC43146512
REMARK  6 active torsions:
REMARK  status: ('A' for Active; 'I' for Inactive)
REMARK    1  A    between atoms: C_1  and  N_2
REMARK    2  A    between atoms: N_2  and  C_3
REMARK    3  A    between atoms: N_2  and  C_4
REMARK    4  A    between atoms: C_4  and  C_9
REMARK    5  A    between atoms: C_9  and  N_10
REMARK    6  A    between atoms: C_16  and  C_19
REMARK                            x       y       z     vdW  Elec       q    Type
REMARK                         _______ _______ _______ _____ _____    ______ ____
ROOT
ATOM      1  N   UNL     1      -2.410   1.335   0.975  0.00  0.00    -0.301 N 
ATOM      2  C   UNL     1      -3.220   1.980   1.837  0.00  0.00    +0.302 C 
ATOM      3  O   UNL     1      -3.691   1.387   2.789  0.00  0.00    -0.253 OA
ATOM      4  N   UNL     1      -3.509   3.283   1.645  0.00  0.00    -0.282 N 
ATOM      5  C   UNL     1      -4.296   4.046   2.630  0.00  0.00    +0.114 C 
ATOM      6  C   UNL     1      -3.411   5.173   3.168  0.00  0.00    +0.054 C 
ATOM      7  C   UNL     1      -2.702   5.865   2.042  0.00  0.00    -0.039 C 
ATOM      8  C   UNL     1      -2.534   5.352   0.846  0.00  0.00    -0.004 C 
ATOM      9  C   UNL     1      -3.047   4.000   0.448  0.00  0.00    +0.137 C 
ATOM     10  H   UNL     1      -1.977   1.825   0.258  0.00  0.00    +0.150 HD
ENDROOT
BRANCH   7  11
ATOM     11  C   UNL     1      -2.156   7.213   2.296  0.00  0.00    +0.005 A 
ATOM     12  C   UNL     1      -2.861   8.369   2.396  0.00  0.00    +0.093 A 
ATOM     13  N   UNL     1      -2.010   9.409   2.636  0.00  0.00    -0.345 N 
ATOM     14  H   UNL     1      -2.281  10.334   2.745  0.00  0.00    +0.167 HD
ATOM     15  C   UNL     1      -0.712   8.958   2.701  0.00  0.00    +0.139 A 
ATOM     16  C   UNL     1      -0.742   7.567   2.498  0.00  0.00    +0.026 A 
ATOM     17  C   UNL     1       0.449   6.842   2.519  0.00  0.00    +0.013 A 
ATOM     18  C   UNL     1       1.626   7.532   2.744  0.00  0.00    +0.020 A 
ATOM     19  C   UNL     1       1.583   8.903   2.940  0.00  0.00    +0.113 A 
ATOM     20  N   UNL     1       0.448   9.569   2.909  0.00  0.00    -0.237 NA
ENDBRANCH   7  11
BRANCH   1  21
ATOM     21  C   UNL     1      -2.184  -0.105   1.119  0.00  0.00    +0.094 C 
BRANCH  21  22
ATOM     22  C   UNL     1      -1.333  -0.607  -0.048  0.00  0.00    -0.050 C 
ATOM     23  C   UNL     1      -2.088  -0.408  -1.378  0.00  0.00    -0.010 C 
ATOM     24  C   UNL     1      -1.718  -1.657  -2.216  0.00  0.00    -0.001 C 
ATOM     25  C   UNL     1      -1.695  -2.786  -1.155  0.00  0.00    -0.001 C 
ATOM     26  C   UNL     1      -1.083  -2.119   0.094  0.00  0.00    -0.010 C 
BRANCH  22  28
ATOM     27  C   UNL     1       0.684  -0.136   1.162  0.00  0.00    -0.096 C 
ATOM     28  N   UNL     1      -0.053   0.113  -0.084  0.00  0.00    +0.381 N 
ATOM     29  C   UNL     1       0.742  -0.357  -1.226  0.00  0.00    -0.096 C 
ATOM     30  H   UNL     1      -0.227   1.103  -0.180  0.00  0.00    -0.082 HD
ENDBRANCH  22  28
ENDBRANCH  21  22
ENDBRANCH   1  21
TORSDOF 4
