REMARK  Name = ZINC00939335
REMARK  6 active torsions:
REMARK  status: ('A' for Active; 'I' for Inactive)
REMARK    1  A    between atoms: C_4  and  N_7
REMARK    2  A    between atoms: N_7  and  C_8
REMARK    3  A    between atoms: C_8  and  N_10
REMARK    4  A    between atoms: N_10  and  N_11
REMARK    5  A    between atoms: C_12  and  C_13
REMARK    6  A    between atoms: C_16  and  C_18
REMARK                            x       y       z     vdW  Elec       q    Type
REMARK                         _______ _______ _______ _____ _____    ______ ____
ROOT
ATOM      1  N   UNL     1      -2.970   4.554   0.030  0.00  0.00    -0.185 NA
ATOM      2  C   UNL     1      -1.688   4.775   0.000  0.00  0.00    +0.176 C 
ENDROOT
BRANCH   2   3
ATOM      3  C   UNL     1      -0.753   3.717   0.389  0.00  0.00    +0.148 A 
ATOM      4  C   UNL     1       0.620   3.817   0.403  0.00  0.00    +0.051 A 
ATOM      5  C   UNL     1       1.111   2.578   0.838  0.00  0.00    +0.050 A 
ATOM      6  C   UNL     1       0.032   1.779   1.070  0.00  0.00    +0.136 A 
ATOM      7  O   UNL     1      -1.087   2.474   0.790  0.00  0.00    -0.454 OA
BRANCH   6   8
ATOM      8  C   UNL     1       0.081   0.381   1.542  0.00  0.00    +0.017 A 
ATOM      9  C   UNL     1       1.312  -0.234   1.786  0.00  0.00    +0.012 A 
ATOM     10  C   UNL     1       1.351  -1.538   2.232  0.00  0.00    +0.016 A 
ATOM     11  C   UNL     1       0.174  -2.241   2.428  0.00  0.00    +0.018 A 
ATOM     12  C   UNL     1      -1.048  -1.640   2.184  0.00  0.00    +0.016 A 
ATOM     13  C   UNL     1      -1.102  -0.334   1.742  0.00  0.00    +0.012 A 
ATOM     14 BR   UNL     1       0.238  -4.032   3.033  0.00  0.00    -0.050 Br
ENDBRANCH   6   8
ENDBRANCH   2   3
BRANCH   1  15
ATOM     15  N   UNL     1      -3.865   5.566  -0.342  0.00  0.00    -0.218 N 
ATOM     16  H   UNL     1      -3.528   6.432  -0.622  0.00  0.00    +0.176 HD
BRANCH  15  17
ATOM     17  C   UNL     1      -5.192   5.338  -0.311  0.00  0.00    +0.154 C 
ATOM     18  S   UNL     1      -6.285   6.575  -0.765  0.00  0.00    -0.017 S 
BRANCH  17  19
ATOM     19  N   UNL     1      -5.660   4.135   0.078  0.00  0.00    -0.296 N 
ATOM     20  H   UNL     1      -5.041   3.415   0.277  0.00  0.00    +0.154 HD
BRANCH  19  24
ATOM     21  C   UNL     1      -9.763   3.509   0.428  0.00  0.00    +0.000 A 
ATOM     22  C   UNL     1      -9.256   4.154  -0.685  0.00  0.00    +0.002 A 
ATOM     23  C   UNL     1      -7.896   4.363  -0.804  0.00  0.00    +0.023 A 
ATOM     24  C   UNL     1      -7.038   3.925   0.196  0.00  0.00    +0.033 A 
ATOM     25  C   UNL     1      -7.550   3.273   1.310  0.00  0.00    +0.023 A 
ATOM     26  C   UNL     1      -8.911   3.072   1.426  0.00  0.00    +0.002 A 
ENDBRANCH  19  24
ENDBRANCH  17  19
ENDBRANCH  15  17
ENDBRANCH   1  15
TORSDOF 6
