REMARK  Name = ZINC41669638
REMARK  4 active torsions:
REMARK  status: ('A' for Active; 'I' for Inactive)
REMARK    1  A    between atoms: C_1  and  C_2
REMARK    2  A    between atoms: C_2  and  C_3
REMARK    3  A    between atoms: C_2  and  N_4
REMARK    4  A    between atoms: C_14  and  C_17
REMARK                            x       y       z     vdW  Elec       q    Type
REMARK                         _______ _______ _______ _____ _____    ______ ____
ROOT
ATOM      1  N   UNL     1       0.690  -0.478  -1.207  0.00  0.00    -0.264 NA
ATOM      2  C   UNL     1       0.810  -1.943  -1.204  0.00  0.00    +0.130 C 
ATOM      3  C   UNL     1       1.350  -2.408  -2.532  0.00  0.00    +0.051 A 
ATOM      4  C   UNL     1       1.321  -1.581  -3.640  0.00  0.00    +0.130 A 
ATOM      5  C   UNL     1       1.821  -2.023  -4.866  0.00  0.00    +0.047 A 
ATOM      6  C   UNL     1       2.349  -3.276  -4.988  0.00  0.00    +0.019 A 
ATOM      7  C   UNL     1       2.387  -4.119  -3.878  0.00  0.00    +0.065 A 
ATOM      8  C   UNL     1       1.881  -3.689  -2.639  0.00  0.00    +0.146 A 
ATOM      9  O   UNL     1       1.903  -4.511  -1.572  0.00  0.00    -0.462 OA
ATOM     10  C   UNL     1       2.652  -5.615  -1.551  0.00  0.00    +0.208 A 
ATOM     11  C   UNL     1       3.196  -6.157  -2.673  0.00  0.00    +0.064 A 
ATOM     12  C   UNL     1       2.955  -5.478  -3.961  0.00  0.00    +0.200 A 
ATOM     13  O   UNL     1       3.210  -6.008  -5.029  0.00  0.00    -0.286 OA
ATOM     14  O   UNL     1       0.810  -0.324  -3.555  0.00  0.00    -0.476 OA
ATOM     15  C   UNL     1      -0.010  -0.029  -2.422  0.00  0.00    +0.319 C 
ENDROOT
BRANCH  11  16
ATOM     16  C   UNL     1       4.009  -7.395  -2.605  0.00  0.00    -0.011 A 
ATOM     17  C   UNL     1       5.365  -7.360  -2.924  0.00  0.00    +0.010 A 
ATOM     18  C   UNL     1       6.117  -8.515  -2.858  0.00  0.00    +0.016 A 
ATOM     19  C   UNL     1       5.527  -9.707  -2.476  0.00  0.00    +0.018 A 
ATOM     20  C   UNL     1       4.180  -9.748  -2.158  0.00  0.00    +0.016 A 
ATOM     21  C   UNL     1       3.421  -8.597  -2.215  0.00  0.00    +0.010 A 
ATOM     22 BR   UNL     1       6.564 -11.286  -2.388  0.00  0.00    -0.050 Br
ENDBRANCH  11  16
BRANCH   1  24
ATOM     23  C   UNL     1      -0.019   1.526   0.010  0.00  0.00    +0.024 C 
ATOM     24  C   UNL     1       0.002  -0.004   0.002  0.00  0.00    +0.054 C 
ATOM     25  C   UNL     1      -1.433  -0.534   0.013  0.00  0.00    +0.024 C 
ENDBRANCH   1  24
TORSDOF 2
