REMARK  Name = ZINC01084888
REMARK  8 active torsions:
REMARK  status: ('A' for Active; 'I' for Inactive)
REMARK    1  A    between atoms: C_1  and  C_2
REMARK    2  A    between atoms: C_2  and  O_3
REMARK    3  A    between atoms: O_3  and  C_4
REMARK    4  A    between atoms: C_4  and  C_6
REMARK    5  A    between atoms: C_6  and  C_31
REMARK    6  A    between atoms: C_11  and  C_28
REMARK    7  A    between atoms: C_14  and  C_25
REMARK    8  A    between atoms: C_16  and  C_18
REMARK                            x       y       z     vdW  Elec       q    Type
REMARK                         _______ _______ _______ _____ _____    ______ ____
ROOT
ATOM      1  C   UNL     1       1.177  -2.417   2.501  0.00  0.00    +0.184 C 
ATOM      2  C   UNL     1       2.545  -1.732   2.348  0.00  0.00    +0.128 C 
ATOM      3  C   UNL     1       2.727  -1.194   0.951  0.00  0.00    -0.002 C 
ATOM      4  C   UNL     1       3.938  -1.222   0.401  0.00  0.00    +0.012 C 
ATOM      5  C   UNL     1       5.101  -1.764   1.133  0.00  0.00    +0.050 C 
ATOM      6  C   UNL     1       4.886  -2.576   2.223  0.00  0.00    +0.084 C 
ATOM      7  N   UNL     1       3.575  -2.768   2.569  0.00  0.00    -0.314 N 
ATOM      8  C   UNL     1       2.922  -3.969   3.095  0.00  0.00    +0.169 C 
ATOM      9  C   UNL     1       1.511  -3.932   2.447  0.00  0.00    +0.081 C 
ENDROOT
BRANCH   9  10
ATOM     10  C   UNL     1       1.558  -4.422   1.023  0.00  0.00    -0.040 A 
ATOM     11  C   UNL     1       2.574  -4.007   0.182  0.00  0.00    +0.005 A 
ATOM     12  C   UNL     1       2.619  -4.457  -1.124  0.00  0.00    +0.020 A 
ATOM     13  C   UNL     1       1.646  -5.323  -1.590  0.00  0.00    +0.041 A 
ATOM     14  C   UNL     1       0.629  -5.738  -0.749  0.00  0.00    +0.020 A 
ATOM     15  C   UNL     1       0.589  -5.292   0.559  0.00  0.00    +0.005 A 
ATOM     16 CL   UNL     1       1.700  -5.887  -3.231  0.00  0.00    -0.084 Cl
ENDBRANCH   9  10
BRANCH   8  17
ATOM     17  C   UNL     1       2.821  -3.902   4.597  0.00  0.00    +0.232 C 
ATOM     18  O   UNL     1       2.932  -2.837   5.166  0.00  0.00    -0.274 OA
ATOM     19  N   UNL     1       2.607  -5.027   5.308  0.00  0.00    -0.328 N 
ATOM     20  H   UNL     1       2.519  -5.879   4.854  0.00  0.00    +0.145 HD
ATOM     21  H   UNL     1       2.542  -4.984   6.275  0.00  0.00    +0.145 HD
ENDBRANCH   8  17
BRANCH   5  22
ATOM     22  C   UNL     1       6.466  -1.441   0.704  0.00  0.00    +0.243 C 
ATOM     23  O   UNL     1       7.418  -1.893   1.313  0.00  0.00    -0.270 OA
ATOM     24  N   UNL     1       6.666  -0.645  -0.365  0.00  0.00    -0.325 N 
ATOM     25  H   UNL     1       5.907  -0.286  -0.851  0.00  0.00    +0.145 HD
ATOM     26  H   UNL     1       7.569  -0.432  -0.648  0.00  0.00    +0.145 HD
ENDBRANCH   5  22
BRANCH   1  27
ATOM     27  C   UNL     1       0.264  -2.035   1.364  0.00  0.00    +0.330 C 
ATOM     28  O   UNL     1      -0.099  -2.874   0.574  0.00  0.00    -0.249 OA
BRANCH  27  29
ATOM     29  O   UNL     1      -0.146  -0.764   1.230  0.00  0.00    -0.464 OA
BRANCH  29  31
ATOM     30  C   UNL     1      -1.368   1.014   0.142  0.00  0.00    +0.048 C 
ATOM     31  C   UNL     1      -1.010  -0.474   0.130  0.00  0.00    +0.229 C 
ENDBRANCH  29  31
ENDBRANCH  27  29
ENDBRANCH   1  27
BRANCH   1  32
ATOM     32  C   UNL     1       0.563  -2.069   3.793  0.00  0.00    +0.084 C 
ATOM     33  N   UNL     1       0.090  -1.801   4.791  0.00  0.00    -0.195 NA
ENDBRANCH   1  32
TORSDOF 7
