REMARK  Name = ZINC14831730
REMARK  9 active torsions:
REMARK  status: ('A' for Active; 'I' for Inactive)
REMARK    1  A    between atoms: C_1  and  C_2
REMARK    2  A    between atoms: C_2  and  C_3
REMARK    3  A    between atoms: C_2  and  C_4
REMARK    4  A    between atoms: C_9  and  O_10
REMARK    5  A    between atoms: O_10  and  C_11
REMARK    6  A    between atoms: C_11  and  C_12
REMARK    7  A    between atoms: N_14  and  C_15
REMARK    8  A    between atoms: C_18  and  S_21
REMARK    9  A    between atoms: S_21  and  N_24
REMARK                            x       y       z     vdW  Elec       q    Type
REMARK                         _______ _______ _______ _____ _____    ______ ____
ROOT
ATOM      1  C   UNL     1      -0.717   1.573   1.248  0.00  0.00    +0.255 C 
ATOM      2  O   UNL     1      -1.709   2.264   1.150  0.00  0.00    -0.272 OA
ATOM      3  N   UNL     1      -0.242   1.246   2.466  0.00  0.00    -0.283 N 
ATOM      4  H   UNL     1       0.511   0.639   2.546  0.00  0.00    +0.155 HD
ENDROOT
BRANCH   3   5
ATOM      5  C   UNL     1      -0.833   1.782   3.615  0.00  0.00    +0.034 A 
ATOM      6  C   UNL     1      -0.052   2.086   4.722  0.00  0.00    +0.025 A 
ATOM      7  C   UNL     1      -0.639   2.621   5.853  0.00  0.00    +0.030 A 
ATOM      8  C   UNL     1      -2.003   2.842   5.887  0.00  0.00    +0.105 A 
ATOM      9  C   UNL     1      -2.784   2.535   4.788  0.00  0.00    +0.030 A 
ATOM     10  C   UNL     1      -2.203   2.006   3.652  0.00  0.00    +0.025 A 
BRANCH   8  11
ATOM     11  S   UNL     1      -2.748   3.518   7.334  0.00  0.00    +0.056 S 
ATOM     12  O   UNL     1      -1.728   4.226   8.023  0.00  0.00    -0.153 OA
ATOM     13  O   UNL     1      -3.957   4.137   6.917  0.00  0.00    -0.153 OA
BRANCH  11  14
ATOM     14  N   UNL     1      -3.178   2.245   8.303  0.00  0.00    -0.204 NA
ATOM     15  H   UNL     1      -3.192   2.353   9.267  0.00  0.00    +0.144 HD
ATOM     16  H   UNL     1      -3.417   1.393   7.906  0.00  0.00    +0.144 HD
ENDBRANCH  11  14
ENDBRANCH   8  11
ENDBRANCH   3   5
BRANCH   1  17
ATOM     17  C   UNL     1      -0.016   1.080   0.008  0.00  0.00    +0.324 C 
BRANCH  17  18
ATOM     18  O   UNL     1      -0.705   1.556  -1.150  0.00  0.00    -0.482 OA
BRANCH  18  24
ATOM     19  C   UNL     1      -0.821   1.622  -3.525  0.00  0.00    -0.002 A 
ATOM     20  C   UNL     1      -0.302   1.262  -4.754  0.00  0.00    +0.022 A 
ATOM     21  C   UNL     1       0.831   0.471  -4.822  0.00  0.00    +0.018 A 
ATOM     22  C   UNL     1       1.450   0.044  -3.661  0.00  0.00    +0.019 A 
ATOM     23  C   UNL     1       0.937   0.406  -2.430  0.00  0.00    +0.047 A 
ATOM     24  C   UNL     1      -0.199   1.199  -2.360  0.00  0.00    +0.125 A 
ATOM     25 BR   UNL     1       1.535  -0.026  -6.505  0.00  0.00    -0.050 Br
BRANCH  19  27
ATOM     26  C   UNL     1      -1.800   3.812  -4.152  0.00  0.00    +0.012 C 
ATOM     27  C   UNL     1      -2.060   2.478  -3.451  0.00  0.00    +0.016 C 
ATOM     28  C   UNL     1      -3.220   1.756  -4.140  0.00  0.00    +0.012 C 
ENDBRANCH  19  27
ENDBRANCH  18  24
ENDBRANCH  17  18
ENDBRANCH   1  17
TORSDOF 7
