REMARK  Name = ZINC03338775
REMARK  7 active torsions:
REMARK  status: ('A' for Active; 'I' for Inactive)
REMARK    1  A    between atoms: C_1  and  C_2
REMARK    2  A    between atoms: C_2  and  C_4
REMARK    3  A    between atoms: C_2  and  N_14
REMARK    4  A    between atoms: C_7  and  S_10
REMARK    5  A    between atoms: S_10  and  N_13
REMARK    6  A    between atoms: N_14  and  C_15
REMARK    7  A    between atoms: C_15  and  C_17
REMARK                            x       y       z     vdW  Elec       q    Type
REMARK                         _______ _______ _______ _____ _____    ______ ____
ROOT
ATOM      1  C   UNL     1      -5.454   4.055   1.417  0.00  0.00    +0.033 C 
ATOM      2  C   UNL     1      -5.020   3.819  -0.031  0.00  0.00    +0.098 C 
ENDROOT
BRANCH   2   3
ATOM      3  C   UNL     1      -6.054   2.980  -0.736  0.00  0.00    -0.027 A 
ATOM      4  C   UNL     1      -6.069   1.609  -0.559  0.00  0.00    +0.007 A 
ATOM      5  C   UNL     1      -7.021   0.839  -1.201  0.00  0.00    +0.029 A 
ATOM      6  C   UNL     1      -7.951   1.439  -2.029  0.00  0.00    +0.105 A 
ATOM      7  C   UNL     1      -7.933   2.810  -2.210  0.00  0.00    +0.029 A 
ATOM      8  C   UNL     1      -6.984   3.580  -1.563  0.00  0.00    +0.007 A 
BRANCH   6   9
ATOM      9  S   UNL     1      -9.160   0.458  -2.854  0.00  0.00    +0.056 S 
ATOM     10  O   UNL     1      -9.305  -0.732  -2.091  0.00  0.00    -0.153 OA
ATOM     11  O   UNL     1     -10.254   1.317  -3.141  0.00  0.00    -0.153 OA
BRANCH   9  12
ATOM     12  N   UNL     1      -8.515   0.009  -4.311  0.00  0.00    -0.204 NA
ATOM     13  H   UNL     1      -8.776  -0.831  -4.720  0.00  0.00    +0.144 HD
ATOM     14  H   UNL     1      -7.876   0.587  -4.757  0.00  0.00    +0.144 HD
ENDBRANCH   9  12
ENDBRANCH   6   9
ENDBRANCH   2   3
BRANCH   2  15
ATOM     15  N   UNL     1      -3.732   3.122  -0.047  0.00  0.00    -0.331 N 
ATOM     16  H   UNL     1      -3.704   2.155  -0.125  0.00  0.00    +0.147 HD
BRANCH  15  17
ATOM     17  C   UNL     1      -2.584   3.823   0.047  0.00  0.00    +0.080 C 
ATOM     18  S   UNL     1      -2.633   5.529   0.185  0.00  0.00    -0.035 S 
BRANCH  17  19
ATOM     19  C   UNL     1      -1.290   3.122   0.032  0.00  0.00    +0.011 A 
ATOM     20  C   UNL     1      -0.686   2.720   1.217  0.00  0.00    +0.011 A 
ATOM     21  C   UNL     1       0.537   2.064   1.199  0.00  0.00    +0.001 A 
ATOM     22  C   UNL     1       1.183   1.780   0.035  0.00  0.00    +0.008 A 
ATOM     23  C   UNL     1       0.628   2.152  -1.201  0.00  0.00    -0.017 A 
ATOM     24  C   UNL     1      -0.616   2.828  -1.231  0.00  0.00    -0.008 A 
ATOM     25  C   UNL     1      -1.172   3.199  -2.461  0.00  0.00    +0.009 A 
ATOM     26  C   UNL     1      -0.509   2.906  -3.616  0.00  0.00    +0.001 A 
ATOM     27  C   UNL     1       0.714   2.241  -3.590  0.00  0.00    +0.001 A 
ATOM     28  C   UNL     1       1.283   1.865  -2.412  0.00  0.00    +0.008 A 
ENDBRANCH  17  19
ENDBRANCH  15  17
ENDBRANCH   2  15
TORSDOF 6
