REMARK  Name = ZINC59941903
REMARK  5 active torsions:
REMARK  status: ('A' for Active; 'I' for Inactive)
REMARK    1  A    between atoms: C_4  and  C_7
REMARK    2  A    between atoms: C_13  and  C_15
REMARK    3  A    between atoms: C_15  and  S_16
REMARK    4  A    between atoms: S_16  and  C_17
REMARK    5  A    between atoms: C_21  and  C_25
REMARK                            x       y       z     vdW  Elec       q    Type
REMARK                         _______ _______ _______ _____ _____    ______ ____
ROOT
ATOM      1  C   UNL     1       8.995  -4.155  -0.109  0.00  0.00    +0.173 C 
ENDROOT
BRANCH   1   8
ATOM      2  C   UNL     1       3.695  -0.685  -0.037  0.00  0.00    +0.134 A 
ATOM      3  N   UNL     1       4.934  -0.208  -0.041  0.00  0.00    -0.140 NA
ATOM      4  N   UNL     1       5.900  -1.023  -0.056  0.00  0.00    -0.125 NA
ATOM      5  C   UNL     1       5.713  -2.329  -0.068  0.00  0.00    +0.188 A 
ATOM      6  S   UNL     1       4.031  -2.440  -0.050  0.00  0.00    -0.030 S 
ATOM      7  N   UNL     1       6.657  -3.348  -0.085  0.00  0.00    -0.263 N 
ATOM      8  C   UNL     1       7.971  -3.050  -0.091  0.00  0.00    +0.229 C 
ATOM      9  O   UNL     1       8.329  -1.891  -0.081  0.00  0.00    -0.275 OA
ATOM     10  H   UNL     1       6.370  -4.275  -0.092  0.00  0.00    +0.157 HD
BRANCH   2  14
ATOM     11  C   UNL     1      -0.017   1.379   0.010  0.00  0.00    +0.000 A 
ATOM     12  C   UNL     1       1.168   2.093   0.002  0.00  0.00    +0.001 A 
ATOM     13  C   UNL     1       2.377   1.429  -0.013  0.00  0.00    +0.010 A 
ATOM     14  C   UNL     1       2.403   0.034  -0.021  0.00  0.00    +0.009 A 
ATOM     15  C   UNL     1       1.204  -0.681  -0.013  0.00  0.00    +0.010 A 
ATOM     16  C   UNL     1       0.002  -0.004   0.002  0.00  0.00    +0.001 A 
ENDBRANCH   2  14
ENDBRANCH   1   8
BRANCH   1  17
ATOM     17  S   UNL     1      10.661  -3.437  -0.113  0.00  0.00    -0.078 S 
BRANCH  17  18
ATOM     18  C   UNL     1      11.729  -4.838  -0.135  0.00  0.00    +0.173 A 
ATOM     19  N   UNL     1      11.204  -6.046  -0.144  0.00  0.00    -0.185 NA
ATOM     20  C   UNL     1      11.972  -7.137  -0.160  0.00  0.00    +0.285 A 
ATOM     21  O   UNL     1      11.407  -8.366  -0.169  0.00  0.00    -0.265 OA
ATOM     22  C   UNL     1      13.363  -7.003  -0.168  0.00  0.00    +0.113 A 
ATOM     23  C   UNL     1      13.914  -5.703  -0.159  0.00  0.00    +0.264 A 
ATOM     24  O   UNL     1      15.123  -5.541  -0.166  0.00  0.00    -0.267 OA
ATOM     25  N   UNL     1      13.077  -4.645  -0.148  0.00  0.00    -0.301 N 
ATOM     26  H   UNL     1      13.437  -3.744  -0.145  0.00  0.00    +0.171 HD
BRANCH  22  27
ATOM     27  C   UNL     1      14.238  -8.197  -0.186  0.00  0.00    -0.007 A 
ATOM     28  C   UNL     1      15.067  -8.474   0.901  0.00  0.00    +0.009 A 
ATOM     29  C   UNL     1      15.880  -9.588   0.879  0.00  0.00    +0.001 A 
ATOM     30  C   UNL     1      15.875 -10.430  -0.219  0.00  0.00    +0.000 A 
ATOM     31  C   UNL     1      15.056 -10.160  -1.301  0.00  0.00    +0.001 A 
ATOM     32  C   UNL     1      14.233  -9.052  -1.288  0.00  0.00    +0.009 A 
ENDBRANCH  22  27
ENDBRANCH  17  18
ENDBRANCH   1  17
TORSDOF 5
