REMARK  Name = ZINC04491422
REMARK  7 active torsions:
REMARK  status: ('A' for Active; 'I' for Inactive)
REMARK    1  A    between atoms: C_1  and  C_2
REMARK    2  A    between atoms: C_2  and  C_3
REMARK    3  A    between atoms: C_3  and  C_5
REMARK    4  A    between atoms: C_3  and  S_17
REMARK    5  A    between atoms: N_7  and  C_8
REMARK    6  A    between atoms: C_11  and  N_14
REMARK    7  A    between atoms: S_17  and  C_18
REMARK                            x       y       z     vdW  Elec       q    Type
REMARK                         _______ _______ _______ _____ _____    ______ ____
ROOT
ATOM      1  C   UNL     1       3.358   7.548   0.218  0.00  0.00    +0.139 C 
ENDROOT
BRANCH   1   2
ATOM      2  C   UNL     1       3.878   8.903   0.623  0.00  0.00    +0.231 C 
ATOM      3  O   UNL     1       3.115   9.839   0.729  0.00  0.00    -0.274 OA
ATOM      4  N   UNL     1       5.193   9.075   0.866  0.00  0.00    -0.285 N 
ATOM      5  H   UNL     1       5.813   8.345   0.716  0.00  0.00    +0.155 HD
BRANCH   4   6
ATOM      6  C   UNL     1       5.662  10.306   1.337  0.00  0.00    +0.034 A 
ATOM      7  C   UNL     1       5.080  11.487   0.896  0.00  0.00    +0.025 A 
ATOM      8  C   UNL     1       5.542  12.701   1.366  0.00  0.00    +0.034 A 
ATOM      9  C   UNL     1       6.591  12.741   2.266  0.00  0.00    +0.126 A 
ATOM     10  C   UNL     1       7.176  11.567   2.703  0.00  0.00    +0.034 A 
ATOM     11  C   UNL     1       6.715  10.350   2.241  0.00  0.00    +0.025 A 
BRANCH   9  12
ATOM     12  N   UNL     1       7.087  14.044   2.764  0.00  0.00    +0.056 N 
ATOM     13  O   UNL     1       8.011  14.081   3.558  0.00  0.00    -0.126 OA
ATOM     14  O   UNL     1       6.572  15.079   2.380  0.00  0.00    -0.126 OA
ENDBRANCH   9  12
ENDBRANCH   4   6
ENDBRANCH   1   2
BRANCH   1  16
ATOM     15  C   UNL     1       3.223   5.897  -1.652  0.00  0.00    +0.005 C 
ATOM     16  C   UNL     1       3.624   7.323  -1.272  0.00  0.00    +0.020 C 
ENDBRANCH   1  16
BRANCH   1  17
ATOM     17  S   UNL     1       1.577   7.468   0.531  0.00  0.00    -0.086 S 
BRANCH  17  18
ATOM     18  C   UNL     1       1.574   7.499   2.293  0.00  0.00    +0.136 A 
ATOM     19  N   UNL     1       0.550   7.561   3.115  0.00  0.00    -0.233 NA
ATOM     20  C   UNL     1       0.699   7.577   4.457  0.00  0.00    +0.079 A 
ATOM     21  C   UNL     1      -0.310   7.641   5.446  0.00  0.00    +0.029 A 
ATOM     22  C   UNL     1       0.013   7.643   6.778  0.00  0.00    +0.002 A 
ATOM     23  C   UNL     1       1.333   7.594   7.203  0.00  0.00    +0.001 A 
ATOM     24  C   UNL     1       2.345   7.531   6.263  0.00  0.00    +0.017 A 
ATOM     25  C   UNL     1       2.030   7.522   4.927  0.00  0.00    +0.040 A 
ATOM     26  S   UNL     1       2.963   7.453   3.417  0.00  0.00    -0.061 S 
ENDBRANCH  17  18
ENDBRANCH   1  17
TORSDOF 6
