REMARK  Name = ZINC30552401
REMARK  6 active torsions:
REMARK  status: ('A' for Active; 'I' for Inactive)
REMARK    1  A    between atoms: C_1  and  C_2
REMARK    2  A    between atoms: C_5  and  N_9
REMARK    3  A    between atoms: N_9  and  N_10
REMARK    4  A    between atoms: C_11  and  C_13
REMARK    5  A    between atoms: C_13  and  C_14
REMARK    6  A    between atoms: C_14  and  N_15
REMARK                            x       y       z     vdW  Elec       q    Type
REMARK                         _______ _______ _______ _____ _____    ______ ____
ROOT
ATOM      1  N   UNL     1       0.074  -4.876   1.187  0.00  0.00    -0.236 N 
ATOM      2  C   UNL     1       0.092  -6.224   1.179  0.00  0.00    +0.231 C 
ATOM      3  O   UNL     1       0.095  -6.824   0.124  0.00  0.00    -0.274 OA
ATOM      4  H   UNL     1       0.072  -4.396   2.030  0.00  0.00    +0.173 HD
ENDROOT
BRANCH   1   5
ATOM      5  N   UNL     1       0.059  -4.168  -0.022  0.00  0.00    -0.264 N 
ATOM      6  H   UNL     1       0.060  -4.648  -0.865  0.00  0.00    +0.170 HD
BRANCH   5  11
ATOM      7  C   UNL     1      -0.018   1.503   0.010  0.00  0.00    +0.045 C 
ATOM      8  C   UNL     1       0.002  -0.004   0.002  0.00  0.00    -0.032 A 
ATOM      9  C   UNL     1       0.006  -0.688  -1.200  0.00  0.00    +0.006 A 
ATOM     10  C   UNL     1       0.025  -2.068  -1.212  0.00  0.00    +0.025 A 
ATOM     11  C   UNL     1       0.040  -2.772  -0.013  0.00  0.00    +0.046 A 
ATOM     12  C   UNL     1       0.037  -2.083   1.193  0.00  0.00    +0.044 A 
ATOM     13  C   UNL     1       0.023  -0.701   1.197  0.00  0.00    +0.046 A 
ATOM     14 CL   UNL     1       0.025   0.161   2.704  0.00  0.00    -0.083 Cl
ENDBRANCH   5  11
ENDBRANCH   1   5
BRANCH   2  15
ATOM     15  C   UNL     1       0.109  -6.985   2.479  0.00  0.00    +0.117 C 
BRANCH  15  16
ATOM     16  C   UNL     1       0.127  -8.487   2.190  0.00  0.00    +0.127 C 
BRANCH  16  17
ATOM     17  N   UNL     1       0.144  -9.228   3.454  0.00  0.00    -0.224 N 
ATOM     18  C   UNL     1       1.269  -9.592   4.106  0.00  0.00    +0.247 C 
ATOM     19  O   UNL     1       2.415  -9.378   3.772  0.00  0.00    -0.273 OA
ATOM     20  C   UNL     1       0.796 -10.320   5.338  0.00  0.00    +0.113 C 
ATOM     21  C   UNL     1       1.286  -9.621   6.614  0.00  0.00    +0.035 C 
ATOM     22  C   UNL     1       1.556 -10.787   7.600  0.00  0.00    +0.003 C 
ATOM     23  C   UNL     1       2.134 -11.891   6.679  0.00  0.00    +0.003 C 
ATOM     24  C   UNL     1       1.323 -11.757   5.371  0.00  0.00    +0.035 C 
ATOM     25  N   UNL     1      -0.664 -10.289   5.245  0.00  0.00    -0.285 N 
ATOM     26  C   UNL     1      -0.955  -9.622   4.110  0.00  0.00    +0.309 C 
ATOM     27  O   UNL     1      -2.087  -9.407   3.723  0.00  0.00    -0.252 OA
ATOM     28  H   UNL     1      -1.296 -10.668   5.876  0.00  0.00    +0.151 HD
ENDBRANCH  16  17
ENDBRANCH  15  16
ENDBRANCH   2  15
TORSDOF 5
