REMARK  Name = ZINC40933448
REMARK  9 active torsions:
REMARK  status: ('A' for Active; 'I' for Inactive)
REMARK    1  A    between atoms: C_1  and  C_2
REMARK    2  A    between atoms: C_2  and  C_3
REMARK    3  A    between atoms: C_3  and  N_4
REMARK    4  A    between atoms: C_5  and  C_19
REMARK    5  A    between atoms: C_6  and  N_18
REMARK    6  A    between atoms: N_9  and  C_10
REMARK    7  A    between atoms: C_13  and  C_17
REMARK    8  A    between atoms: C_19  and  C_20
REMARK    9  A    between atoms: C_19  and  C_21
REMARK                            x       y       z     vdW  Elec       q    Type
REMARK                         _______ _______ _______ _____ _____    ______ ____
ROOT
ATOM      1  N   UNL     1       0.992  -2.082  -1.374  0.00  0.00    -0.279 N 
ATOM      2  C   UNL     1       0.077  -2.942  -1.933  0.00  0.00    +0.065 A 
ATOM      3  C   UNL     1       0.291  -4.175  -1.426  0.00  0.00    +0.113 A 
ATOM      4  C   UNL     1       1.376  -4.094  -0.516  0.00  0.00    +0.293 A 
ATOM      5  O   UNL     1       1.844  -5.016   0.128  0.00  0.00    -0.264 OA
ATOM      6  N   UNL     1       1.800  -2.814  -0.495  0.00  0.00    -0.215 N 
ENDROOT
BRANCH   6   7
ATOM      7  C   UNL     1       2.857  -2.309   0.268  0.00  0.00    +0.069 A 
ATOM      8  C   UNL     1       2.947  -2.614   1.621  0.00  0.00    +0.028 A 
ATOM      9  C   UNL     1       3.991  -2.114   2.373  0.00  0.00    +0.007 A 
ATOM     10  C   UNL     1       4.948  -1.309   1.781  0.00  0.00    -0.032 A 
ATOM     11  C   UNL     1       4.862  -1.002   0.434  0.00  0.00    +0.046 A 
ATOM     12  C   UNL     1       3.822  -1.505  -0.325  0.00  0.00    +0.048 A 
ATOM     13 CL   UNL     1       6.064   0.009  -0.304  0.00  0.00    -0.083 Cl
ATOM     14  C   UNL     1       6.086  -0.764   2.605  0.00  0.00    +0.045 C 
ENDBRANCH   6   7
BRANCH   3  15
ATOM     15  N   UNL     1      -0.439  -5.340  -1.745  0.00  0.00    -0.352 N 
ATOM     16  H   UNL     1      -1.169  -5.295  -2.382  0.00  0.00    +0.143 HD
ATOM     17  H   UNL     1      -0.210  -6.185  -1.327  0.00  0.00    +0.143 HD
ENDBRANCH   3  15
BRANCH   2  18
ATOM     18  C   UNL     1      -0.982  -2.572  -2.938  0.00  0.00    +0.033 C 
ATOM     19  C   UNL     1      -1.798  -1.391  -2.409  0.00  0.00    +0.014 C 
ATOM     20  C   UNL     1      -0.318  -2.182  -4.260  0.00  0.00    +0.014 C 
ENDBRANCH   2  18
BRANCH   1  21
ATOM     21  C   UNL     1       1.106  -0.648  -1.654  0.00  0.00    +0.142 C 
BRANCH  21  23
ATOM     22  C   UNL     1       0.503   1.640  -0.850  0.00  0.00    +0.005 C 
ATOM     23  C   UNL     1       0.325   0.141  -0.600  0.00  0.00    +0.020 C 
ENDBRANCH  21  23
ENDBRANCH   1  21
TORSDOF 5
