REMARK  Name = ZINC12885378
REMARK  5 active torsions:
REMARK  status: ('A' for Active; 'I' for Inactive)
REMARK    1  A    between atoms: C_1  and  C_2
REMARK    2  A    between atoms: C_2  and  C_4
REMARK    3  A    between atoms: C_2  and  O_36
REMARK    4  A    between atoms: N_12  and  C_15
REMARK    5  A    between atoms: C_15  and  C_16
REMARK                            x       y       z     vdW  Elec       q    Type
REMARK                         _______ _______ _______ _____ _____    ______ ____
ROOT
ATOM      1  C   UNL     1      -0.750   3.109   1.275  0.00  0.00    -0.028 C 
ATOM      2  C   UNL     1      -1.468   3.630   2.538  0.00  0.00    +0.075 C 
ATOM      3  C   UNL     1      -2.256   4.881   2.060  0.00  0.00    +0.088 C 
ATOM      4  C   UNL     1      -1.560   6.018   2.806  0.00  0.00    +0.225 C 
ATOM      5  O   UNL     1      -1.854   7.191   2.722  0.00  0.00    -0.275 OA
ATOM      6  N   UNL     1      -0.582   5.519   3.571  0.00  0.00    -0.237 N 
ATOM      7  C   UNL     1      -0.443   4.190   3.497  0.00  0.00    +0.224 C 
ATOM      8  O   UNL     1       0.378   3.538   4.105  0.00  0.00    -0.275 OA
ATOM      9  C   UNL     1      -1.955   4.978   0.560  0.00  0.00    +0.050 C 
ATOM     10  C   UNL     1      -3.146   5.471  -0.212  0.00  0.00    -0.026 A 
ATOM     11  C   UNL     1      -4.434   5.007  -0.366  0.00  0.00    +0.004 A 
ATOM     12  C   UNL     1      -5.328   5.698  -1.164  0.00  0.00    +0.002 A 
ATOM     13  C   UNL     1      -4.926   6.855  -1.806  0.00  0.00    +0.022 A 
ATOM     14  C   UNL     1      -3.637   7.324  -1.655  0.00  0.00    +0.062 A 
ATOM     15  C   UNL     1      -2.730   6.634  -0.852  0.00  0.00    +0.054 A 
ATOM     16  N   UNL     1      -1.394   6.903  -0.545  0.00  0.00    -0.285 N 
ATOM     17  C   UNL     1      -0.866   5.979   0.281  0.00  0.00    +0.211 C 
ATOM     18  O   UNL     1       0.266   5.957   0.715  0.00  0.00    -0.277 OA
ATOM     19 CL   UNL     1      -3.144   8.777  -2.467  0.00  0.00    -0.082 Cl
ATOM     20  H   UNL     1      -0.903   7.667  -0.887  0.00  0.00    +0.155 HD
ATOM     21  N   UNL     1      -1.550   3.639   0.169  0.00  0.00    +0.396 N 
ATOM     22  H   UNL     1      -2.377   3.049   0.015  0.00  0.00    -0.083 HD
ATOM     23  H   UNL     1      -0.989   3.674  -0.690  0.00  0.00    -0.083 HD
ENDROOT
BRANCH   1  25
ATOM     24  C   UNL     1      -0.013   1.086   0.008  0.00  0.00    +0.036 C 
ATOM     25  C   UNL     1      -0.729   1.579   1.267  0.00  0.00    +0.098 C 
BRANCH  25  26
ATOM     26  O   UNL     1      -0.038   1.106   2.425  0.00  0.00    -0.394 OA
ATOM     27  H   UNL     1       0.880   1.403   2.483  0.00  0.00    +0.210 HD
ENDBRANCH  25  26
ENDBRANCH   1  25
BRANCH   6  28
ATOM     28  C   UNL     1       0.267   6.359   4.418  0.00  0.00    +0.151 C 
BRANCH  28  29
ATOM     29  C   UNL     1       1.476   6.802   3.636  0.00  0.00    -0.026 A 
ATOM     30  C   UNL     1       1.435   7.978   2.909  0.00  0.00    +0.009 A 
ATOM     31  C   UNL     1       2.542   8.389   2.190  0.00  0.00    +0.050 A 
ATOM     32  C   UNL     1       3.696   7.622   2.196  0.00  0.00    +0.166 A 
ATOM     33  C   UNL     1       3.738   6.438   2.927  0.00  0.00    +0.167 A 
ATOM     34  C   UNL     1       2.627   6.035   3.650  0.00  0.00    +0.054 A 
ATOM     35  O   UNL     1       4.970   5.872   2.773  0.00  0.00    -0.453 OA
ATOM     36  C   UNL     1       5.543   6.509   1.615  0.00  0.00    +0.466 C 
ATOM     37  O   UNL     1       4.903   7.799   1.583  0.00  0.00    -0.453 OA
ENDBRANCH  28  29
ENDBRANCH   6  28
TORSDOF 4
