REMARK  Name = ZINC63221864
REMARK  6 active torsions:
REMARK  status: ('A' for Active; 'I' for Inactive)
REMARK    1  A    between atoms: C_7  and  C_10
REMARK    2  A    between atoms: C_10  and  C_11
REMARK    3  A    between atoms: N_13  and  N_14
REMARK    4  A    between atoms: C_15  and  C_17
REMARK    5  A    between atoms: C_18  and  C_19
REMARK    6  A    between atoms: C_23  and  C_25
REMARK                            x       y       z     vdW  Elec       q    Type
REMARK                         _______ _______ _______ _____ _____    ______ ____
ROOT
ATOM      1  N   UNL     1      -0.567  -5.122  -3.001  0.00  0.00    -0.231 N 
ATOM      2  C   UNL     1      -1.380  -6.168  -3.245  0.00  0.00    +0.253 C 
ATOM      3  O   UNL     1      -1.928  -6.742  -2.322  0.00  0.00    -0.269 OA
ATOM      4  H   UNL     1      -0.131  -4.665  -3.737  0.00  0.00    +0.173 HD
ENDROOT
BRANCH   1   7
ATOM      5  C   UNL     1       0.460  -3.646  -1.440  0.00  0.00    +0.233 C 
ATOM      6  O   UNL     1       1.006  -3.075  -2.360  0.00  0.00    -0.274 OA
ATOM      7  N   UNL     1      -0.353  -4.693  -1.684  0.00  0.00    -0.234 N 
ATOM      8  H   UNL     1      -0.790  -5.150  -0.948  0.00  0.00    +0.173 HD
BRANCH   5   9
ATOM      9  C   UNL     1       0.691  -3.186  -0.024  0.00  0.00    +0.130 C 
BRANCH   9  16
ATOM     10  C   UNL     1      -0.016   1.348   0.009  0.00  0.00    +0.001 A 
ATOM     11  C   UNL     1       1.166   2.101   0.002  0.00  0.00    +0.002 A 
ATOM     12  C   UNL     1       2.391   1.535  -0.013  0.00  0.00    +0.026 A 
ATOM     13  C   UNL     1       2.529   0.120  -0.022  0.00  0.00    +0.043 A 
ATOM     14  N   UNL     1       3.587  -0.654  -0.037  0.00  0.00    -0.380 N 
ATOM     15  C   UNL     1       3.143  -2.053  -0.041  0.00  0.00    +0.145 C 
ATOM     16  C   UNL     1       1.631  -2.008  -0.025  0.00  0.00    -0.033 C 
ATOM     17  C   UNL     1       1.295  -0.698  -0.014  0.00  0.00    -0.001 A 
ATOM     18  C   UNL     1       0.002  -0.004   0.002  0.00  0.00    +0.010 A 
ATOM     19  H   UNL     1       4.509  -0.353  -0.045  0.00  0.00    +0.160 HD
ENDBRANCH   9  16
ENDBRANCH   5   9
ENDBRANCH   1   7
BRANCH   2  20
ATOM     20  C   UNL     1      -1.604  -6.616  -4.621  0.00  0.00    +0.069 C 
ATOM     21  C   UNL     1      -2.417  -7.663  -4.865  0.00  0.00    +0.013 C 
BRANCH  21  22
ATOM     22  C   UNL     1      -2.643  -8.113  -6.249  0.00  0.00    -0.024 A 
ATOM     23  C   UNL     1      -2.010  -7.461  -7.312  0.00  0.00    +0.008 A 
ATOM     24  C   UNL     1      -2.226  -7.888  -8.605  0.00  0.00    +0.001 A 
ATOM     25  C   UNL     1      -3.066  -8.960  -8.852  0.00  0.00    +0.012 A 
ATOM     26  C   UNL     1      -3.696  -9.611  -7.805  0.00  0.00    +0.055 A 
ATOM     27  C   UNL     1      -3.485  -9.199  -6.506  0.00  0.00    +0.020 A 
BRANCH  26  28
ATOM     28  C   UNL     1      -4.608 -10.777  -8.085  0.00  0.00    +0.417 C 
ATOM     29  F   UNL     1      -4.658 -11.009  -9.464  0.00  0.00    -0.166 F 
ATOM     30  F   UNL     1      -4.121 -11.917  -7.438  0.00  0.00    -0.166 F 
ATOM     31  F   UNL     1      -5.893 -10.487  -7.614  0.00  0.00    -0.166 F 
ENDBRANCH  26  28
ENDBRANCH  21  22
ENDBRANCH   2  20
TORSDOF 6
