REMARK  Name = ZINC09211414
REMARK  7 active torsions:
REMARK  status: ('A' for Active; 'I' for Inactive)
REMARK    1  A    between atoms: C_1  and  C_2
REMARK    2  A    between atoms: C_13  and  C_15
REMARK    3  A    between atoms: N_17  and  C_18
REMARK    4  A    between atoms: C_20  and  O_26
REMARK    5  A    between atoms: C_23  and  O_24
REMARK    6  A    between atoms: O_24  and  C_25
REMARK    7  A    between atoms: O_26  and  C_27
REMARK                            x       y       z     vdW  Elec       q    Type
REMARK                         _______ _______ _______ _____ _____    ______ ____
ROOT
ATOM      1  C   UNL     1      -5.809  -1.858  12.729  0.00  0.00    +0.008 C 
ATOM      2  C   UNL     1      -4.936  -1.208  11.654  0.00  0.00    -0.009 C 
ATOM      3  C   UNL     1      -4.836  -2.138  10.441  0.00  0.00    +0.008 C 
ATOM      4  C   UNL     1      -3.769  -1.624   9.474  0.00  0.00    +0.036 C 
ATOM      5  C   UNL     1      -4.065  -0.161   9.149  0.00  0.00    -0.033 A 
ATOM      6  C   UNL     1      -4.882   0.571   9.959  0.00  0.00    -0.006 A 
ATOM      7  S   UNL     1      -4.929   2.170   9.195  0.00  0.00    -0.093 S 
ATOM      8  C   UNL     1      -3.881   1.799   7.810  0.00  0.00    +0.018 A 
ATOM      9  C   UNL     1      -3.519   0.475   8.030  0.00  0.00    -0.020 A 
ATOM     10  C   UNL     1      -2.545  -0.232   7.090  0.00  0.00    +0.111 C 
ATOM     11  S   UNL     1      -2.823   0.397   5.406  0.00  0.00    -0.115 S 
ATOM     12  C   UNL     1      -2.953   2.142   5.622  0.00  0.00    +0.071 C 
ATOM     13  C   UNL     1      -3.487   2.646   6.767  0.00  0.00    +0.035 C 
ATOM     14  C   UNL     1      -5.571   0.118  11.207  0.00  0.00    +0.046 C 
ENDROOT
BRANCH  12  15
ATOM     15  C   UNL     1      -2.492   3.048   4.567  0.00  0.00    +0.255 C 
ATOM     16  O   UNL     1      -2.587   4.253   4.715  0.00  0.00    -0.269 OA
ATOM     17  N   UNL     1      -1.963   2.548   3.433  0.00  0.00    -0.278 N 
ATOM     18  H   UNL     1      -1.961   1.590   3.280  0.00  0.00    +0.155 HD
BRANCH  17  19
ATOM     19  C   UNL     1      -1.417   3.411   2.475  0.00  0.00    +0.079 A 
ATOM     20  C   UNL     1      -0.945   4.659   2.853  0.00  0.00    +0.072 A 
ATOM     21  C   UNL     1      -0.406   5.512   1.902  0.00  0.00    +0.122 A 
ATOM     22  C   UNL     1      -0.337   5.117   0.574  0.00  0.00    +0.049 A 
ATOM     23  C   UNL     1      -0.803   3.872   0.196  0.00  0.00    +0.051 A 
ATOM     24  C   UNL     1      -1.348   3.018   1.140  0.00  0.00    +0.141 A 
BRANCH  24  25
ATOM     25  O   UNL     1      -1.810   1.794   0.766  0.00  0.00    -0.493 OA
ATOM     26  C   UNL     1      -1.706   1.457  -0.619  0.00  0.00    +0.277 C 
ENDBRANCH  24  25
BRANCH  21  27
ATOM     27  O   UNL     1       0.057   6.736   2.272  0.00  0.00    -0.495 OA
ATOM     28  C   UNL     1       0.600   7.562   1.241  0.00  0.00    +0.277 C 
ENDBRANCH  21  27
ENDBRANCH  17  19
ENDBRANCH  12  15
TORSDOF 4
