REMARK  Name = ZINC09587059
REMARK  11 active torsions:
REMARK  status: ('A' for Active; 'I' for Inactive)
REMARK    1  A    between atoms: C_1  and  N_58
REMARK    2  A    between atoms: C_2  and  C_3
REMARK    3  A    between atoms: C_2  and  N_58
REMARK    4  A    between atoms: C_6  and  C_8
REMARK    5  A    between atoms: C_13  and  C_14
REMARK    6  A    between atoms: C_13  and  N_58
REMARK    7  A    between atoms: N_16  and  C_17
REMARK    8  A    between atoms: N_16  and  C_18
REMARK    9  A    between atoms: C_19  and  N_34
REMARK   10  A    between atoms: N_20  and  C_27
REMARK   11  A    between atoms: C_27  and  C_28
REMARK                            x       y       z     vdW  Elec       q    Type
REMARK                         _______ _______ _______ _____ _____    ______ ____
ROOT
ATOM      1  C   UNL     1       3.406   3.205   0.174  0.00  0.00    +0.203 C 
ATOM      2  O   UNL     1       3.439   1.995   0.250  0.00  0.00    -0.277 OA
ATOM      3  N   UNL     1       2.228   3.839  -0.001  0.00  0.00    -0.269 N 
ATOM      4  C   UNL     1       2.199   5.290  -0.201  0.00  0.00    +0.138 C 
ENDROOT
BRANCH   3   5
ATOM      5  C   UNL     1       1.024   3.104   0.008  0.00  0.00    +0.139 A 
ATOM      6  C   UNL     1       0.256   3.001  -1.134  0.00  0.00    +0.128 A 
ATOM      7  N   UNL     1      -0.913   2.277  -1.094  0.00  0.00    -0.276 N 
ATOM      8  C   UNL     1      -1.301   1.672   0.043  0.00  0.00    +0.331 A 
ATOM      9  O   UNL     1      -2.335   1.032   0.057  0.00  0.00    -0.246 OA
ATOM     10  N   UNL     1      -0.568   1.765   1.167  0.00  0.00    -0.273 N 
ATOM     11  H   UNL     1      -0.882   1.312   2.001  0.00  0.00    +0.173 HD
ATOM     12  C   UNL     1       0.585   2.462   1.181  0.00  0.00    +0.277 A 
ATOM     13  O   UNL     1       1.244   2.537   2.205  0.00  0.00    -0.266 OA
BRANCH   6  14
ATOM     14  N   UNL     1       0.654   3.615  -2.297  0.00  0.00    -0.343 N 
ATOM     15  H   UNL     1       1.460   4.155  -2.309  0.00  0.00    +0.144 HD
ATOM     16  H   UNL     1       0.129   3.508  -3.106  0.00  0.00    +0.144 HD
ENDBRANCH   6  14
BRANCH   7  17
ATOM     17  C   UNL     1      -1.738   2.159  -2.299  0.00  0.00    +0.163 C 
BRANCH  17  18
ATOM     18  C   UNL     1      -1.309   0.948  -3.086  0.00  0.00    -0.028 A 
ATOM     19  C   UNL     1      -0.329   1.065  -4.055  0.00  0.00    +0.005 A 
ATOM     20  C   UNL     1       0.068  -0.048  -4.773  0.00  0.00    +0.000 A 
ATOM     21  C   UNL     1      -0.521  -1.274  -4.530  0.00  0.00    +0.000 A 
ATOM     22  C   UNL     1      -1.504  -1.390  -3.565  0.00  0.00    +0.000 A 
ATOM     23  C   UNL     1      -1.898  -0.279  -2.843  0.00  0.00    +0.005 A 
ENDBRANCH  17  18
ENDBRANCH   7  17
ENDBRANCH   3   5
BRANCH   1  24
ATOM     24  C   UNL     1       4.682   4.001   0.275  0.00  0.00    +0.019 C 
BRANCH  24  26
ATOM     25  C   UNL     1       6.020   2.250  -0.728  0.00  0.00    -0.095 C 
ATOM     26  N   UNL     1       5.810   3.069   0.484  0.00  0.00    +0.387 N 
ATOM     27  H   UNL     1       5.589   2.449   1.272  0.00  0.00    -0.081 HD
BRANCH  26  28
ATOM     28  C   UNL     1       7.039   3.827   0.801  0.00  0.00    -0.022 C 
BRANCH  28  29
ATOM     29  C   UNL     1       8.113   2.857   1.223  0.00  0.00    +0.033 A 
ATOM     30  C   UNL     1       9.018   2.408   0.317  0.00  0.00    +0.068 A 
ATOM     31  S   UNL     1      10.008   1.330   1.344  0.00  0.00    -0.075 S 
ATOM     32  C   UNL     1       9.105   1.588   2.865  0.00  0.00    +0.109 A 
ATOM     33  N   UNL     1       8.170   2.441   2.469  0.00  0.00    -0.246 NA
BRANCH  32  34
ATOM     34  C   UNL     1       9.337   1.006   4.204  0.00  0.00    +0.014 A 
ATOM     35  C   UNL     1      10.386   0.116   4.423  0.00  0.00    +0.018 A 
ATOM     36  C   UNL     1      10.566  -0.394   5.661  0.00  0.00    +0.046 A 
ATOM     37  S   UNL     1       9.244   0.372   6.584  0.00  0.00    -0.104 S 
ATOM     38  C   UNL     1       8.530   1.334   5.261  0.00  0.00    +0.055 A 
ENDBRANCH  32  34
ENDBRANCH  28  29
ENDBRANCH  26  28
ENDBRANCH  24  26
ENDBRANCH   1  24
TORSDOF 9
