REMARK  Name = ZINC58819427
REMARK  8 active torsions:
REMARK  status: ('A' for Active; 'I' for Inactive)
REMARK    1  A    between atoms: C_1  and  C_2
REMARK    2  A    between atoms: C_2  and  C_3
REMARK    3  A    between atoms: C_2  and  N_4
REMARK    4  A    between atoms: C_5  and  C_7
REMARK    5  A    between atoms: C_7  and  C_8
REMARK    6  A    between atoms: C_11  and  N_14
REMARK    7  A    between atoms: C_15  and  C_17
REMARK    8  A    between atoms: C_19  and  N_24
REMARK                            x       y       z     vdW  Elec       q    Type
REMARK                         _______ _______ _______ _____ _____    ______ ____
ROOT
ATOM      1  C   UNL     1       4.226  -1.103  -2.225  0.00  0.00    -0.039 A 
ATOM      2  C   UNL     1       5.022  -0.058  -2.655  0.00  0.00    +0.006 A 
ATOM      3  C   UNL     1       6.383  -0.085  -2.424  0.00  0.00    +0.023 A 
ATOM      4  C   UNL     1       6.952  -1.163  -1.759  0.00  0.00    +0.034 A 
ATOM      5  C   UNL     1       6.150  -2.211  -1.329  0.00  0.00    +0.023 A 
ATOM      6  C   UNL     1       4.788  -2.176  -1.558  0.00  0.00    +0.006 A 
ENDROOT
BRANCH   4   7
ATOM      7  N   UNL     1       8.331  -1.194  -1.525  0.00  0.00    -0.281 N 
ATOM      8  C   UNL     1       9.001  -0.047  -1.296  0.00  0.00    +0.249 C 
ATOM      9  O   UNL     1       8.395   1.002  -1.198  0.00  0.00    -0.270 OA
ATOM     10  H   UNL     1       8.804  -2.040  -1.526  0.00  0.00    +0.155 HD
BRANCH   8  11
ATOM     11  C   UNL     1      10.473  -0.065  -1.164  0.00  0.00    +0.052 A 
ATOM     12  C   UNL     1      11.173  -1.267  -1.282  0.00  0.00    +0.046 A 
ATOM     13  C   UNL     1      12.546  -1.277  -1.158  0.00  0.00    +0.127 A 
ATOM     14  C   UNL     1      13.231  -0.099  -0.918  0.00  0.00    +0.034 A 
ATOM     15  C   UNL     1      12.545   1.096  -0.800  0.00  0.00    +0.017 A 
ATOM     16  C   UNL     1      11.170   1.121  -0.927  0.00  0.00    +0.026 A 
ATOM     17  I   UNL     1      10.133   2.934  -0.757  0.00  0.00    -0.043 I 
BRANCH  13  18
ATOM     18  N   UNL     1      13.290  -2.551  -1.282  0.00  0.00    +0.056 N 
ATOM     19  O   UNL     1      12.693  -3.581  -1.491  0.00  0.00    -0.126 OA
ATOM     20  O   UNL     1      14.494  -2.561  -1.174  0.00  0.00    -0.126 OA
ENDBRANCH  13  18
ENDBRANCH   8  11
ENDBRANCH   4   7
BRANCH   1  21
ATOM     21  C   UNL     1       2.740  -1.071  -2.479  0.00  0.00    +0.130 C 
BRANCH  21  23
ATOM     22  N   UNL     1       0.708  -0.249  -1.333  0.00  0.00    -0.313 N 
ATOM     23  C   UNL     1       2.048  -0.393  -1.325  0.00  0.00    +0.218 C 
ATOM     24  O   UNL     1       2.697   0.023  -0.388  0.00  0.00    -0.275 OA
ATOM     25  H   UNL     1       0.189  -0.581  -2.082  0.00  0.00    +0.149 HD
BRANCH  22  27
ATOM     26  C   UNL     1       0.053   1.925  -0.425  0.00  0.00    +0.027 C 
ATOM     27  C   UNL     1       0.035   0.410  -0.211  0.00  0.00    +0.067 C 
ATOM     28  C   UNL     1      -1.413  -0.076  -0.128  0.00  0.00    +0.027 C 
ENDBRANCH  22  27
ENDBRANCH  21  23
ENDBRANCH   1  21
TORSDOF 6
