REMARK  Name = ZINC06433505
REMARK  8 active torsions:
REMARK  status: ('A' for Active; 'I' for Inactive)
REMARK    1  A    between atoms: C_1  and  C_2
REMARK    2  A    between atoms: C_3  and  C_17
REMARK    3  A    between atoms: C_4  and  C_10
REMARK    4  A    between atoms: C_17  and  O_19
REMARK    5  A    between atoms: O_19  and  C_20
REMARK    6  A    between atoms: C_20  and  C_21
REMARK    7  A    between atoms: C_21  and  C_22
REMARK    8  A    between atoms: C_21  and  C_23
REMARK                            x       y       z     vdW  Elec       q    Type
REMARK                         _______ _______ _______ _____ _____    ______ ____
ROOT
ATOM      1  C   UNL     1       4.576   1.265  -3.251  0.00  0.00    +0.061 C 
ATOM      2  C   UNL     1       4.112   1.403  -1.823  0.00  0.00    +0.019 C 
ATOM      3  C   UNL     1       2.918   0.887  -1.460  0.00  0.00    +0.078 C 
ATOM      4  C   UNL     1       2.490   1.048  -0.016  0.00  0.00    +0.141 C 
ATOM      5  N   UNL     1       3.418   1.758   0.880  0.00  0.00    -0.315 N 
ATOM      6  C   UNL     1       4.578   2.217   0.368  0.00  0.00    +0.135 C 
ATOM      7  S   UNL     1       5.667   3.044   1.398  0.00  0.00    -0.019 S 
ATOM      8  N   UNL     1       4.906   2.046  -0.919  0.00  0.00    -0.300 N 
ATOM      9  H   UNL     1       3.201   1.892   1.816  0.00  0.00    +0.149 HD
ATOM     10  H   UNL     1       5.755   2.400  -1.225  0.00  0.00    +0.154 HD
ENDROOT
BRANCH   4  11
ATOM     11  C   UNL     1       1.175   1.783   0.000  0.00  0.00    -0.022 A 
ATOM     12  C   UNL     1       1.156   3.166   0.007  0.00  0.00    +0.006 A 
ATOM     13  C   UNL     1      -0.050   3.841   0.022  0.00  0.00    +0.001 A 
ATOM     14  C   UNL     1      -1.238   3.134   0.030  0.00  0.00    +0.015 A 
ATOM     15  C   UNL     1      -1.220   1.751   0.017  0.00  0.00    +0.018 A 
ATOM     16  C   UNL     1      -0.013   1.076   0.008  0.00  0.00    +0.021 A 
ATOM     17 BR   UNL     1      -2.845   0.784   0.021  0.00  0.00    -0.050 Br
ENDBRANCH   4  11
BRANCH   3  18
ATOM     18  C   UNL     1       2.095   0.219  -2.397  0.00  0.00    +0.339 C 
ATOM     19  O   UNL     1       2.459   0.102  -3.552  0.00  0.00    -0.245 OA
BRANCH  18  20
ATOM     20  O   UNL     1       0.906  -0.288  -2.009  0.00  0.00    -0.461 OA
BRANCH  20  21
ATOM     21  C   UNL     1       0.126  -0.950  -3.007  0.00  0.00    +0.235 C 
BRANCH  21  22
ATOM     22  C   UNL     1      -1.178  -1.454  -2.385  0.00  0.00    +0.020 C 
ATOM     23  C   UNL     1      -2.067  -2.051  -3.478  0.00  0.00    +0.010 C 
ATOM     24  C   UNL     1      -0.863  -2.526  -1.341  0.00  0.00    +0.010 C 
ENDBRANCH  21  22
ENDBRANCH  20  21
ENDBRANCH  18  20
ENDBRANCH   3  18
TORSDOF 5
