REMARK  Name = ZINC40682473
REMARK  7 active torsions:
REMARK  status: ('A' for Active; 'I' for Inactive)
REMARK    1  A    between atoms: C_1  and  C_2
REMARK    2  A    between atoms: C_7  and  C_9
REMARK    3  A    between atoms: C_7  and  C_10
REMARK    4  A    between atoms: C_14  and  N_31
REMARK    5  A    between atoms: C_15  and  N_19
REMARK    6  A    between atoms: N_19  and  C_20
REMARK    7  A    between atoms: C_22  and  C_27
REMARK                            x       y       z     vdW  Elec       q    Type
REMARK                         _______ _______ _______ _____ _____    ______ ____
ROOT
ATOM      1  C   UNL     1      -0.565   1.910  -0.120  0.00  0.00    +0.013 C 
ATOM      2  C   UNL     1      -0.649   0.386   0.056  0.00  0.00    -0.014 C 
ATOM      3  C   UNL     1      -2.053  -0.173  -0.302  0.00  0.00    +0.030 C 
ATOM      4  C   UNL     1      -1.691  -1.665  -0.510  0.00  0.00    +0.076 C 
ATOM      5  C   UNL     1      -1.488  -2.278   0.873  0.00  0.00    +0.029 C 
ATOM      6  C   UNL     1      -0.462  -1.552   1.725  0.00  0.00    -0.033 C 
ATOM      7  C   UNL     1      -0.333  -0.060   1.482  0.00  0.00    +0.014 C 
ATOM      8  C   UNL     1       0.908  -2.231   1.577  0.00  0.00    +0.011 C 
ATOM      9  C   UNL     1      -0.885  -1.739   3.204  0.00  0.00    +0.011 C 
ATOM     10  N   UNL     1      -0.400  -1.647  -1.226  0.00  0.00    -0.310 N 
ATOM     11  C   UNL     1       0.269  -0.370  -0.931  0.00  0.00    +0.113 C 
ATOM     12  C   UNL     1       0.096  -2.654  -2.045  0.00  0.00    +0.147 A 
ATOM     13  C   UNL     1       1.238  -2.441  -2.820  0.00  0.00    +0.106 A 
ATOM     14  C   UNL     1       1.693  -3.487  -3.624  0.00  0.00    +0.149 A 
ATOM     15  N   UNL     1       1.026  -4.639  -3.622  0.00  0.00    -0.219 NA
ATOM     16  C   UNL     1      -0.047  -4.799  -2.876  0.00  0.00    +0.225 A 
ATOM     17  N   UNL     1      -0.507  -3.839  -2.098  0.00  0.00    -0.219 NA
ENDROOT
BRANCH  13  18
ATOM     18  N   UNL     1       1.909  -1.208  -2.791  0.00  0.00    -0.353 N 
ATOM     19  H   UNL     1       1.925  -0.684  -1.975  0.00  0.00    +0.143 HD
ATOM     20  H   UNL     1       2.356  -0.881  -3.587  0.00  0.00    +0.143 HD
ENDBRANCH  13  18
BRANCH  14  21
ATOM     21  N   UNL     1       2.825  -3.327  -4.416  0.00  0.00    -0.297 N 
ATOM     22  H   UNL     1       3.251  -2.458  -4.484  0.00  0.00    +0.154 HD
BRANCH  21  23
ATOM     23  C   UNL     1       3.349  -4.419  -5.115  0.00  0.00    +0.052 A 
ATOM     24  C   UNL     1       3.064  -5.713  -4.699  0.00  0.00    +0.037 A 
ATOM     25  C   UNL     1       3.583  -6.789  -5.392  0.00  0.00    +0.057 A 
ATOM     26  C   UNL     1       4.385  -6.580  -6.498  0.00  0.00    +0.014 A 
ATOM     27  C   UNL     1       4.672  -5.293  -6.915  0.00  0.00    +0.022 A 
ATOM     28  C   UNL     1       4.151  -4.212  -6.231  0.00  0.00    +0.062 A 
ATOM     29 CL   UNL     1       4.505  -2.596  -6.759  0.00  0.00    -0.082 Cl
BRANCH  25  30
ATOM     30  C   UNL     1       3.274  -8.194  -4.941  0.00  0.00    +0.417 C 
ATOM     31  F   UNL     1       2.112  -8.643  -5.577  0.00  0.00    -0.166 F 
ATOM     32  F   UNL     1       4.341  -9.035  -5.271  0.00  0.00    -0.166 F 
ATOM     33  F   UNL     1       3.081  -8.207  -3.555  0.00  0.00    -0.166 F 
ENDBRANCH  25  30
ENDBRANCH  21  23
ENDBRANCH  14  21
TORSDOF 4
