REMARK  Name = ZINC42679761
REMARK  7 active torsions:
REMARK  status: ('A' for Active; 'I' for Inactive)
REMARK    1  A    between atoms: C_1  and  C_2
REMARK    2  A    between atoms: C_2  and  N_3
REMARK    3  A    between atoms: C_6  and  N_9
REMARK    4  A    between atoms: N_9  and  C_10
REMARK    5  A    between atoms: N_9  and  C_11
REMARK    6  A    between atoms: C_14  and  C_22
REMARK    7  A    between atoms: C_18  and  C_20
REMARK                            x       y       z     vdW  Elec       q    Type
REMARK                         _______ _______ _______ _____ _____    ______ ____
ROOT
ATOM      1  N   UNL     1       3.396  -2.450   3.792  0.00  0.00    -0.298 NA
ATOM      2  C   UNL     1       4.794  -2.042   3.980  0.00  0.00    +0.105 C 
ENDROOT
BRANCH   1   6
ATOM      3  N   UNL     1       1.092  -0.451   0.878  0.00  0.00    +0.380 N 
ATOM      4  C   UNL     1       2.526  -0.139   0.913  0.00  0.00    -0.077 C 
ATOM      5  C   UNL     1       3.108  -0.553   2.266  0.00  0.00    +0.000 C 
ATOM      6  C   UNL     1       2.907  -2.058   2.463  0.00  0.00    +0.053 C 
ATOM      7  C   UNL     1       1.415  -2.383   2.349  0.00  0.00    +0.000 C 
ATOM      8  C   UNL     1       0.895  -1.901   0.994  0.00  0.00    -0.077 C 
ATOM      9  H   UNL     1       0.629   0.013   1.645  0.00  0.00    -0.082 HD
BRANCH   3  11
ATOM     10  C   UNL     1       0.614   1.545  -0.459  0.00  0.00    -0.017 C 
ATOM     11  C   UNL     1       0.521   0.019  -0.392  0.00  0.00    -0.082 C 
ENDBRANCH   3  11
ENDBRANCH   1   6
BRANCH   1  12
ATOM     12  C   UNL     1       3.235  -3.894   4.007  0.00  0.00    +0.074 C 
ATOM     13  C   UNL     1       4.189  -4.656   3.086  0.00  0.00    +0.023 C 
ATOM     14  C   UNL     1       4.022  -6.160   3.311  0.00  0.00    -0.013 C 
ATOM     15  C   UNL     1       4.343  -6.497   4.768  0.00  0.00    +0.004 C 
ATOM     16  C   UNL     1       3.389  -5.735   5.689  0.00  0.00    +0.020 C 
ATOM     17  C   UNL     1       3.556  -4.231   5.465  0.00  0.00    +0.109 C 
ATOM     18  C   UNL     1       2.580  -6.566   2.999  0.00  0.00    +0.007 C 
BRANCH  17  19
ATOM     19  C   UNL     1       2.638  -3.497   6.351  0.00  0.00    +0.067 C 
ATOM     20  N   UNL     1       1.929  -2.931   7.035  0.00  0.00    -0.196 NA
ENDBRANCH  17  19
ENDBRANCH   1  12
TORSDOF 4
