REMARK  Name = ZINC01867918
REMARK  13 active torsions:
REMARK  status: ('A' for Active; 'I' for Inactive)
REMARK    1  A    between atoms: C_1  and  O_2
REMARK    2  A    between atoms: O_2  and  C_3
REMARK    3  A    between atoms: C_5  and  C_13
REMARK    4  A    between atoms: C_7  and  O_11
REMARK    5  A    between atoms: C_8  and  O_9
REMARK    6  A    between atoms: O_9  and  C_10
REMARK    7  A    between atoms: O_11  and  C_12
REMARK    8  A    between atoms: C_13  and  C_15
REMARK    9  A    between atoms: C_20  and  N_21
REMARK   10  A    between atoms: N_21  and  C_22
REMARK   11  A    between atoms: C_23  and  C_24
REMARK   12  A    between atoms: C_23  and  C_26
REMARK   13  A    between atoms: C_28  and  C_31
REMARK                            x       y       z     vdW  Elec       q    Type
REMARK                         _______ _______ _______ _____ _____    ______ ____
ROOT
ATOM      1  C   UNL     1       2.995  -0.266   5.458  0.00  0.00    +0.045 A 
ATOM      2  C   UNL     1       3.150  -1.651   5.573  0.00  0.00    +0.033 A 
ATOM      3  C   UNL     1       3.891  -2.176   6.610  0.00  0.00    +0.042 A 
ATOM      4  C   UNL     1       4.484  -1.337   7.542  0.00  0.00    +0.022 A 
ATOM      5  C   UNL     1       4.341   0.032   7.441  0.00  0.00    +0.025 A 
ATOM      6  C   UNL     1       3.603   0.580   6.400  0.00  0.00    +0.042 A 
ATOM      7 CL   UNL     1       4.081  -3.896   6.751  0.00  0.00    -0.084 Cl
ENDROOT
BRANCH   1   8
ATOM      8  C   UNL     1       2.205   0.303   4.352  0.00  0.00    +0.195 C 
ATOM      9  O   UNL     1       2.671   0.343   3.229  0.00  0.00    -0.287 OA
BRANCH   8  12
ATOM     10  C   UNL     1      -1.140   1.929   3.819  0.00  0.00    +0.166 A 
ATOM     11  C   UNL     1       0.131   1.442   3.578  0.00  0.00    +0.061 A 
ATOM     12  C   UNL     1       0.848   0.824   4.606  0.00  0.00    +0.029 A 
ATOM     13  C   UNL     1       0.277   0.699   5.876  0.00  0.00    +0.061 A 
ATOM     14  C   UNL     1      -0.994   1.187   6.112  0.00  0.00    +0.166 A 
ATOM     15  C   UNL     1      -1.704   1.808   5.087  0.00  0.00    +0.204 A 
BRANCH  10  17
ATOM     16  C   UNL     1      -1.198   2.621   1.544  0.00  0.00    +0.277 C 
ATOM     17  O   UNL     1      -1.838   2.531   2.819  0.00  0.00    -0.491 OA
ENDBRANCH  10  17
BRANCH  15  18
ATOM     18  O   UNL     1      -2.951   2.293   5.323  0.00  0.00    -0.488 OA
ATOM     19  C   UNL     1      -4.046   1.400   5.106  0.00  0.00    +0.277 C 
ENDBRANCH  15  18
BRANCH  14  20
ATOM     20  O   UNL     1      -1.551   1.065   7.347  0.00  0.00    -0.491 OA
ATOM     21  C   UNL     1      -0.765   0.422   8.352  0.00  0.00    +0.277 C 
ENDBRANCH  14  20
ENDBRANCH   8  12
ENDBRANCH   1   8
BRANCH   6  22
ATOM     22  N   UNL     1       3.462   1.959   6.294  0.00  0.00    -0.319 N 
ATOM     23  H   UNL     1       2.902   2.337   5.598  0.00  0.00    +0.152 HD
BRANCH  22  24
ATOM     24  C   UNL     1       4.114   2.782   7.170  0.00  0.00    +0.093 C 
ATOM     25  C   UNL     1       4.058   4.133   7.005  0.00  0.00    +0.098 C 
BRANCH  25  26
ATOM     26  C   UNL     1       3.243   4.711   5.919  0.00  0.00    +0.120 A 
ATOM     27  N   UNL     1       3.297   4.478   4.616  0.00  0.00    -0.238 NA
ATOM     28  C   UNL     1       2.481   5.092   3.776  0.00  0.00    +0.079 A 
ATOM     29  C   UNL     1       1.563   5.984   4.261  0.00  0.00    +0.075 A 
ATOM     30  S   UNL     1       1.916   5.905   6.013  0.00  0.00    -0.074 S 
BRANCH  28  31
ATOM     31  C   UNL     1       2.559   4.816   2.321  0.00  0.00    +0.001 A 
ATOM     32  C   UNL     1       1.701   5.469   1.438  0.00  0.00    +0.011 A 
ATOM     33  C   UNL     1       1.778   5.209   0.085  0.00  0.00    +0.020 A 
ATOM     34  C   UNL     1       2.705   4.300  -0.396  0.00  0.00    +0.041 A 
ATOM     35  C   UNL     1       3.559   3.648   0.477  0.00  0.00    +0.020 A 
ATOM     36  C   UNL     1       3.494   3.906   1.831  0.00  0.00    +0.011 A 
ATOM     37 CL   UNL     1       2.795   3.976  -2.099  0.00  0.00    -0.084 Cl
ENDBRANCH  28  31
ENDBRANCH  25  26
BRANCH  25  38
ATOM     38  C   UNL     1       4.789   4.993   7.887  0.00  0.00    +0.103 C 
ATOM     39  N   UNL     1       5.369   5.675   8.586  0.00  0.00    -0.191 NA
ENDBRANCH  25  38
ENDBRANCH  22  24
ENDBRANCH   6  22
TORSDOF 10
