REMARK  Name = ZINC54201830
REMARK  6 active torsions:
REMARK  status: ('A' for Active; 'I' for Inactive)
REMARK    1  A    between atoms: C_12  and  N_14
REMARK    2  A    between atoms: N_14  and  C_15
REMARK    3  A    between atoms: C_18  and  S_20
REMARK    4  A    between atoms: S_20  and  C_21
REMARK    5  A    between atoms: C_21  and  C_22
REMARK    6  A    between atoms: N_24  and  C_25
REMARK                            x       y       z     vdW  Elec       q    Type
REMARK                         _______ _______ _______ _____ _____    ______ ____
ROOT
ATOM      1  N   UNL     1      -1.018  -6.828  -0.028  0.00  0.00    -0.164 NA
ENDROOT
BRANCH   1  13
ATOM      2  C   UNL     1      -0.017   1.379  -0.131  0.00  0.00    +0.001 A 
ATOM      3  C   UNL     1       1.171   2.091  -0.108  0.00  0.00    +0.002 A 
ATOM      4  C   UNL     1       2.384   1.435  -0.041  0.00  0.00    +0.024 A 
ATOM      5  C   UNL     1       2.425   0.046   0.005  0.00  0.00    +0.042 A 
ATOM      6  C   UNL     1       1.220  -0.671  -0.019  0.00  0.00    +0.010 A 
ATOM      7  C   UNL     1       0.002   0.000  -0.087  0.00  0.00    +0.010 A 
ATOM      8  C   UNL     1       1.585  -2.102   0.041  0.00  0.00    +0.065 C 
ATOM      9  C   UNL     1       0.732  -3.186   0.042  0.00  0.00    +0.092 C 
ATOM     10  C   UNL     1      -0.756  -3.232   0.137  0.00  0.00    +0.277 C 
ATOM     11  O   UNL     1      -1.428  -2.220   0.233  0.00  0.00    -0.267 OA
ATOM     12  N   UNL     1      -1.299  -4.428   0.112  0.00  0.00    -0.152 NA
ATOM     13  C   UNL     1      -0.580  -5.535   0.009  0.00  0.00    +0.177 C 
ATOM     14  S   UNL     1       1.099  -4.932  -0.078  0.00  0.00    -0.049 S 
ATOM     15  C   UNL     1       3.063  -2.119   0.098  0.00  0.00    +0.250 C 
ATOM     16  O   UNL     1       3.767  -3.109   0.157  0.00  0.00    -0.270 OA
ATOM     17  N   UNL     1       3.490  -0.844   0.074  0.00  0.00    -0.281 N 
ATOM     18  H   UNL     1       4.423  -0.580   0.101  0.00  0.00    +0.155 HD
ENDBRANCH   1  13
BRANCH   1  19
ATOM     19  C   UNL     1      -2.377  -7.104   0.047  0.00  0.00    +0.208 A 
ATOM     20  N   UNL     1      -3.408  -6.279   0.150  0.00  0.00    -0.123 NA
ATOM     21  N   UNL     1      -4.596  -6.699   0.207  0.00  0.00    -0.133 NA
ATOM     22  C   UNL     1      -4.885  -7.992   0.168  0.00  0.00    +0.160 A 
ATOM     23  S   UNL     1      -3.236  -8.675   0.023  0.00  0.00    -0.023 S 
BRANCH  22  24
ATOM     24  S   UNL     1      -6.447  -8.806   0.232  0.00  0.00    -0.088 S 
BRANCH  24  25
ATOM     25  C   UNL     1      -7.643  -7.450   0.369  0.00  0.00    +0.172 C 
BRANCH  25  26
ATOM     26  C   UNL     1      -9.039  -8.016   0.433  0.00  0.00    +0.227 C 
ATOM     27  O   UNL     1      -9.209  -9.216   0.391  0.00  0.00    -0.275 OA
ATOM     28  N   UNL     1     -10.097  -7.188   0.538  0.00  0.00    -0.285 N 
ATOM     29  H   UNL     1      -9.968  -6.228   0.494  0.00  0.00    +0.155 HD
BRANCH  28  30
ATOM     30  C   UNL     1     -11.383  -7.715   0.711  0.00  0.00    +0.034 A 
ATOM     31  C   UNL     1     -12.477  -7.080   0.138  0.00  0.00    +0.026 A 
ATOM     32  C   UNL     1     -13.745  -7.601   0.309  0.00  0.00    +0.040 A 
ATOM     33  C   UNL     1     -13.925  -8.755   1.052  0.00  0.00    +0.124 A 
ATOM     34  C   UNL     1     -12.835  -9.390   1.625  0.00  0.00    +0.040 A 
ATOM     35  C   UNL     1     -11.566  -8.876   1.451  0.00  0.00    +0.026 A 
ATOM     36  F   UNL     1     -15.166  -9.263   1.220  0.00  0.00    -0.205 F 
ENDBRANCH  28  30
ENDBRANCH  25  26
ENDBRANCH  24  25
ENDBRANCH  22  24
ENDBRANCH   1  19
TORSDOF 6
