REMARK  Name = ZINC21317732
REMARK  8 active torsions:
REMARK  status: ('A' for Active; 'I' for Inactive)
REMARK    1  A    between atoms: C_1  and  C_2
REMARK    2  A    between atoms: C_7  and  N_8
REMARK    3  A    between atoms: C_9  and  C_11
REMARK    4  A    between atoms: C_11  and  S_12
REMARK    5  A    between atoms: S_12  and  C_13
REMARK    6  A    between atoms: N_17  and  N_18
REMARK    7  A    between atoms: N_19  and  N_20
REMARK    8  A    between atoms: C_21  and  C_22
REMARK                            x       y       z     vdW  Elec       q    Type
REMARK                         _______ _______ _______ _____ _____    ______ ____
ROOT
ATOM      1  C   UNL     1      -1.837  -4.220   0.028  0.00  0.00    +0.210 A 
ATOM      2  N   UNL     1      -0.525  -4.203   0.023  0.00  0.00    -0.119 NA
ATOM      3  N   UNL     1      -0.110  -2.865   0.030  0.00  0.00    -0.109 NA
ATOM      4  C   UNL     1      -1.181  -2.108   0.049  0.00  0.00    +0.254 A 
ATOM      5  N   UNL     1      -2.276  -2.927   0.044  0.00  0.00    -0.211 N 
ATOM      6  N   UNL     1      -1.199  -0.722   0.065  0.00  0.00    -0.204 N 
ATOM      7  H   UNL     1      -2.159  -0.184   0.075  0.00  0.00    +0.177 HD
ENDROOT
BRANCH   5   8
ATOM      8  N   UNL     1      -3.581  -2.522   0.054  0.00  0.00    -0.294 N 
ATOM      9  H   UNL     1      -3.824  -1.449   0.068  0.00  0.00    +0.163 HD
ATOM     10  H   UNL     1      -4.388  -3.269   0.049  0.00  0.00    +0.163 HD
ENDBRANCH   5   8
BRANCH   6  11
ATOM     11  N   UNL     1       0.005  -0.005   0.068  0.00  0.00    -0.187 NA
ATOM     12  C   UNL     1      -0.013   1.296   0.083  0.00  0.00    +0.145 C 
BRANCH  12  13
ATOM     13  C   UNL     1       1.248   2.046   0.086  0.00  0.00    +0.032 A 
ATOM     14  C   UNL     1       1.448   3.415   0.101  0.00  0.00    +0.017 A 
ATOM     15  C   UNL     1       2.741   3.887   0.102  0.00  0.00    +0.008 A 
ATOM     16  C   UNL     1       3.771   3.002   0.088  0.00  0.00    +0.046 A 
ATOM     17  S   UNL     1       2.924   1.431   0.080  0.00  0.00    -0.096 S 
ENDBRANCH  12  13
ENDBRANCH   6  11
BRANCH   1  18
ATOM     18  S   UNL     1      -2.853  -5.659   0.016  0.00  0.00    -0.075 S 
BRANCH  18  19
ATOM     19  C   UNL     1      -1.669  -7.033  -0.005  0.00  0.00    +0.173 C 
BRANCH  19  21
ATOM     20  N   UNL     1      -1.739  -9.505  -0.032  0.00  0.00    -0.285 N 
ATOM     21  C   UNL     1      -2.417  -8.341  -0.016  0.00  0.00    +0.227 C 
ATOM     22  O   UNL     1      -3.630  -8.346  -0.011  0.00  0.00    -0.275 OA
ATOM     23  H   UNL     1      -0.643  -9.502  -0.128  0.00  0.00    +0.155 HD
BRANCH  20  30
ATOM     24  C   UNL     1      -0.516 -11.843  -1.099  0.00  0.00    +0.045 C 
ATOM     25  C   UNL     1      -1.868 -11.883  -0.434  0.00  0.00    -0.029 A 
ATOM     26  C   UNL     1      -2.551 -13.079  -0.328  0.00  0.00    +0.005 A 
ATOM     27  C   UNL     1      -3.791 -13.117   0.283  0.00  0.00    +0.000 A 
ATOM     28  C   UNL     1      -4.351 -11.959   0.789  0.00  0.00    +0.002 A 
ATOM     29  C   UNL     1      -3.671 -10.761   0.691  0.00  0.00    +0.023 A 
ATOM     30  C   UNL     1      -2.428 -10.719   0.073  0.00  0.00    +0.036 A 
ENDBRANCH  20  30
ENDBRANCH  19  21
ENDBRANCH  18  19
ENDBRANCH   1  18
TORSDOF 7
