REMARK  Name = ZINC12149039
REMARK  12 active torsions:
REMARK  status: ('A' for Active; 'I' for Inactive)
REMARK    1  A    between atoms: C_1  and  C_2
REMARK    2  A    between atoms: C_2  and  C_3
REMARK    3  A    between atoms: C_2  and  C_4
REMARK    4  A    between atoms: C_7  and  C_10
REMARK    5  A    between atoms: C_10  and  N_61
REMARK    6  A    between atoms: C_17  and  C_21
REMARK    7  A    between atoms: C_21  and  C_22
REMARK    8  A    between atoms: C_21  and  C_23
REMARK    9  A    between atoms: C_21  and  O_26
REMARK   10  A    between atoms: C_23  and  N_63
REMARK   11  A    between atoms: C_24  and  N_63
REMARK   12  A    between atoms: C_25  and  N_63
REMARK                            x       y       z     vdW  Elec       q    Type
REMARK                         _______ _______ _______ _____ _____    ______ ____
ROOT
ATOM      1  C   UNL     1      -1.422   3.426   1.760  0.00  0.00    -0.036 C 
ATOM      2  C   UNL     1      -1.939   2.022   1.534  0.00  0.00    +0.210 C 
ATOM      3  O   UNL     1      -1.547   1.537   0.244  0.00  0.00    -0.494 OA
ATOM      4  C   UNL     1      -0.314   0.962   0.188  0.00  0.00    +0.122 A 
ATOM      5  C   UNL     1      -0.189  -0.405  -0.016  0.00  0.00    +0.046 A 
ATOM      6  C   UNL     1       1.066  -0.983  -0.028  0.00  0.00    +0.010 A 
ATOM      7  C   UNL     1       2.192  -0.203   0.162  0.00  0.00    -0.018 A 
ATOM      8  C   UNL     1       2.068   1.161   0.357  0.00  0.00    +0.011 A 
ATOM      9  C   UNL     1       0.815   1.739   0.360  0.00  0.00    -0.022 A 
ATOM     10  C   UNL     1       0.670   3.239   0.528  0.00  0.00    -0.039 C 
ATOM     11  N   UNL     1       0.052   3.490   1.852  0.00  0.00    +0.387 N 
ATOM     12  H   UNL     1       0.373   2.768   2.508  0.00  0.00    -0.081 HD
ENDROOT
BRANCH   7  13
ATOM     13  C   UNL     1       3.558  -0.841   0.158  0.00  0.00    +0.074 C 
ATOM     14  C   UNL     1       3.926  -1.268   1.580  0.00  0.00    +0.044 C 
BRANCH  13  15
ATOM     15  O   UNL     1       4.521   0.100  -0.322  0.00  0.00    -0.386 OA
ATOM     16  H   UNL     1       4.351   0.415  -1.220  0.00  0.00    +0.211 HD
ENDBRANCH  13  15
BRANCH  13  17
ATOM     17  C   UNL     1       3.545  -2.068  -0.756  0.00  0.00    -0.040 C 
BRANCH  17  20
ATOM     18  C   UNL     1       4.744  -4.127  -1.189  0.00  0.00    -0.096 C 
ATOM     19  C   UNL     1       5.884  -1.999  -1.377  0.00  0.00    -0.096 C 
ATOM     20  N   UNL     1       4.848  -2.757  -0.645  0.00  0.00    +0.378 N 
ATOM     21  H   UNL     1       5.112  -2.811   0.346  0.00  0.00    -0.083 HD
ENDBRANCH  17  20
ENDBRANCH  13  17
ENDBRANCH   7  13
BRANCH  11  22
ATOM     22  C   UNL     1       0.465   4.809   2.358  0.00  0.00    -0.042 C 
BRANCH  22  26
ATOM     23  C   UNL     1      -0.868   5.197   6.397  0.00  0.00    -0.045 A 
ATOM     24  C   UNL     1       0.367   4.639   6.128  0.00  0.00    +0.004 A 
ATOM     25  C   UNL     1       0.799   4.513   4.821  0.00  0.00    +0.002 A 
ATOM     26  C   UNL     1      -0.005   4.946   3.783  0.00  0.00    -0.064 A 
ATOM     27  C   UNL     1      -1.239   5.510   4.053  0.00  0.00    +0.002 A 
ATOM     28  C   UNL     1      -1.672   5.631   5.360  0.00  0.00    +0.004 A 
BRANCH  23  30
ATOM     29  C   UNL     1      -1.586   6.809   8.139  0.00  0.00    +0.012 C 
ATOM     30  C   UNL     1      -1.339   5.333   7.823  0.00  0.00    +0.013 C 
ATOM     31  C   UNL     1      -2.638   4.547   8.008  0.00  0.00    +0.012 C 
ENDBRANCH  23  30
ENDBRANCH  22  26
ENDBRANCH  11  22
TORSDOF 7
