REMARK  Name = ZINC20998525
REMARK  6 active torsions:
REMARK  status: ('A' for Active; 'I' for Inactive)
REMARK    1  A    between atoms: C_4  and  O_31
REMARK    2  A    between atoms: C_5  and  C_7
REMARK    3  A    between atoms: C_7  and  N_8
REMARK    4  A    between atoms: C_12  and  N_15
REMARK    5  A    between atoms: N_18  and  C_21
REMARK    6  A    between atoms: C_21  and  C_22
REMARK                            x       y       z     vdW  Elec       q    Type
REMARK                         _______ _______ _______ _____ _____    ______ ____
ROOT
ATOM      1  N   UNL     1      -0.783   3.048   1.252  0.00  0.00    -0.305 NA
ATOM      2  C   UNL     1      -0.730   1.580   1.267  0.00  0.00    +0.066 C 
ATOM      3  C   UNL     1      -0.013   1.086   0.008  0.00  0.00    -0.063 C 
ATOM      4  N   UNL     1      -0.724   1.573  -1.182  0.00  0.00    +0.384 N 
ATOM      5  C   UNL     1      -0.777   3.042  -1.196  0.00  0.00    -0.063 C 
ATOM      6  C   UNL     1      -1.495   3.536   0.062  0.00  0.00    +0.066 C 
ATOM      7  H   UNL     1      -1.757   1.196  -1.138  0.00  0.00    -0.081 HD
ENDROOT
BRANCH   1  12
ATOM      8  N   UNL     1      -1.235   3.570   4.926  0.00  0.00    +0.383 N 
ATOM      9  C   UNL     1      -1.153   5.036   4.965  0.00  0.00    -0.078 C 
ATOM     10  C   UNL     1      -1.935   5.623   3.788  0.00  0.00    -0.017 C 
ATOM     11  C   UNL     1      -1.346   5.095   2.476  0.00  0.00    +0.015 C 
ATOM     12  C   UNL     1      -1.399   3.565   2.482  0.00  0.00    +0.040 C 
ATOM     13  C   UNL     1      -0.633   3.037   3.697  0.00  0.00    -0.059 C 
ATOM     14  H   UNL     1      -2.299   3.293   4.925  0.00  0.00    -0.081 HD
BRANCH   8  15
ATOM     15  C   UNL     1      -0.613   2.977   6.117  0.00  0.00    -0.039 C 
BRANCH  15  20
ATOM     16  C   UNL     1      -1.711   4.729   9.276  0.00  0.00    +0.000 A 
ATOM     17  C   UNL     1      -2.872   4.046   9.586  0.00  0.00    +0.004 A 
ATOM     18  C   UNL     1      -3.306   3.016   8.774  0.00  0.00    +0.045 A 
ATOM     19  C   UNL     1      -2.577   2.670   7.645  0.00  0.00    +0.118 A 
ATOM     20  C   UNL     1      -1.409   3.353   7.340  0.00  0.00    -0.022 A 
ATOM     21  C   UNL     1      -0.980   4.383   8.155  0.00  0.00    +0.005 A 
BRANCH  19  22
ATOM     22  O   UNL     1      -3.005   1.660   6.843  0.00  0.00    -0.507 OA
ATOM     23  H   UNL     1      -2.426   1.386   5.948  0.00  0.00    +0.292 HD
ENDBRANCH  19  22
ENDBRANCH  15  20
ENDBRANCH   8  15
ENDBRANCH   1  12
BRANCH   4  24
ATOM     24  C   UNL     1      -0.109   1.057  -2.412  0.00  0.00    -0.043 C 
BRANCH  24  25
ATOM     25  C   UNL     1      -0.998   1.369  -3.588  0.00  0.00    -0.060 A 
ATOM     26  C   UNL     1      -1.970   0.466  -3.977  0.00  0.00    +0.005 A 
ATOM     27  C   UNL     1      -2.791   0.751  -5.051  0.00  0.00    +0.050 A 
ATOM     28  C   UNL     1      -2.634   1.937  -5.749  0.00  0.00    +0.166 A 
ATOM     29  C   UNL     1      -1.651   2.844  -5.361  0.00  0.00    +0.166 A 
ATOM     30  C   UNL     1      -0.835   2.555  -4.279  0.00  0.00    +0.051 A 
ATOM     31  O   UNL     1      -1.697   3.922  -6.197  0.00  0.00    -0.453 OA
ATOM     32  C   UNL     1      -2.443   3.484  -7.348  0.00  0.00    +0.466 C 
ATOM     33  O   UNL     1      -3.296   2.447  -6.829  0.00  0.00    -0.453 OA
ENDBRANCH  24  25
ENDBRANCH   4  24
TORSDOF 6
