REMARK  Name = ZINC21921398
REMARK  5 active torsions:
REMARK  status: ('A' for Active; 'I' for Inactive)
REMARK    1  A    between atoms: N_6  and  C_27
REMARK    2  A    between atoms: N_9  and  C_12
REMARK    3  A    between atoms: C_12  and  C_13
REMARK    4  A    between atoms: C_16  and  C_19
REMARK    5  A    between atoms: C_27  and  C_28
REMARK                            x       y       z     vdW  Elec       q    Type
REMARK                         _______ _______ _______ _____ _____    ______ ____
ROOT
ATOM      1  C   UNL     1       7.233   0.305  -1.440  0.00  0.00    +0.034 A 
ATOM      2  C   UNL     1       8.492  -0.121  -1.187  0.00  0.00    +0.048 A 
ATOM      3  S   UNL     1       9.366   0.335  -2.615  0.00  0.00    -0.090 S 
ATOM      4  C   UNL     1       8.030   1.081  -3.511  0.00  0.00    +0.100 A 
ATOM      5  C   UNL     1       6.944   0.946  -2.642  0.00  0.00    +0.066 A 
ATOM      6  N   UNL     1       5.720   1.455  -3.104  0.00  0.00    -0.284 N 
ATOM      7  C   UNL     1       5.630   2.040  -4.308  0.00  0.00    +0.333 A 
ATOM      8  O   UNL     1       4.552   2.472  -4.668  0.00  0.00    -0.246 OA
ATOM      9  N   UNL     1       6.684   2.167  -5.131  0.00  0.00    -0.260 N 
ATOM     10  C   UNL     1       7.896   1.697  -4.759  0.00  0.00    +0.271 A 
ATOM     11  O   UNL     1       8.856   1.809  -5.500  0.00  0.00    -0.266 OA
ENDROOT
BRANCH   9  12
ATOM     12  C   UNL     1       6.520   2.817  -6.434  0.00  0.00    +0.133 C 
BRANCH  12  13
ATOM     13  C   UNL     1       6.775   4.319  -6.291  0.00  0.00    +0.009 C 
ATOM     14  C   UNL     1       5.700   4.935  -5.393  0.00  0.00    +0.006 C 
ATOM     15  C   UNL     1       5.955   6.437  -5.250  0.00  0.00    +0.013 C 
ATOM     16  C   UNL     1       5.907   7.097  -6.630  0.00  0.00    +0.075 C 
ATOM     17  C   UNL     1       6.981   6.480  -7.527  0.00  0.00    +0.013 C 
ATOM     18  C   UNL     1       6.726   4.979  -7.671  0.00  0.00    +0.006 C 
BRANCH  16  19
ATOM     19  C   UNL     1       4.550   6.874  -7.245  0.00  0.00    +0.219 C 
ATOM     20  O   UNL     1       4.442   6.204  -8.251  0.00  0.00    -0.275 OA
ATOM     21  N   UNL     1       3.455   7.419  -6.679  0.00  0.00    -0.301 N 
ATOM     22  C   UNL     1       3.579   8.324  -5.528  0.00  0.00    +0.108 C 
ATOM     23  C   UNL     1       2.841   9.632  -5.853  0.00  0.00    +0.019 C 
ATOM     24  C   UNL     1       1.398   9.312  -6.247  0.00  0.00    +0.003 C 
ATOM     25  C   UNL     1       1.392   8.432  -7.499  0.00  0.00    +0.019 C 
ATOM     26  C   UNL     1       2.114   7.115  -7.197  0.00  0.00    +0.108 C 
ENDBRANCH  16  19
ENDBRANCH  12  13
ENDBRANCH   9  12
BRANCH   6  27
ATOM     27  C   UNL     1       4.527   1.353  -2.259  0.00  0.00    +0.222 C 
BRANCH  27  28
ATOM     28  C   UNL     1       3.811   0.061  -2.556  0.00  0.00    +0.236 C 
ATOM     29  O   UNL     1       4.252  -0.699  -3.392  0.00  0.00    -0.274 OA
ATOM     30  N   UNL     1       2.679  -0.250  -1.894  0.00  0.00    -0.300 N 
ATOM     31  C   UNL     1       2.034   0.579  -0.859  0.00  0.00    +0.108 C 
ATOM     32  C   UNL     1       0.547   0.145  -0.874  0.00  0.00    +0.020 C 
ATOM     33  C   UNL     1       0.669  -1.379  -1.135  0.00  0.00    +0.020 C 
ATOM     34  C   UNL     1       1.882  -1.471  -2.084  0.00  0.00    +0.108 C 
ENDBRANCH  27  28
ENDBRANCH   6  27
TORSDOF 5
