REMARK  Name = ZINC64520863
REMARK  9 active torsions:
REMARK  status: ('A' for Active; 'I' for Inactive)
REMARK    1  A    between atoms: C_1  and  C_2
REMARK    2  A    between atoms: C_2  and  C_3
REMARK    3  A    between atoms: C_2  and  C_4
REMARK    4  A    between atoms: C_4  and  C_5
REMARK    5  A    between atoms: N_16  and  C_17
REMARK    6  A    between atoms: C_17  and  C_18
REMARK    7  A    between atoms: N_20  and  C_21
REMARK    8  A    between atoms: C_21  and  C_22
REMARK    9  A    between atoms: C_22  and  C_23
REMARK                            x       y       z     vdW  Elec       q    Type
REMARK                         _______ _______ _______ _____ _____    ______ ____
ROOT
ATOM      1  C   UNL     1      -3.736  -2.627  -5.605  0.00  0.00    +0.230 C 
ATOM      2  O   UNL     1      -4.559  -1.789  -5.907  0.00  0.00    -0.274 OA
ATOM      3  N   UNL     1      -3.976  -3.929  -5.857  0.00  0.00    -0.314 N 
ATOM      4  H   UNL     1      -3.317  -4.599  -5.616  0.00  0.00    +0.149 HD
ENDROOT
BRANCH   1   5
ATOM      5  C   UNL     1      -2.444  -2.212  -4.949  0.00  0.00    +0.204 C 
BRANCH   5  15
ATOM      6  C   UNL     1      -2.125  -0.137  -1.266  0.00  0.00    -0.015 C 
ATOM      7  C   UNL     1      -2.246  -0.862  -2.362  0.00  0.00    +0.007 C 
ATOM      8  C   UNL     1      -2.976  -0.306  -3.542  0.00  0.00    +0.123 C 
ATOM      9  C   UNL     1      -3.129   1.223  -3.433  0.00  0.00    +0.133 C 
ATOM     10  S   UNL     1      -2.954   1.405  -1.607  0.00  0.00    -0.113 S 
ATOM     11  S   UNL     1      -1.722   2.029  -4.253  0.00  0.00    -0.135 S 
ATOM     12  C   UNL     1      -1.819   1.355  -5.941  0.00  0.00    +0.166 C 
ATOM     13  C   UNL     1      -1.944  -0.142  -5.833  0.00  0.00    +0.226 C 
ATOM     14  O   UNL     1      -1.551  -0.813  -6.764  0.00  0.00    -0.275 OA
ATOM     15  N   UNL     1      -2.425  -0.756  -4.786  0.00  0.00    -0.284 N 
BRANCH   6  16
ATOM     16  C   UNL     1      -1.433  -0.534   0.013  0.00  0.00    +0.045 C 
BRANCH  16  18
ATOM     17  C   UNL     1      -0.019   1.526   0.010  0.00  0.00    +0.007 C 
ATOM     18  C   UNL     1       0.002  -0.004   0.002  0.00  0.00    -0.012 C 
ATOM     19  C   UNL     1       0.742  -0.511   1.242  0.00  0.00    +0.007 C 
ENDBRANCH  16  18
ENDBRANCH   6  16
ENDBRANCH   5  15
ENDBRANCH   1   5
BRANCH   3  20
ATOM     20  C   UNL     1      -5.231  -4.332  -6.495  0.00  0.00    +0.108 C 
BRANCH  20  21
ATOM     21  C   UNL     1      -5.252  -5.852  -6.665  0.00  0.00    +0.052 C 
BRANCH  21  22
ATOM     22  C   UNL     1      -6.543  -6.267  -7.321  0.00  0.00    -0.040 C 
ATOM     23  C   UNL     1      -6.753  -6.484  -8.640  0.00  0.00    +0.000 A 
ATOM     24  C   UNL     1      -5.874  -6.401  -9.812  0.00  0.00    +0.030 A 
ATOM     25  C   UNL     1      -6.383  -6.682 -11.035  0.00  0.00    +0.042 A 
ATOM     26  C   UNL     1      -7.725  -7.050 -11.207  0.00  0.00    +0.022 A 
ATOM     27  C   UNL     1      -8.592  -7.148 -10.178  0.00  0.00    +0.027 A 
ATOM     28  C   UNL     1      -8.165  -6.875  -8.849  0.00  0.00    +0.043 A 
ATOM     29  N   UNL     1      -8.804  -6.899  -7.705  0.00  0.00    -0.380 N 
ATOM     30  C   UNL     1      -7.866  -6.532  -6.638  0.00  0.00    +0.144 C 
ATOM     31 CL   UNL     1      -5.347  -6.585 -12.424  0.00  0.00    -0.084 Cl
ATOM     32  H   UNL     1      -9.739  -7.126  -7.583  0.00  0.00    +0.160 HD
ENDBRANCH  21  22
ENDBRANCH  20  21
ENDBRANCH   3  20
TORSDOF 7
