REMARK  Name = ZINC10244362
REMARK  9 active torsions:
REMARK  status: ('A' for Active; 'I' for Inactive)
REMARK    1  A    between atoms: C_1  and  C_2
REMARK    2  A    between atoms: C_2  and  C_3
REMARK    3  A    between atoms: C_2  and  N_4
REMARK    4  A    between atoms: C_5  and  C_7
REMARK    5  A    between atoms: C_7  and  S_8
REMARK    6  A    between atoms: S_8  and  C_9
REMARK    7  A    between atoms: N_23  and  C_24
REMARK    8  A    between atoms: C_27  and  O_30
REMARK    9  A    between atoms: O_30  and  C_31
REMARK                            x       y       z     vdW  Elec       q    Type
REMARK                         _______ _______ _______ _____ _____    ______ ____
ROOT
ATOM      1  C   UNL     1       2.542  -0.489   6.089  0.00  0.00    +0.177 A 
ATOM      2  N   UNL     1       3.087  -0.860   7.226  0.00  0.00    -0.221 NA
ATOM      3  C   UNL     1       2.613  -0.415   8.400  0.00  0.00    +0.104 A 
ATOM      4  C   UNL     1       2.992  -0.646   9.801  0.00  0.00    +0.026 A 
ATOM      5  C   UNL     1       3.984  -1.413  10.414  0.00  0.00    +0.012 A 
ATOM      6  C   UNL     1       4.090  -1.426  11.777  0.00  0.00    +0.001 A 
ATOM      7  C   UNL     1       3.218  -0.681  12.557  0.00  0.00    +0.002 A 
ATOM      8  C   UNL     1       2.233   0.083  11.973  0.00  0.00    +0.026 A 
ATOM      9  C   UNL     1       2.106   0.111  10.586  0.00  0.00    +0.049 A 
ATOM     10  N   UNL     1       1.236   0.768   9.743  0.00  0.00    -0.349 N 
ATOM     11  H   UNL     1       0.522   1.359  10.031  0.00  0.00    +0.166 HD
ATOM     12  C   UNL     1       1.529   0.462   8.424  0.00  0.00    +0.132 A 
ATOM     13  C   UNL     1       0.957   0.857   7.197  0.00  0.00    +0.283 A 
ATOM     14  O   UNL     1       0.007   1.623   7.171  0.00  0.00    -0.265 OA
ATOM     15  N   UNL     1       1.482   0.372   6.052  0.00  0.00    -0.254 N 
ENDROOT
BRANCH  15  16
ATOM     16  C   UNL     1       0.933   0.748   4.818  0.00  0.00    +0.052 A 
ATOM     17  C   UNL     1      -0.096   0.002   4.259  0.00  0.00    +0.030 A 
ATOM     18  C   UNL     1      -0.636   0.373   3.044  0.00  0.00    +0.048 A 
ATOM     19  C   UNL     1      -0.152   1.491   2.381  0.00  0.00    +0.130 A 
ATOM     20  C   UNL     1       0.880   2.234   2.937  0.00  0.00    +0.048 A 
ATOM     21  C   UNL     1       1.417   1.867   4.154  0.00  0.00    +0.030 A 
BRANCH  19  22
ATOM     22  O   UNL     1      -0.684   1.856   1.185  0.00  0.00    -0.406 OA
BRANCH  22  23
ATOM     23  C   UNL     1      -0.137   3.018   0.558  0.00  0.00    +0.575 C 
ATOM     24  F   UNL     1       1.227   2.820   0.318  0.00  0.00    -0.133 F 
ATOM     25  F   UNL     1      -0.306   4.124   1.398  0.00  0.00    -0.133 F 
ATOM     26  F   UNL     1      -0.795   3.248  -0.654  0.00  0.00    -0.133 F 
ENDBRANCH  22  23
ENDBRANCH  19  22
ENDBRANCH  15  16
BRANCH   1  27
ATOM     27  S   UNL     1       3.199  -1.110   4.577  0.00  0.00    -0.078 S 
BRANCH  27  28
ATOM     28  C   UNL     1       4.530  -2.155   5.218  0.00  0.00    +0.173 C 
BRANCH  28  30
ATOM     29  N   UNL     1       6.289  -3.638   4.309  0.00  0.00    -0.312 N 
ATOM     30  C   UNL     1       5.253  -2.809   4.069  0.00  0.00    +0.224 C 
ATOM     31  O   UNL     1       4.903  -2.590   2.929  0.00  0.00    -0.275 OA
ATOM     32  H   UNL     1       6.568  -3.814   5.221  0.00  0.00    +0.149 HD
BRANCH  29  34
ATOM     33  C   UNL     1       8.418  -4.624   3.620  0.00  0.00    +0.027 C 
ATOM     34  C   UNL     1       6.992  -4.274   3.192  0.00  0.00    +0.067 C 
ATOM     35  C   UNL     1       6.254  -5.551   2.785  0.00  0.00    +0.027 C 
ENDBRANCH  29  34
ENDBRANCH  28  30
ENDBRANCH  27  28
ENDBRANCH   1  27
TORSDOF 7
