REMARK  Name = ZINC12703759
REMARK  9 active torsions:
REMARK  status: ('A' for Active; 'I' for Inactive)
REMARK    1  A    between atoms: C_1  and  N_2
REMARK    2  A    between atoms: C_6  and  S_7
REMARK    3  A    between atoms: S_7  and  C_8
REMARK    4  A    between atoms: C_11  and  C_13
REMARK    5  A    between atoms: C_13  and  N_54
REMARK    6  A    between atoms: C_17  and  C_19
REMARK    7  A    between atoms: C_17  and  C_27
REMARK    8  A    between atoms: C_19  and  C_20
REMARK    9  A    between atoms: C_27  and  O_28
REMARK                            x       y       z     vdW  Elec       q    Type
REMARK                         _______ _______ _______ _____ _____    ______ ____
ROOT
ATOM      1  C   UNL     1       3.468   3.576  -1.250  0.00  0.00    -0.078 C 
ATOM      2  C   UNL     1       3.549   2.048  -1.296  0.00  0.00    -0.018 C 
ATOM      3  C   UNL     1       2.134   1.465  -1.263  0.00  0.00    +0.006 C 
ATOM      4  C   UNL     1       1.418   1.954  -0.001  0.00  0.00    -0.017 C 
ATOM      5  C   UNL     1       1.398   3.485   0.007  0.00  0.00    -0.069 C 
ATOM      6  N   UNL     1       2.790   3.983  -0.001  0.00  0.00    +0.385 N 
ATOM      7  H   UNL     1       3.293   3.578   0.798  0.00  0.00    -0.081 HD
ENDROOT
BRANCH   6   8
ATOM      8  C   UNL     1       2.800   5.455   0.122  0.00  0.00    -0.003 C 
BRANCH   8  12
ATOM      9  C   UNL     1       6.272   6.594   0.147  0.00  0.00    +0.169 A 
ATOM     10  C   UNL     1       6.001   6.747  -1.170  0.00  0.00    +0.057 A 
ATOM     11  C   UNL     1       4.662   6.335  -1.362  0.00  0.00    +0.044 A 
ATOM     12  C   UNL     1       4.190   5.965  -0.159  0.00  0.00    +0.090 A 
ATOM     13  O   UNL     1       5.169   6.120   0.752  0.00  0.00    -0.455 OA
BRANCH   9  14
ATOM     14  S   UNL     1       7.806   6.955   0.934  0.00  0.00    -0.012 S 
BRANCH  14  20
ATOM     15  C   UNL     1       9.633   7.051   3.690  0.00  0.00    +0.152 C 
ATOM     16  N   UNL     1       8.241   6.594   3.675  0.00  0.00    -0.311 N 
ATOM     17  C   UNL     1       7.504   6.156   4.740  0.00  0.00    +0.225 A 
ATOM     18  N   UNL     1       6.320   5.848   4.293  0.00  0.00    -0.137 NA
ATOM     19  N   UNL     1       6.256   6.065   3.028  0.00  0.00    -0.122 NA
ATOM     20  C   UNL     1       7.409   6.519   2.595  0.00  0.00    +0.199 A 
ENDBRANCH  14  20
ENDBRANCH   9  14
ENDBRANCH   8  12
ENDBRANCH   6   8
BRANCH   4  21
ATOM     21  C   UNL     1       2.159   1.446   1.237  0.00  0.00    +0.042 C 
BRANCH  21  22
ATOM     22  C   UNL     1       2.180  -0.060   1.227  0.00  0.00    -0.045 A 
ATOM     23  C   UNL     1       3.220  -0.733   0.613  0.00  0.00    +0.004 A 
ATOM     24  C   UNL     1       3.241  -2.115   0.604  0.00  0.00    +0.002 A 
ATOM     25  C   UNL     1       2.221  -2.826   1.209  0.00  0.00    +0.020 A 
ATOM     26  C   UNL     1       1.179  -2.153   1.823  0.00  0.00    +0.041 A 
ATOM     27  C   UNL     1       1.163  -0.769   1.837  0.00  0.00    +0.023 A 
ATOM     28 CL   UNL     1      -0.102  -3.045   2.584  0.00  0.00    -0.084 Cl
ENDBRANCH  21  22
ENDBRANCH   4  21
BRANCH   4  29
ATOM     29  C   UNL     1      -0.017   1.425   0.010  0.00  0.00    +0.161 C 
BRANCH  29  30
ATOM     30  O   UNL     1       0.002  -0.004   0.002  0.00  0.00    -0.395 OA
ATOM     31  H   UNL     1      -0.876  -0.409   0.008  0.00  0.00    +0.209 HD
ENDBRANCH  29  30
ENDBRANCH   4  29
TORSDOF 8
