REMARK  Name = ZINC16184946
REMARK  9 active torsions:
REMARK  status: ('A' for Active; 'I' for Inactive)
REMARK    1  A    between atoms: C_1  and  C_2
REMARK    2  A    between atoms: C_5  and  C_8
REMARK    3  A    between atoms: C_11  and  O_15
REMARK    4  A    between atoms: C_12  and  C_14
REMARK    5  A    between atoms: O_15  and  C_16
REMARK    6  A    between atoms: C_16  and  C_18
REMARK    7  A    between atoms: C_18  and  C_20
REMARK    8  A    between atoms: C_18  and  N_27
REMARK    9  A    between atoms: C_20  and  C_21
REMARK                            x       y       z     vdW  Elec       q    Type
REMARK                         _______ _______ _______ _____ _____    ______ ____
ROOT
ATOM      1  C   UNL     1       6.008   2.110   0.181  0.00  0.00    +0.197 C 
ENDROOT
BRANCH   1   2
ATOM      2  N   UNL     1       7.085   1.119   0.264  0.00  0.00    -0.227 N 
ATOM      3  C   UNL     1       7.314   0.215  -0.697  0.00  0.00    +0.227 C 
ATOM      4  O   UNL     1       6.681   0.106  -1.724  0.00  0.00    -0.275 OA
ATOM      5  C   UNL     1       8.493  -0.645  -0.296  0.00  0.00    +0.095 C 
ATOM      6  C   UNL     1       8.022  -2.111  -0.155  0.00  0.00    +0.027 C 
ATOM      7  C   UNL     1       6.945  -2.137   0.923  0.00  0.00    -0.026 C 
ATOM      8  C   UNL     1       7.308  -1.645   2.102  0.00  0.00    -0.026 C 
ATOM      9  C   UNL     1       8.742  -1.135   2.181  0.00  0.00    +0.027 C 
ATOM     10  C   UNL     1       8.903  -0.083   1.075  0.00  0.00    +0.095 C 
ATOM     11  C   UNL     1       7.917   1.040   1.310  0.00  0.00    +0.227 C 
ATOM     12  O   UNL     1       7.886   1.755   2.289  0.00  0.00    -0.275 OA
ATOM     13  C   UNL     1       9.646  -2.337   1.797  0.00  0.00    +0.001 C 
ATOM     14  C   UNL     1       9.220  -2.914   0.419  0.00  0.00    +0.001 C 
ATOM     15  C   UNL     1      10.543  -2.155   0.542  0.00  0.00    +0.009 C 
ENDBRANCH   1   2
BRANCH   1  16
ATOM     16  C   UNL     1       4.682   1.402   0.069  0.00  0.00    +0.334 C 
ATOM     17  O   UNL     1       4.641   0.194   0.060  0.00  0.00    -0.248 OA
BRANCH  16  18
ATOM     18  O   UNL     1       3.547   2.113  -0.021  0.00  0.00    -0.424 OA
BRANCH  18  22
ATOM     19  C   UNL     1       0.001  -0.002   0.037  0.00  0.00    -0.017 A 
ATOM     20  C   UNL     1       0.549   0.410  -1.177  0.00  0.00    +0.012 A 
ATOM     21  C   UNL     1       1.734   1.116  -1.193  0.00  0.00    +0.047 A 
ATOM     22  C   UNL     1       2.380   1.417  -0.002  0.00  0.00    +0.135 A 
ATOM     23  C   UNL     1       1.836   1.009   1.209  0.00  0.00    -0.008 A 
ATOM     24  C   UNL     1       0.652   0.302   1.231  0.00  0.00    +0.015 A 
ATOM     25  C   UNL     1       2.541   1.339   2.500  0.00  0.00    +0.047 C 
BRANCH  19  30
ATOM     26  C   UNL     1      -4.946  -2.948   0.118  0.00  0.00    +0.044 C 
ATOM     27  C   UNL     1      -3.652  -2.177   0.097  0.00  0.00    -0.050 A 
ATOM     28  C   UNL     1      -3.111  -1.772  -1.110  0.00  0.00    +0.004 A 
ATOM     29  C   UNL     1      -1.925  -1.065  -1.135  0.00  0.00    +0.009 A 
ATOM     30  C   UNL     1      -1.274  -0.761   0.058  0.00  0.00    -0.018 A 
ATOM     31  C   UNL     1      -1.820  -1.177   1.270  0.00  0.00    +0.009 A 
ATOM     32  C   UNL     1      -3.009  -1.878   1.284  0.00  0.00    +0.004 A 
ENDBRANCH  19  30
ENDBRANCH  18  22
ENDBRANCH  16  18
ENDBRANCH   1  16
BRANCH   1  33
ATOM     33  C   UNL     1       6.221   2.991  -1.051  0.00  0.00    +0.069 C 
BRANCH  33  34
ATOM     34  C   UNL     1       7.486   3.792  -0.884  0.00  0.00    -0.045 A 
ATOM     35  C   UNL     1       7.441   5.040  -0.291  0.00  0.00    +0.004 A 
ATOM     36  C   UNL     1       8.603   5.772  -0.133  0.00  0.00    +0.000 A 
ATOM     37  C   UNL     1       9.808   5.261  -0.577  0.00  0.00    +0.000 A 
ATOM     38  C   UNL     1       9.852   4.015  -1.174  0.00  0.00    +0.000 A 
ATOM     39  C   UNL     1       8.691   3.281  -1.328  0.00  0.00    +0.004 A 
ENDBRANCH  33  34
ENDBRANCH   1  33
TORSDOF 7
