REMARK  Name = ZINC05354079
REMARK  4 active torsions:
REMARK  status: ('A' for Active; 'I' for Inactive)
REMARK    1  A    between atoms: C_5  and  C_7
REMARK    2  A    between atoms: N_8  and  N_9
REMARK    3  A    between atoms: C_10  and  C_12
REMARK    4  A    between atoms: C_14  and  C_18
REMARK                            x       y       z     vdW  Elec       q    Type
REMARK                         _______ _______ _______ _____ _____    ______ ____
ROOT
ATOM      1  C   UNL     1       3.621  -6.308  -0.069  0.00  0.00    +0.122 A 
ATOM      2  C   UNL     1       4.744  -7.114  -0.080  0.00  0.00    +0.062 A 
ATOM      3  C   UNL     1       4.254  -8.433  -0.085  0.00  0.00    +0.095 A 
ATOM      4  N   UNL     1       2.939  -8.368  -0.078  0.00  0.00    -0.173 NA
ATOM      5  N   UNL     1       2.542  -7.147  -0.063  0.00  0.00    -0.272 N 
ATOM      6  H   UNL     1       1.615  -6.862  -0.051  0.00  0.00    +0.189 HD
ENDROOT
BRANCH   3   7
ATOM      7  C   UNL     1       5.071  -9.672  -0.097  0.00  0.00    +0.020 A 
ATOM      8  C   UNL     1       6.462  -9.592  -0.098  0.00  0.00    +0.013 A 
ATOM      9  C   UNL     1       7.217 -10.747  -0.110  0.00  0.00    +0.021 A 
ATOM     10  C   UNL     1       6.596 -11.984  -0.119  0.00  0.00    +0.042 A 
ATOM     11  C   UNL     1       5.214 -12.070  -0.118  0.00  0.00    +0.040 A 
ATOM     12  C   UNL     1       4.449 -10.920  -0.101  0.00  0.00    +0.052 A 
ATOM     13 CL   UNL     1       2.716 -11.028  -0.091  0.00  0.00    -0.083 Cl
ATOM     14 CL   UNL     1       7.552 -13.433  -0.134  0.00  0.00    -0.083 Cl
ENDBRANCH   3   7
BRANCH   1  16
ATOM     15  N   UNL     1       2.414  -4.185  -0.045  0.00  0.00    -0.202 N 
ATOM     16  C   UNL     1       3.594  -4.837  -0.061  0.00  0.00    +0.281 C 
ATOM     17  O   UNL     1       4.635  -4.208  -0.068  0.00  0.00    -0.267 OA
ATOM     18  H   UNL     1       1.583  -4.686  -0.040  0.00  0.00    +0.178 HD
BRANCH  15  20
ATOM     19  C   UNL     1       1.251  -2.157  -0.022  0.00  0.00    +0.139 C 
ATOM     20  N   UNL     1       2.387  -2.784  -0.037  0.00  0.00    -0.187 NA
BRANCH  19  25
ATOM     21  C   UNL     1      -0.017   1.375   0.010  0.00  0.00    +0.001 A 
ATOM     22  C   UNL     1       1.170   2.087   0.002  0.00  0.00    +0.001 A 
ATOM     23  C   UNL     1       2.383   1.423  -0.013  0.00  0.00    +0.020 A 
ATOM     24  C   UNL     1       2.418   0.042  -0.021  0.00  0.00    +0.050 A 
ATOM     25  C   UNL     1       1.223  -0.683  -0.013  0.00  0.00    +0.013 A 
ATOM     26  C   UNL     1       0.002  -0.004   0.002  0.00  0.00    +0.011 A 
ATOM     27 CL   UNL     1       3.941  -0.790  -0.041  0.00  0.00    -0.083 Cl
ENDBRANCH  19  25
ENDBRANCH  15  20
ENDBRANCH   1  16
TORSDOF 4
