REMARK  Name = ZINC13031112
REMARK  10 active torsions:
REMARK  status: ('A' for Active; 'I' for Inactive)
REMARK    1  A    between atoms: C_1  and  C_2
REMARK    2  A    between atoms: C_2  and  C_4
REMARK    3  A    between atoms: C_2  and  S_17
REMARK    4  A    between atoms: N_6  and  C_7
REMARK    5  A    between atoms: C_10  and  S_13
REMARK    6  A    between atoms: S_13  and  N_16
REMARK    7  A    between atoms: S_17  and  C_18
REMARK    8  A    between atoms: C_21  and  C_29
REMARK    9  A    between atoms: N_22  and  C_23
REMARK   10  A    between atoms: C_23  and  C_24
REMARK                            x       y       z     vdW  Elec       q    Type
REMARK                         _______ _______ _______ _____ _____    ______ ____
ROOT
ATOM      1  C   UNL     1       2.859  -4.898   1.535  0.00  0.00    +0.029 C 
ATOM      2  C   UNL     1       3.095  -4.162   0.214  0.00  0.00    +0.137 C 
ENDROOT
BRANCH   2   3
ATOM      3  C   UNL     1       3.326  -2.699   0.489  0.00  0.00    +0.230 C 
ATOM      4  O   UNL     1       4.456  -2.256   0.504  0.00  0.00    -0.274 OA
ATOM      5  N   UNL     1       2.279  -1.882   0.718  0.00  0.00    -0.285 N 
ATOM      6  H   UNL     1       1.383  -2.248   0.781  0.00  0.00    +0.155 HD
BRANCH   5   7
ATOM      7  C   UNL     1       2.485  -0.506   0.866  0.00  0.00    +0.034 A 
ATOM      8  C   UNL     1       3.561   0.108   0.239  0.00  0.00    +0.025 A 
ATOM      9  C   UNL     1       3.760   1.467   0.386  0.00  0.00    +0.030 A 
ATOM     10  C   UNL     1       2.890   2.216   1.157  0.00  0.00    +0.105 A 
ATOM     11  C   UNL     1       1.817   1.607   1.782  0.00  0.00    +0.030 A 
ATOM     12  C   UNL     1       1.612   0.249   1.639  0.00  0.00    +0.025 A 
BRANCH  10  13
ATOM     13  S   UNL     1       3.148   3.949   1.342  0.00  0.00    +0.056 S 
ATOM     14  O   UNL     1       2.511   4.327   2.554  0.00  0.00    -0.153 OA
ATOM     15  O   UNL     1       4.530   4.181   1.103  0.00  0.00    -0.153 OA
BRANCH  13  16
ATOM     16  N   UNL     1       2.323   4.700   0.119  0.00  0.00    -0.204 NA
ATOM     17  H   UNL     1       1.965   5.592   0.251  0.00  0.00    +0.144 HD
ATOM     18  H   UNL     1       2.198   4.249  -0.731  0.00  0.00    +0.144 HD
ENDBRANCH  13  16
ENDBRANCH  10  13
ENDBRANCH   5   7
ENDBRANCH   2   3
BRANCH   2  19
ATOM     19  S   UNL     1       4.546  -4.858  -0.613  0.00  0.00    -0.073 S 
BRANCH  19  20
ATOM     20  C   UNL     1       3.959  -6.487  -0.943  0.00  0.00    +0.193 A 
ATOM     21  N   UNL     1       2.776  -6.966  -0.632  0.00  0.00    -0.122 NA
ATOM     22  N   UNL     1       2.680  -8.188  -1.018  0.00  0.00    -0.128 NA
ATOM     23  C   UNL     1       3.796  -8.564  -1.599  0.00  0.00    +0.165 A 
ATOM     24  N   UNL     1       4.647  -7.484  -1.573  0.00  0.00    -0.295 N 
BRANCH  23  25
ATOM     25  C   UNL     1       4.081  -9.895  -2.176  0.00  0.00    +0.019 A 
ATOM     26  C   UNL     1       5.395 -10.265  -2.466  0.00  0.00    +0.011 A 
ATOM     27  C   UNL     1       5.655 -11.511  -2.999  0.00  0.00    +0.001 A 
ATOM     28  C   UNL     1       4.616 -12.387  -3.257  0.00  0.00    +0.000 A 
ATOM     29  C   UNL     1       3.311 -12.024  -2.977  0.00  0.00    +0.001 A 
ATOM     30  C   UNL     1       3.038 -10.783  -2.438  0.00  0.00    +0.011 A 
ENDBRANCH  23  25
BRANCH  24  31
ATOM     31  C   UNL     1       6.010  -7.418  -2.108  0.00  0.00    +0.200 C 
BRANCH  31  32
ATOM     32  C   UNL     1       6.997  -7.681  -1.000  0.00  0.00    +0.125 A 
ATOM     33  C   UNL     1       7.571  -8.866  -0.723  0.00  0.00    +0.046 A 
ATOM     34  C   UNL     1       8.425  -8.658   0.385  0.00  0.00    +0.041 A 
ATOM     35  C   UNL     1       8.315  -7.361   0.723  0.00  0.00    +0.195 A 
ATOM     36  O   UNL     1       7.449  -6.774  -0.119  0.00  0.00    -0.466 OA
ENDBRANCH  31  32
ENDBRANCH  24  31
ENDBRANCH  19  20
ENDBRANCH   2  19
TORSDOF 9
