REMARK  Name = ZINC36502141
REMARK  16 active torsions:
REMARK  status: ('A' for Active; 'I' for Inactive)
REMARK    1  A    between atoms: C_1  and  C_2
REMARK    2  A    between atoms: C_3  and  C_4
REMARK    3  A    between atoms: C_4  and  C_6
REMARK    4  A    between atoms: C_4  and  N_17
REMARK    5  A    between atoms: N_8  and  C_9
REMARK    6  A    between atoms: C_9  and  C_10
REMARK    7  A    between atoms: C_9  and  C_11
REMARK    8  A    between atoms: C_9  and  C_12
REMARK    9  A    between atoms: C_12  and  C_13
REMARK   10  A    between atoms: C_13  and  C_14
REMARK   11  A    between atoms: C_13  and  C_15
REMARK   12  A    between atoms: C_13  and  C_16
REMARK   13  A    between atoms: N_17  and  C_18
REMARK   14  A    between atoms: C_18  and  C_19
REMARK   15  A    between atoms: C_24  and  C_26
REMARK   16  A    between atoms: C_26  and  C_27
REMARK                            x       y       z     vdW  Elec       q    Type
REMARK                         _______ _______ _______ _____ _____    ______ ____
ROOT
ATOM      1  N   UNL     1       1.921  -2.286  -0.688  0.00  0.00    -0.279 N 
ATOM      2  C   UNL     1       1.222  -3.404  -0.412  0.00  0.00    +0.221 C 
ATOM      3  O   UNL     1       0.395  -3.812  -1.200  0.00  0.00    -0.275 OA
ENDROOT
BRANCH   1   4
ATOM      4  C   UNL     1       1.683  -1.563  -1.940  0.00  0.00    +0.185 C 
BRANCH   4   5
ATOM      5  C   UNL     1       1.900  -2.493  -3.106  0.00  0.00    +0.238 C 
ATOM      6  O   UNL     1       2.195  -3.652  -2.910  0.00  0.00    -0.273 OA
ATOM      7  N   UNL     1       1.765  -2.035  -4.366  0.00  0.00    -0.308 N 
ATOM      8  H   UNL     1       1.529  -1.107  -4.523  0.00  0.00    +0.149 HD
BRANCH   7   9
ATOM      9  C   UNL     1       1.976  -2.939  -5.500  0.00  0.00    +0.030 C 
ATOM     10  C   UNL     1       3.354  -3.592  -5.382  0.00  0.00    +0.031 C 
ATOM     11  C   UNL     1       0.895  -4.022  -5.496  0.00  0.00    +0.031 C 
BRANCH   9  12
ATOM     12  C   UNL     1       1.897  -2.146  -6.806  0.00  0.00    +0.031 C 
BRANCH  12  13
ATOM     13  C   UNL     1       1.014  -0.913  -6.602  0.00  0.00    -0.036 C 
ATOM     14  C   UNL     1       1.801   0.160  -5.847  0.00  0.00    +0.010 C 
ATOM     15  C   UNL     1       0.581  -0.365  -7.963  0.00  0.00    +0.010 C 
ATOM     16  C   UNL     1      -0.224  -1.302  -5.791  0.00  0.00    +0.010 C 
ENDBRANCH  12  13
ENDBRANCH   9  12
ENDBRANCH   7   9
ENDBRANCH   4   5
BRANCH   4  19
ATOM     17  C   UNL     1      -1.918  -0.686  -0.933  0.00  0.00    +0.035 C 
ATOM     18  C   UNL     1      -0.501  -1.199  -0.911  0.00  0.00    -0.032 C 
ATOM     19  C   UNL     1       0.267  -1.050  -1.962  0.00  0.00    +0.000 C 
ENDBRANCH   4  19
ENDBRANCH   1   4
BRANCH   1  20
ATOM     20  C   UNL     1       2.920  -1.793   0.264  0.00  0.00    +0.183 C 
BRANCH  20  21
ATOM     21  C   UNL     1       2.271  -0.824   1.217  0.00  0.00    +0.122 A 
ATOM     22  C   UNL     1       1.825  -1.114   2.453  0.00  0.00    +0.046 A 
ATOM     23  C   UNL     1       1.293   0.082   2.988  0.00  0.00    +0.041 A 
ATOM     24  C   UNL     1       1.446   1.032   2.047  0.00  0.00    +0.195 A 
ATOM     25  O   UNL     1       2.044   0.479   0.979  0.00  0.00    -0.466 OA
ENDBRANCH  20  21
ENDBRANCH   1  20
BRANCH   2  26
ATOM     26  C   UNL     1       1.466  -4.148   0.875  0.00  0.00    +0.131 C 
BRANCH  26  27
ATOM     27  C   UNL     1       0.563  -5.352   0.940  0.00  0.00    -0.035 A 
ATOM     28  C   UNL     1      -0.694  -5.242   1.505  0.00  0.00    +0.008 A 
ATOM     29  C   UNL     1      -1.527  -6.344   1.565  0.00  0.00    +0.050 A 
ATOM     30  C   UNL     1      -1.103  -7.562   1.060  0.00  0.00    +0.166 A 
ATOM     31  C   UNL     1       0.163  -7.673   0.490  0.00  0.00    +0.166 A 
ATOM     32  C   UNL     1       0.990  -6.563   0.428  0.00  0.00    +0.053 A 
ATOM     33  O   UNL     1       0.342  -8.960   0.071  0.00  0.00    -0.453 OA
ATOM     34  C   UNL     1      -0.664  -9.730   0.756  0.00  0.00    +0.466 C 
ATOM     35  O   UNL     1      -1.718  -8.779   0.997  0.00  0.00    -0.453 OA
ENDBRANCH  26  27
ENDBRANCH   2  26
TORSDOF 10
