REMARK  Name = ZINC09065988
REMARK  10 active torsions:
REMARK  status: ('A' for Active; 'I' for Inactive)
REMARK    1  A    between atoms: C_1  and  C_2
REMARK    2  A    between atoms: C_2  and  O_3
REMARK    3  A    between atoms: O_3  and  C_4
REMARK    4  A    between atoms: C_4  and  C_6
REMARK    5  A    between atoms: C_7  and  C_33
REMARK    6  A    between atoms: C_14  and  C_15
REMARK    7  A    between atoms: C_18  and  O_22
REMARK    8  A    between atoms: C_19  and  O_21
REMARK    9  A    between atoms: O_22  and  C_23
REMARK   10  A    between atoms: C_25  and  C_27
REMARK                            x       y       z     vdW  Elec       q    Type
REMARK                         _______ _______ _______ _____ _____    ______ ____
ROOT
ATOM      1  C   UNL     1       1.242  11.925  -1.370  0.00  0.00    +0.085 C 
ATOM      2  C   UNL     1       1.694  10.977  -2.245  0.00  0.00    +0.053 C 
ATOM      3  N   UNL     1       1.456   9.690  -2.029  0.00  0.00    -0.228 NA
ATOM      4  C   UNL     1       0.793   9.215  -1.004  0.00  0.00    +0.178 A 
ATOM      5  N   UNL     1       0.253   9.995  -0.008  0.00  0.00    -0.275 N 
ATOM      6  C   UNL     1      -0.411   9.395   0.989  0.00  0.00    +0.268 A 
ATOM      7  O   UNL     1      -0.912  10.044   1.889  0.00  0.00    -0.266 OA
ATOM      8  C   UNL     1      -0.512   7.929   0.966  0.00  0.00    +0.081 A 
ATOM      9  C   UNL     1      -1.118   7.092   1.848  0.00  0.00    +0.028 C 
ATOM     10  S   UNL     1       0.371   7.547  -0.538  0.00  0.00    -0.046 S 
ATOM     11  C   UNL     1       0.466  11.461  -0.159  0.00  0.00    +0.162 C 
ATOM     12  C   UNL     1       2.471  11.398  -3.466  0.00  0.00    +0.066 C 
ENDROOT
BRANCH   9  13
ATOM     13  C   UNL     1      -0.957   5.639   1.709  0.00  0.00    -0.020 A 
ATOM     14  C   UNL     1       0.076   5.119   0.920  0.00  0.00    +0.012 A 
ATOM     15  C   UNL     1       0.224   3.755   0.792  0.00  0.00    +0.050 A 
ATOM     16  C   UNL     1      -0.650   2.894   1.443  0.00  0.00    +0.161 A 
ATOM     17  C   UNL     1      -1.684   3.404   2.226  0.00  0.00    +0.159 A 
ATOM     18  C   UNL     1      -1.837   4.769   2.366  0.00  0.00    +0.057 A 
BRANCH  17  19
ATOM     19  O   UNL     1      -2.540   2.556   2.858  0.00  0.00    -0.503 OA
ATOM     20  H   UNL     1      -2.257   2.302   3.747  0.00  0.00    +0.292 HD
ENDBRANCH  17  19
BRANCH  16  21
ATOM     21  O   UNL     1      -0.499   1.550   1.312  0.00  0.00    -0.491 OA
ATOM     22  C   UNL     1       0.578   1.095   0.489  0.00  0.00    +0.277 C 
ENDBRANCH  16  21
ENDBRANCH   9  13
BRANCH  11  23
ATOM     23  C   UNL     1      -0.886  12.125  -0.192  0.00  0.00    -0.020 A 
ATOM     24  C   UNL     1      -1.882  11.624  -1.009  0.00  0.00    +0.006 A 
ATOM     25  C   UNL     1      -3.124  12.230  -1.036  0.00  0.00    +0.000 A 
ATOM     26  C   UNL     1      -3.367  13.344  -0.254  0.00  0.00    +0.000 A 
ATOM     27  C   UNL     1      -2.369  13.848   0.559  0.00  0.00    +0.000 A 
ATOM     28  C   UNL     1      -1.129  13.239   0.590  0.00  0.00    +0.006 A 
ENDBRANCH  11  23
BRANCH   1  29
ATOM     29  C   UNL     1       1.489  13.289  -1.591  0.00  0.00    +0.339 C 
ATOM     30  O   UNL     1       2.116  13.643  -2.574  0.00  0.00    -0.245 OA
BRANCH  29  31
ATOM     31  O   UNL     1       1.033  14.209  -0.714  0.00  0.00    -0.462 OA
BRANCH  31  33
ATOM     32  C   UNL     1       0.729  16.466   0.096  0.00  0.00    +0.048 C 
ATOM     33  C   UNL     1       1.321  15.579  -1.001  0.00  0.00    +0.229 C 
ENDBRANCH  31  33
ENDBRANCH  29  31
ENDBRANCH   1  29
TORSDOF 7
