REMARK  Name = ZINC04898588
REMARK  6 active torsions:
REMARK  status: ('A' for Active; 'I' for Inactive)
REMARK    1  A    between atoms: C_3  and  O_30
REMARK    2  A    between atoms: C_6  and  C_7
REMARK    3  A    between atoms: C_9  and  C_21
REMARK    4  A    between atoms: C_11  and  C_16
REMARK    5  A    between atoms: C_11  and  O_20
REMARK    6  A    between atoms: C_21  and  C_23
REMARK                            x       y       z     vdW  Elec       q    Type
REMARK                         _______ _______ _______ _____ _____    ______ ____
ROOT
ATOM      1  C   UNL     1      -0.950  -0.849  -0.012  0.00  0.00    +0.120 C 
ATOM      2  C   UNL     1      -1.532  -0.888  -1.430  0.00  0.00    +0.144 C 
ATOM      3  C   UNL     1      -0.764  -1.936  -2.243  0.00  0.00    +0.243 C 
ATOM      4  N   UNL     1      -0.822  -3.222  -1.546  0.00  0.00    -0.264 N 
ATOM      5  C   UNL     1      -0.927  -3.287  -0.210  0.00  0.00    +0.302 C 
ATOM      6  O   UNL     1      -0.960  -4.381   0.320  0.00  0.00    -0.253 OA
ATOM      7  N   UNL     1      -0.998  -2.193   0.565  0.00  0.00    -0.292 N 
ATOM      8  H   UNL     1      -0.783  -4.043  -2.060  0.00  0.00    +0.153 HD
ATOM      9  H   UNL     1      -1.083  -2.295   1.526  0.00  0.00    +0.151 HD
ENDROOT
BRANCH   1  15
ATOM     10  C   UNL     1       0.755   0.978  -0.141  0.00  0.00    +0.009 A 
ATOM     11  C   UNL     1       2.064   1.415  -0.191  0.00  0.00    +0.046 A 
ATOM     12  C   UNL     1       3.103   0.496  -0.167  0.00  0.00    +0.117 A 
ATOM     13  C   UNL     1       2.823  -0.861  -0.093  0.00  0.00    +0.046 A 
ATOM     14  C   UNL     1       1.512  -1.293  -0.043  0.00  0.00    +0.009 A 
ATOM     15  C   UNL     1       0.479  -0.375  -0.067  0.00  0.00    -0.026 A 
BRANCH  12  16
ATOM     16  O   UNL     1       4.392   0.923  -0.217  0.00  0.00    -0.507 OA
ATOM     17  H   UNL     1       4.784   1.092   0.651  0.00  0.00    +0.292 HD
ENDBRANCH  12  16
ENDBRANCH   1  15
BRANCH   3  18
ATOM     18  C   UNL     1      -1.401  -2.076  -3.627  0.00  0.00    +0.436 C 
ATOM     19  F   UNL     1      -1.502  -0.814  -4.223  0.00  0.00    -0.166 F 
ATOM     20  F   UNL     1      -0.605  -2.905  -4.425  0.00  0.00    -0.166 F 
ATOM     21  F   UNL     1      -2.676  -2.635  -3.499  0.00  0.00    -0.166 F 
ENDBRANCH   3  18
BRANCH   3  22
ATOM     22  O   UNL     1       0.599  -1.528  -2.382  0.00  0.00    -0.364 OA
ATOM     23  H   UNL     1       1.144  -2.146  -2.887  0.00  0.00    +0.212 HD
ENDBRANCH   3  22
BRANCH   2  24
ATOM     24  C   UNL     1      -2.991  -1.259  -1.368  0.00  0.00    +0.173 C 
ATOM     25  O   UNL     1      -3.317  -2.397  -1.103  0.00  0.00    -0.292 OA
BRANCH  24  26
ATOM     26  C   UNL     1      -4.020  -0.242  -1.629  0.00  0.00    +0.018 A 
ATOM     27  C   UNL     1      -3.653   1.093  -1.834  0.00  0.00    +0.014 A 
ATOM     28  C   UNL     1      -4.622   2.041  -2.077  0.00  0.00    +0.039 A 
ATOM     29  C   UNL     1      -5.959   1.675  -2.120  0.00  0.00    +0.123 A 
ATOM     30  C   UNL     1      -6.330   0.354  -1.918  0.00  0.00    +0.039 A 
ATOM     31  C   UNL     1      -5.370  -0.605  -1.679  0.00  0.00    +0.014 A 
ATOM     32  F   UNL     1      -6.905   2.610  -2.358  0.00  0.00    -0.205 F 
ENDBRANCH  24  26
ENDBRANCH   2  24
TORSDOF 6
