REMARK  Name = ZINC63318859
REMARK  5 active torsions:
REMARK  status: ('A' for Active; 'I' for Inactive)
REMARK    1  A    between atoms: C_1  and  C_2
REMARK    2  A    between atoms: C_2  and  C_4
REMARK    3  A    between atoms: C_2  and  N_14
REMARK    4  A    between atoms: C_4  and  C_5
REMARK    5  A    between atoms: C_18  and  C_20
REMARK                            x       y       z     vdW  Elec       q    Type
REMARK                         _______ _______ _______ _____ _____    ______ ____
ROOT
ATOM      1  N   UNL     1      -1.372  -0.511   0.012  0.00  0.00    -0.296 N 
ATOM      2  C   UNL     1      -2.051  -0.643  -1.145  0.00  0.00    +0.306 C 
ATOM      3  O   UNL     1      -1.522  -0.341  -2.197  0.00  0.00    -0.252 OA
ATOM      4  N   UNL     1      -3.315  -1.109  -1.135  0.00  0.00    -0.236 N 
ATOM      5  C   UNL     1      -3.994  -1.241  -2.292  0.00  0.00    +0.251 C 
ATOM      6  O   UNL     1      -3.466  -0.939  -3.344  0.00  0.00    -0.270 OA
ATOM      7  H   UNL     1      -1.794  -0.752   0.852  0.00  0.00    +0.151 HD
ATOM      8  H   UNL     1      -3.737  -1.350  -0.295  0.00  0.00    +0.159 HD
ENDROOT
BRANCH   5   9
ATOM      9  C   UNL     1      -5.380  -1.752  -2.282  0.00  0.00    +0.037 A 
ATOM     10  C   UNL     1      -5.991  -2.095  -1.074  0.00  0.00    +0.014 A 
ATOM     11  C   UNL     1      -7.285  -2.571  -1.071  0.00  0.00    +0.021 A 
ATOM     12  C   UNL     1      -7.978  -2.711  -2.262  0.00  0.00    +0.041 A 
ATOM     13  C   UNL     1      -7.376  -2.373  -3.463  0.00  0.00    +0.021 A 
ATOM     14  C   UNL     1      -6.085  -1.889  -3.479  0.00  0.00    +0.014 A 
ATOM     15 CL   UNL     1      -9.606  -3.312  -2.250  0.00  0.00    -0.084 Cl
ENDBRANCH   5   9
BRANCH   1  17
ATOM     16  C   UNL     1      -0.019   1.526   0.010  0.00  0.00    +0.028 C 
ATOM     17  C   UNL     1       0.002  -0.004   0.002  0.00  0.00    +0.075 C 
BRANCH  17  18
ATOM     18  C   UNL     1       0.742  -0.511   1.242  0.00  0.00    +0.055 C 
BRANCH  18  19
ATOM     19  C   UNL     1       0.870  -2.011   1.172  0.00  0.00    -0.040 C 
ATOM     20  C   UNL     1       1.925  -2.716   0.704  0.00  0.00    -0.001 A 
ATOM     21  C   UNL     1       3.219  -2.313   0.141  0.00  0.00    +0.010 A 
ATOM     22  C   UNL     1       4.091  -3.271  -0.250  0.00  0.00    +0.001 A 
ATOM     23  C   UNL     1       3.790  -4.635  -0.131  0.00  0.00    +0.002 A 
ATOM     24  C   UNL     1       2.622  -5.082   0.377  0.00  0.00    +0.026 A 
ATOM     25  C   UNL     1       1.632  -4.163   0.820  0.00  0.00    +0.043 A 
ATOM     26  N   UNL     1       0.442  -4.344   1.339  0.00  0.00    -0.380 N 
ATOM     27  C   UNL     1      -0.153  -3.032   1.617  0.00  0.00    +0.144 C 
ATOM     28  H   UNL     1       0.025  -5.203   1.513  0.00  0.00    +0.160 HD
ENDBRANCH  18  19
ENDBRANCH  17  18
ENDBRANCH   1  17
TORSDOF 4
