REMARK  Name = ZINC08920794
REMARK  9 active torsions:
REMARK  status: ('A' for Active; 'I' for Inactive)
REMARK    1  A    between atoms: C_1  and  C_2
REMARK    2  A    between atoms: C_2  and  C_3
REMARK    3  A    between atoms: C_3  and  C_4
REMARK    4  A    between atoms: C_3  and  C_5
REMARK    5  A    between atoms: C_3  and  C_6
REMARK    6  A    between atoms: C_15  and  O_35
REMARK    7  A    between atoms: C_17  and  C_20
REMARK    8  A    between atoms: C_23  and  C_25
REMARK    9  A    between atoms: C_28  and  N_32
REMARK                            x       y       z     vdW  Elec       q    Type
REMARK                         _______ _______ _______ _____ _____    ______ ____
ROOT
ATOM      1  C   UNL     1      -1.466   3.603   2.534  0.00  0.00    -0.000 C 
ATOM      2  C   UNL     1      -1.488   5.134   2.545  0.00  0.00    +0.009 C 
ATOM      3  C   UNL     1      -1.975   5.637   3.905  0.00  0.00    +0.037 C 
ATOM      4  C   UNL     1      -3.298   4.955   4.237  0.00  0.00    -0.023 A 
ATOM      5  C   UNL     1      -3.671   3.821   3.600  0.00  0.00    -0.004 A 
ATOM      6  S   UNL     1      -5.246   3.402   4.301  0.00  0.00    -0.078 S 
ATOM      7  C   UNL     1      -5.397   4.697   5.409  0.00  0.00    +0.080 A 
ATOM      8  C   UNL     1      -4.232   5.454   5.230  0.00  0.00    +0.068 A 
ATOM      9  C   UNL     1      -4.082   6.676   6.062  0.00  0.00    +0.220 C 
ATOM     10  N   UNL     1      -4.907   6.834   7.061  0.00  0.00    -0.220 NA
ATOM     11  C   UNL     1      -5.922   5.867   7.460  0.00  0.00    +0.260 C 
ATOM     12  N   UNL     1      -6.365   5.043   6.321  0.00  0.00    -0.311 N 
ATOM     13  C   UNL     1      -2.913   3.088   2.538  0.00  0.00    +0.046 C 
ATOM     14  H   UNL     1      -7.288   4.760   6.220  0.00  0.00    +0.149 HD
ENDROOT
BRANCH  11  15
ATOM     15  C   UNL     1      -5.351   4.966   8.526  0.00  0.00    +0.148 A 
ATOM     16  C   UNL     1      -4.376   5.298   9.395  0.00  0.00    +0.049 A 
ATOM     17  C   UNL     1      -4.152   4.172  10.212  0.00  0.00    +0.050 A 
ATOM     18  C   UNL     1      -5.004   3.203   9.786  0.00  0.00    +0.137 A 
ATOM     19  O   UNL     1      -5.726   3.699   8.763  0.00  0.00    -0.456 OA
BRANCH  18  20
ATOM     20  C   UNL     1      -5.120   1.841  10.348  0.00  0.00    +0.036 A 
ATOM     21  C   UNL     1      -6.371   1.330  10.698  0.00  0.00    +0.015 A 
ATOM     22  C   UNL     1      -6.471   0.058  11.222  0.00  0.00    +0.033 A 
ATOM     23  C   UNL     1      -5.336  -0.712  11.402  0.00  0.00    +0.128 A 
ATOM     24  C   UNL     1      -4.092  -0.213  11.058  0.00  0.00    +0.053 A 
ATOM     25  C   UNL     1      -3.977   1.056  10.527  0.00  0.00    +0.054 A 
ATOM     26 CL   UNL     1      -2.417   1.679  10.089  0.00  0.00    -0.083 Cl
BRANCH  23  27
ATOM     27  N   UNL     1      -5.452  -2.076  11.965  0.00  0.00    +0.056 N 
ATOM     28  O   UNL     1      -6.545  -2.518  12.269  0.00  0.00    -0.126 OA
ATOM     29  O   UNL     1      -4.454  -2.756  12.125  0.00  0.00    -0.126 OA
ENDBRANCH  23  27
ENDBRANCH  18  20
ENDBRANCH  11  15
BRANCH   1  30
ATOM     30  C   UNL     1      -0.750   3.109   1.275  0.00  0.00    -0.032 C 
ATOM     31  C   UNL     1       0.686   3.639   1.264  0.00  0.00    +0.011 C 
ATOM     32  C   UNL     1      -1.490   3.616   0.036  0.00  0.00    +0.011 C 
BRANCH  30  34
ATOM     33  C   UNL     1      -0.013   1.086   0.008  0.00  0.00    +0.004 C 
ATOM     34  C   UNL     1      -0.729   1.579   1.267  0.00  0.00    +0.003 C 
ENDBRANCH  30  34
ENDBRANCH   1  30
BRANCH   9  35
ATOM     35  O   UNL     1      -3.125   7.594   5.792  0.00  0.00    -0.492 OA
ATOM     36  H   UNL     1      -3.121   8.348   6.398  0.00  0.00    +0.294 HD
ENDBRANCH   9  35
TORSDOF 6
