REMARK  Name = ZINC03170766
REMARK  7 active torsions:
REMARK  status: ('A' for Active; 'I' for Inactive)
REMARK    1  A    between atoms: C_3  and  C_6
REMARK    2  A    between atoms: C_6  and  C_8
REMARK    3  A    between atoms: C_6  and  N_46
REMARK    4  A    between atoms: C_8  and  N_9
REMARK    5  A    between atoms: N_9  and  C_10
REMARK    6  A    between atoms: C_10  and  N_12
REMARK    7  A    between atoms: C_13  and  C_15
REMARK                            x       y       z     vdW  Elec       q    Type
REMARK                         _______ _______ _______ _____ _____    ______ ____
ROOT
ATOM      1  N   UNL     1       1.437   2.129   0.100  0.00  0.00    -0.327 N 
ATOM      2  H   UNL     1       1.687   2.680   0.858  0.00  0.00    +0.148 HD
ENDROOT
BRANCH   1   3
ATOM      3  C   UNL     1       2.344   1.848  -0.857  0.00  0.00    +0.137 C 
ATOM      4  S   UNL     1       1.904   0.875  -2.195  0.00  0.00    -0.018 S 
BRANCH   3   5
ATOM      5  N   UNL     1       3.598   2.334  -0.761  0.00  0.00    -0.264 N 
ATOM      6  C   UNL     1       4.505   2.053  -1.718  0.00  0.00    +0.251 C 
ATOM      7  O   UNL     1       4.192   1.362  -2.667  0.00  0.00    -0.270 OA
ATOM      8  H   UNL     1       3.847   2.885  -0.003  0.00  0.00    +0.157 HD
BRANCH   6   9
ATOM      9  C   UNL     1       5.878   2.585  -1.612  0.00  0.00    +0.055 A 
ATOM     10  C   UNL     1       6.240   3.380  -0.522  0.00  0.00    +0.016 A 
ATOM     11  C   UNL     1       7.524   3.873  -0.429  0.00  0.00    +0.021 A 
ATOM     12  C   UNL     1       8.455   3.583  -1.414  0.00  0.00    +0.042 A 
ATOM     13  C   UNL     1       8.103   2.796  -2.497  0.00  0.00    +0.040 A 
ATOM     14  C   UNL     1       6.822   2.291  -2.600  0.00  0.00    +0.054 A 
ATOM     15 CL   UNL     1       6.384   1.299  -3.955  0.00  0.00    -0.083 Cl
ATOM     16 CL   UNL     1      10.069   4.209  -1.288  0.00  0.00    -0.083 Cl
ENDBRANCH   6   9
ENDBRANCH   3   5
ENDBRANCH   1   3
BRANCH   1  17
ATOM     17  C   UNL     1       0.075   1.601  -0.005  0.00  0.00    +0.093 C 
BRANCH  17  18
ATOM     18  C   UNL     1      -0.719   1.988   1.244  0.00  0.00    -0.013 C 
BRANCH  18  24
ATOM     19  C   UNL     1       0.241   0.097   2.414  0.00  0.00    -0.049 C 
ATOM     20  C   UNL     1       1.051  -0.309   3.648  0.00  0.00    +0.141 C 
ATOM     21  O   UNL     1       0.354   0.104   4.826  0.00  0.00    -0.383 OA
ATOM     22  C   UNL     1       0.110   1.512   4.887  0.00  0.00    +0.141 C 
ATOM     23  C   UNL     1      -0.709   1.936   3.666  0.00  0.00    -0.049 C 
ATOM     24  N   UNL     1       0.032   1.559   2.444  0.00  0.00    +0.389 N 
ATOM     25  H   UNL     1       0.946   2.027   2.450  0.00  0.00    -0.081 HD
ENDBRANCH  18  24
BRANCH  18  28
ATOM     26  C   UNL     1      -1.907   5.603   1.052  0.00  0.00    +0.008 A 
ATOM     27  C   UNL     1      -1.972   4.227   0.929  0.00  0.00    +0.009 A 
ATOM     28  C   UNL     1      -0.895   3.484   1.284  0.00  0.00    -0.022 A 
ATOM     29  S   UNL     1       0.259   4.737   1.819  0.00  0.00    -0.103 S 
ATOM     30  C   UNL     1      -0.769   6.168   1.525  0.00  0.00    +0.045 A 
ENDBRANCH  18  28
ENDBRANCH  17  18
ENDBRANCH   1  17
TORSDOF 7
