REMARK  Name = ZINC08854320
REMARK  6 active torsions:
REMARK  status: ('A' for Active; 'I' for Inactive)
REMARK    1  A    between atoms: C_6  and  C_7
REMARK    2  A    between atoms: C_7  and  S_8
REMARK    3  A    between atoms: S_8  and  C_9
REMARK    4  A    between atoms: C_11  and  C_14
REMARK    5  A    between atoms: C_14  and  C_15
REMARK    6  A    between atoms: N_17  and  C_18
REMARK                            x       y       z     vdW  Elec       q    Type
REMARK                         _______ _______ _______ _____ _____    ______ ____
ROOT
ATOM      1  C   UNL     1       1.246  -4.519  -1.452  0.00  0.00    +0.135 A 
ATOM      2  N   UNL     1       1.245  -5.501  -2.334  0.00  0.00    -0.237 NA
ATOM      3  C   UNL     1       1.270  -6.763  -1.950  0.00  0.00    +0.058 A 
ATOM      4  C   UNL     1       1.285  -7.035  -0.623  0.00  0.00    +0.071 A 
ATOM      5  S   UNL     1       1.270  -5.381   0.055  0.00  0.00    -0.069 S 
ENDROOT
BRANCH   1   6
ATOM      6  S   UNL     1       1.220  -2.780  -1.732  0.00  0.00    -0.094 S 
BRANCH   6   7
ATOM      7  C   UNL     1       1.228  -2.186  -0.022  0.00  0.00    +0.111 C 
BRANCH   7  13
ATOM      8  C   UNL     1       0.002  -0.004   0.002  0.00  0.00    +0.006 A 
ATOM      9  C   UNL     1      -0.017   1.378   0.010  0.00  0.00    +0.020 A 
ATOM     10  C   UNL     1       1.172   2.086   0.002  0.00  0.00    +0.041 A 
ATOM     11  C   UNL     1       2.379   1.409  -0.013  0.00  0.00    +0.020 A 
ATOM     12  C   UNL     1       2.397   0.027  -0.021  0.00  0.00    +0.006 A 
ATOM     13  C   UNL     1       1.208  -0.679  -0.013  0.00  0.00    -0.037 A 
ATOM     14 CL   UNL     1       1.149   3.821   0.011  0.00  0.00    -0.084 Cl
ENDBRANCH   7  13
ENDBRANCH   6   7
ENDBRANCH   1   6
BRANCH   3  15
ATOM     15  C   UNL     1       1.275  -7.878  -2.964  0.00  0.00    +0.151 C 
BRANCH  15  16
ATOM     16  C   UNL     1       0.100  -7.715  -3.894  0.00  0.00    +0.219 C 
ATOM     17  O   UNL     1      -0.665  -6.786  -3.748  0.00  0.00    -0.275 OA
ATOM     18  N   UNL     1      -0.100  -8.602  -4.889  0.00  0.00    -0.312 N 
ATOM     19  H   UNL     1       0.513  -9.346  -5.006  0.00  0.00    +0.149 HD
BRANCH  18  20
ATOM     20  C   UNL     1      -1.242  -8.445  -5.793  0.00  0.00    +0.073 C 
ATOM     21  C   UNL     1      -2.498  -9.034  -5.119  0.00  0.00    +0.022 C 
ATOM     22  C   UNL     1      -3.715  -8.439  -5.775  0.00  0.00    +0.002 C 
ATOM     23  C   UNL     1      -4.262  -9.322  -6.913  0.00  0.00    +0.000 C 
ATOM     24  C   UNL     1      -3.148  -9.916  -7.796  0.00  0.00    +0.000 C 
ATOM     25  C   UNL     1      -2.060  -8.921  -8.098  0.00  0.00    +0.002 C 
ATOM     26  C   UNL     1      -0.934  -9.095  -7.059  0.00  0.00    +0.022 C 
ENDBRANCH  18  20
ENDBRANCH  15  16
ENDBRANCH   3  15
TORSDOF 6
