REMARK  Name = ZINC04884951
REMARK  8 active torsions:
REMARK  status: ('A' for Active; 'I' for Inactive)
REMARK    1  A    between atoms: C_1  and  C_2
REMARK    2  A    between atoms: C_5  and  S_8
REMARK    3  A    between atoms: S_8  and  N_11
REMARK    4  A    between atoms: N_11  and  C_12
REMARK    5  A    between atoms: C_17  and  C_18
REMARK    6  A    between atoms: C_18  and  N_19
REMARK    7  A    between atoms: N_19  and  C_20
REMARK    8  A    between atoms: C_25  and  C_26
REMARK                            x       y       z     vdW  Elec       q    Type
REMARK                         _______ _______ _______ _____ _____    ______ ____
ROOT
ATOM      1  C   UNL     1      -1.072   0.869   5.054  0.00  0.00    +0.053 A 
ATOM      2  C   UNL     1      -0.953   1.803   6.076  0.00  0.00    +0.025 A 
ATOM      3  C   UNL     1       0.297   2.159   6.542  0.00  0.00    +0.002 A 
ATOM      4  C   UNL     1       1.430   1.583   5.996  0.00  0.00    +0.000 A 
ATOM      5  C   UNL     1       1.315   0.649   4.983  0.00  0.00    +0.007 A 
ATOM      6  C   UNL     1       0.068   0.288   4.512  0.00  0.00    -0.008 A 
ENDROOT
BRANCH   1   7
ATOM      7  N   UNL     1      -2.334   0.510   4.577  0.00  0.00    -0.216 N 
ATOM      8  H   UNL     1      -2.505  -0.402   4.294  0.00  0.00    +0.174 HD
BRANCH   7   9
ATOM      9  S   UNL     1      -3.540   1.643   4.493  0.00  0.00    +0.072 S 
ATOM     10  O   UNL     1      -4.641   1.017   3.850  0.00  0.00    -0.150 OA
ATOM     11  O   UNL     1      -3.642   2.223   5.786  0.00  0.00    -0.150 OA
BRANCH   9  16
ATOM     12  C   UNL     1      -1.635   6.008   0.789  0.00  0.00    +0.044 C 
ATOM     13  C   UNL     1      -2.111   4.918   1.714  0.00  0.00    -0.050 A 
ATOM     14  C   UNL     1      -2.809   3.837   1.208  0.00  0.00    +0.005 A 
ATOM     15  C   UNL     1      -3.245   2.837   2.057  0.00  0.00    +0.029 A 
ATOM     16  C   UNL     1      -2.983   2.917   3.412  0.00  0.00    +0.109 A 
ATOM     17  C   UNL     1      -2.290   4.000   3.919  0.00  0.00    +0.029 A 
ATOM     18  C   UNL     1      -1.849   4.998   3.069  0.00  0.00    +0.005 A 
ENDBRANCH   9  16
ENDBRANCH   7   9
ENDBRANCH   1   7
BRANCH   6  19
ATOM     19  C   UNL     1      -0.057  -0.729   3.407  0.00  0.00    +0.138 C 
BRANCH  19  20
ATOM     20  N   UNL     1      -0.275  -0.040   2.132  0.00  0.00    -0.339 N 
ATOM     21  H   UNL     1      -0.318   0.928   2.105  0.00  0.00    +0.146 HD
BRANCH  20  22
ATOM     22  C   UNL     1      -0.421  -0.779   0.956  0.00  0.00    +0.030 A 
ATOM     23  C   UNL     1      -0.359  -2.167   0.993  0.00  0.00    +0.023 A 
ATOM     24  C   UNL     1      -0.503  -2.894  -0.172  0.00  0.00    +0.002 A 
ATOM     25  C   UNL     1      -0.710  -2.243  -1.375  0.00  0.00    +0.000 A 
ATOM     26  C   UNL     1      -0.776  -0.862  -1.414  0.00  0.00    +0.005 A 
ATOM     27  C   UNL     1      -0.628  -0.128  -0.254  0.00  0.00    -0.030 A 
ATOM     28  C   UNL     1      -0.696   1.377  -0.298  0.00  0.00    +0.045 C 
ENDBRANCH  20  22
ENDBRANCH  19  20
ENDBRANCH   6  19
TORSDOF 6
