REMARK  Name = ZINC12324575
REMARK  5 active torsions:
REMARK  status: ('A' for Active; 'I' for Inactive)
REMARK    1  A    between atoms: C_4  and  C_7
REMARK    2  A    between atoms: C_12  and  N_21
REMARK    3  A    between atoms: C_14  and  S_16
REMARK    4  A    between atoms: S_16  and  C_17
REMARK    5  A    between atoms: C_17  and  C_18
REMARK                            x       y       z     vdW  Elec       q    Type
REMARK                         _______ _______ _______ _____ _____    ______ ____
ROOT
ATOM      1  C   UNL     1       3.642   2.192   0.002  0.00  0.00    +0.002 A 
ATOM      2  C   UNL     1       4.578   1.975   0.955  0.00  0.00    +0.056 A 
ATOM      3  S   UNL     1       5.892   3.095   0.511  0.00  0.00    -0.076 S 
ATOM      4  C   UNL     1       5.164   3.824  -0.932  0.00  0.00    +0.115 A 
ATOM      5  C   UNL     1       3.916   3.177  -1.040  0.00  0.00    +0.055 A 
ATOM      6  C   UNL     1       3.106   3.586  -2.134  0.00  0.00    +0.129 A 
ATOM      7  N   UNL     1       3.557   4.512  -2.964  0.00  0.00    -0.207 NA
ATOM      8  C   UNL     1       4.747   5.080  -2.807  0.00  0.00    +0.191 A 
ATOM      9  N   UNL     1       5.543   4.740  -1.802  0.00  0.00    -0.214 NA
ENDROOT
BRANCH   1  13
ATOM     10  C   UNL     1      -0.020   0.034   0.033  0.00  0.00    +0.000 A 
ATOM     11  C   UNL     1      -0.035   1.417   0.070  0.00  0.00    +0.001 A 
ATOM     12  C   UNL     1       1.151   2.123   0.061  0.00  0.00    +0.008 A 
ATOM     13  C   UNL     1       2.365   1.440   0.013  0.00  0.00    -0.017 A 
ATOM     14  C   UNL     1       2.374   0.046  -0.025  0.00  0.00    +0.008 A 
ATOM     15  C   UNL     1       1.182  -0.649  -0.014  0.00  0.00    +0.001 A 
ENDBRANCH   1  13
BRANCH   6  16
ATOM     16  N   UNL     1       1.861   3.018  -2.331  0.00  0.00    -0.343 N 
ATOM     17  H   UNL     1       1.675   2.126  -1.996  0.00  0.00    +0.144 HD
ATOM     18  H   UNL     1       1.172   3.511  -2.804  0.00  0.00    +0.144 HD
ENDBRANCH   6  16
BRANCH   8  19
ATOM     19  S   UNL     1       5.278   6.306  -3.955  0.00  0.00    -0.077 S 
BRANCH  19  20
ATOM     20  C   UNL     1       3.841   6.349  -5.056  0.00  0.00    +0.172 C 
BRANCH  20  21
ATOM     21  C   UNL     1       4.077   7.359  -6.149  0.00  0.00    +0.221 C 
ATOM     22  O   UNL     1       5.113   7.988  -6.181  0.00  0.00    -0.275 OA
ATOM     23  N   UNL     1       3.135   7.564  -7.092  0.00  0.00    -0.329 N 
ATOM     24  H   UNL     1       2.306   7.061  -7.066  0.00  0.00    +0.145 HD
ATOM     25  H   UNL     1       3.286   8.214  -7.795  0.00  0.00    +0.145 HD
ENDBRANCH  20  21
ENDBRANCH  19  20
ENDBRANCH   8  19
TORSDOF 5
