REMARK  Name = ZINC29548358
REMARK  10 active torsions:
REMARK  status: ('A' for Active; 'I' for Inactive)
REMARK    1  A    between atoms: C_1  and  C_2
REMARK    2  A    between atoms: C_2  and  C_4
REMARK    3  A    between atoms: C_2  and  S_17
REMARK    4  A    between atoms: N_6  and  C_7
REMARK    5  A    between atoms: C_10  and  S_13
REMARK    6  A    between atoms: S_13  and  N_16
REMARK    7  A    between atoms: S_17  and  C_18
REMARK    8  A    between atoms: C_21  and  C_26
REMARK    9  A    between atoms: N_22  and  C_23
REMARK   10  A    between atoms: C_23  and  C_24
REMARK                            x       y       z     vdW  Elec       q    Type
REMARK                         _______ _______ _______ _____ _____    ______ ____
ROOT
ATOM      1  C   UNL     1       3.215   4.178   1.289  0.00  0.00    +0.029 C 
ATOM      2  C   UNL     1       3.539   3.455  -0.020  0.00  0.00    +0.137 C 
ENDROOT
BRANCH   2   3
ATOM      3  C   UNL     1       5.032   3.298  -0.150  0.00  0.00    +0.230 C 
ATOM      4  O   UNL     1       5.557   2.240   0.126  0.00  0.00    -0.274 OA
ATOM      5  N   UNL     1       5.784   4.333  -0.575  0.00  0.00    -0.285 N 
ATOM      6  H   UNL     1       5.302   5.267  -0.898  0.00  0.00    +0.155 HD
BRANCH   5   7
ATOM      7  C   UNL     1       7.179   4.219  -0.604  0.00  0.00    +0.034 A 
ATOM      8  C   UNL     1       7.973   5.322  -0.324  0.00  0.00    +0.025 A 
ATOM      9  C   UNL     1       9.349   5.205  -0.347  0.00  0.00    +0.030 A 
ATOM     10  C   UNL     1       9.936   3.993  -0.662  0.00  0.00    +0.105 A 
ATOM     11  C   UNL     1       9.147   2.893  -0.948  0.00  0.00    +0.030 A 
ATOM     12  C   UNL     1       7.771   3.003  -0.920  0.00  0.00    +0.025 A 
BRANCH  10  13
ATOM     13  S   UNL     1      11.691   3.849  -0.698  0.00  0.00    +0.056 S 
ATOM     14  O   UNL     1      12.201   4.879   0.138  0.00  0.00    -0.153 OA
ATOM     15  O   UNL     1      11.991   2.477  -0.486  0.00  0.00    -0.153 OA
BRANCH  13  16
ATOM     16  N   UNL     1      12.180   4.207  -2.240  0.00  0.00    -0.204 NA
ATOM     17  H   UNL     1      13.275   4.128  -2.304  0.00  0.00    +0.144 HD
ATOM     18  H   UNL     1      11.870   5.231  -2.494  0.00  0.00    +0.144 HD
ENDBRANCH  13  16
ENDBRANCH  10  13
ENDBRANCH   5   7
ENDBRANCH   2   3
BRANCH   2  19
ATOM     19  S   UNL     1       2.759   1.822  -0.016  0.00  0.00    -0.073 S 
BRANCH  19  20
ATOM     20  C   UNL     1       1.061   2.295  -0.008  0.00  0.00    +0.193 A 
ATOM     21  N   UNL     1       0.594   3.523  -0.006  0.00  0.00    -0.122 NA
ATOM     22  N   UNL     1      -0.691   3.508   0.000  0.00  0.00    -0.125 NA
ATOM     23  C   UNL     1      -1.125   2.267  -0.004  0.00  0.00    +0.201 A 
ATOM     24  N   UNL     1      -0.015   1.452  -0.004  0.00  0.00    -0.296 N 
BRANCH  23  25
ATOM     25  C   UNL     1      -2.530   1.832  -0.006  0.00  0.00    +0.172 A 
ATOM     26  C   UNL     1      -3.610   2.611   0.284  0.00  0.00    +0.053 A 
ATOM     27  C   UNL     1      -4.747   1.791   0.158  0.00  0.00    +0.042 A 
ATOM     28  C   UNL     1      -4.314   0.563  -0.191  0.00  0.00    +0.196 A 
ATOM     29  O   UNL     1      -2.974   0.591  -0.289  0.00  0.00    -0.460 OA
ENDBRANCH  23  25
BRANCH  24  30
ATOM     30  C   UNL     1       0.008  -0.013  -0.004  0.00  0.00    +0.152 C 
BRANCH  30  31
ATOM     31  C   UNL     1       0.022  -0.516   1.417  0.00  0.00    -0.013 C 
ATOM     32  C   UNL     1      -0.892  -1.362   1.821  0.00  0.00    +0.005 C 
ENDBRANCH  30  31
ENDBRANCH  24  30
ENDBRANCH  19  20
ENDBRANCH   2  19
TORSDOF 9
