REMARK  Name = ZINC39696541
REMARK  11 active torsions:
REMARK  status: ('A' for Active; 'I' for Inactive)
REMARK    1  A    between atoms: C_1  and  C_2
REMARK    2  A    between atoms: C_2  and  C_3
REMARK    3  A    between atoms: C_2  and  C_4
REMARK    4  A    between atoms: C_2  and  S_5
REMARK    5  A    between atoms: S_5  and  C_6
REMARK    6  A    between atoms: C_6  and  C_7
REMARK    7  A    between atoms: C_7  and  N_8
REMARK    8  A    between atoms: C_9  and  C_11
REMARK    9  A    between atoms: C_22  and  C_24
REMARK   10  A    between atoms: C_27  and  O_31
REMARK   11  A    between atoms: O_31  and  C_32
REMARK                            x       y       z     vdW  Elec       q    Type
REMARK                         _______ _______ _______ _____ _____    ______ ____
ROOT
ATOM      1  C   UNL     1       7.505   0.983  -3.038  0.00  0.00    +0.100 C 
ATOM      2  C   UNL     1       7.932   0.263  -1.739  0.00  0.00    +0.121 C 
ATOM      3  N   UNL     1       8.677  -0.932  -2.200  0.00  0.00    -0.296 N 
ATOM      4  C   UNL     1       9.464  -0.450  -3.360  0.00  0.00    +0.115 C 
ATOM      5  C   UNL     1       8.516   0.515  -4.098  0.00  0.00    -0.004 C 
ATOM      6  C   UNL     1       9.296   1.707  -4.647  0.00  0.00    -0.010 C 
ATOM      7  C   UNL     1      10.252   1.225  -5.741  0.00  0.00    -0.082 C 
ATOM      8  N   UNL     1       9.486   0.580  -6.814  0.00  0.00    +0.379 N 
ATOM      9  C   UNL     1       8.813  -0.618  -6.299  0.00  0.00    -0.082 C 
ATOM     10  C   UNL     1       7.796  -0.214  -5.228  0.00  0.00    -0.010 C 
ATOM     11  C   UNL     1       8.646  -2.176  -1.682  0.00  0.00    +0.247 C 
ATOM     12  O   UNL     1       7.852  -2.449  -0.803  0.00  0.00    -0.270 OA
ATOM     13  H   UNL     1       8.796   1.226  -7.168  0.00  0.00    -0.086 HD
ATOM     14  H   UNL     1      10.112   0.318  -7.561  0.00  0.00    -0.086 HD
ENDROOT
BRANCH  11  15
ATOM     15  C   UNL     1       9.577  -3.207  -2.182  0.00  0.00    +0.040 A 
ATOM     16  C   UNL     1      10.750  -2.830  -2.841  0.00  0.00    +0.036 A 
ATOM     17  C   UNL     1      11.617  -3.796  -3.307  0.00  0.00    +0.085 A 
ATOM     18  C   UNL     1      11.324  -5.143  -3.122  0.00  0.00    +0.157 A 
ATOM     19  C   UNL     1      10.158  -5.521  -2.467  0.00  0.00    +0.085 A 
ATOM     20  C   UNL     1       9.289  -4.561  -1.993  0.00  0.00    +0.036 A 
ATOM     21 CL   UNL     1       9.797  -7.204  -2.239  0.00  0.00    -0.080 Cl
ATOM     22 CL   UNL     1      13.075  -3.330  -4.126  0.00  0.00    -0.080 Cl
BRANCH  18  23
ATOM     23  O   UNL     1      12.180  -6.091  -3.583  0.00  0.00    -0.492 OA
ATOM     24  C   UNL     1      13.208  -6.526  -2.691  0.00  0.00    +0.277 C 
ENDBRANCH  18  23
ENDBRANCH  11  15
BRANCH   1  26
ATOM     25  N   UNL     1       5.362   1.387  -4.205  0.00  0.00    -0.314 N 
ATOM     26  C   UNL     1       6.108   0.576  -3.428  0.00  0.00    +0.218 C 
ATOM     27  O   UNL     1       5.655  -0.482  -3.044  0.00  0.00    -0.275 OA
ATOM     28  H   UNL     1       5.724   2.232  -4.512  0.00  0.00    +0.149 HD
BRANCH  25  29
ATOM     29  C   UNL     1       4.004   0.991  -4.585  0.00  0.00    +0.115 C 
BRANCH  29  30
ATOM     30  C   UNL     1       3.381   2.080  -5.461  0.00  0.00    +0.088 C 
BRANCH  30  31
ATOM     31  S   UNL     1       1.699   1.590  -5.931  0.00  0.00    -0.153 S 
BRANCH  31  33
ATOM     32  C   UNL     1       2.024   3.130  -8.168  0.00  0.00    +0.022 C 
ATOM     33  C   UNL     1       1.110   2.968  -6.952  0.00  0.00    +0.008 C 
ATOM     34  C   UNL     1       1.125   4.257  -6.127  0.00  0.00    +0.022 C 
ATOM     35  C   UNL     1      -0.318   2.681  -7.422  0.00  0.00    +0.022 C 
ENDBRANCH  31  33
ENDBRANCH  30  31
ENDBRANCH  29  30
ENDBRANCH  25  29
ENDBRANCH   1  26
TORSDOF 7
