REMARK  Name = ZINC39711552
REMARK  14 active torsions:
REMARK  status: ('A' for Active; 'I' for Inactive)
REMARK    1  A    between atoms: C_1  and  C_2
REMARK    2  A    between atoms: C_2  and  C_3
REMARK    3  A    between atoms: C_2  and  C_4
REMARK    4  A    between atoms: C_2  and  N_5
REMARK    5  A    between atoms: C_6  and  C_11
REMARK    6  A    between atoms: C_11  and  C_13
REMARK    7  A    between atoms: C_11  and  N_29
REMARK    8  A    between atoms: C_18  and  O_27
REMARK    9  A    between atoms: C_19  and  O_25
REMARK   10  A    between atoms: O_25  and  C_26
REMARK   11  A    between atoms: O_27  and  C_28
REMARK   12  A    between atoms: N_32  and  C_35
REMARK   13  A    between atoms: C_39  and  O_41
REMARK   14  A    between atoms: O_41  and  C_42
REMARK                            x       y       z     vdW  Elec       q    Type
REMARK                         _______ _______ _______ _____ _____    ______ ____
ROOT
ATOM      1  C   UNL     1      -0.499  -0.954  -3.149  0.00  0.00    -0.009 C 
ENDROOT
BRANCH   1   2
ATOM      2  C   UNL     1      -1.637  -1.667  -2.417  0.00  0.00    +0.088 C 
ATOM      3  C   UNL     1      -2.803  -0.704  -2.318  0.00  0.00    -0.006 C 
ATOM      4  C   UNL     1      -3.265  -0.407  -1.074  0.00  0.00    -0.003 A 
ATOM      5  C   UNL     1      -4.388   0.516  -0.895  0.00  0.00    +0.058 A 
ATOM      6  C   UNL     1      -4.823   0.790   0.362  0.00  0.00    +0.162 A 
ATOM      7  C   UNL     1      -4.215   0.202   1.488  0.00  0.00    +0.163 A 
ATOM      8  C   UNL     1      -3.157  -0.671   1.378  0.00  0.00    +0.073 A 
ATOM      9  C   UNL     1      -2.643  -1.011   0.119  0.00  0.00    +0.044 A 
ATOM     10  N   UNL     1      -1.616  -1.859   0.028  0.00  0.00    -0.284 N 
ATOM     11  C   UNL     1      -1.082  -2.222  -1.125  0.00  0.00    +0.223 C 
ATOM     12  O   UNL     1      -0.146  -2.999  -1.145  0.00  0.00    -0.275 OA
ATOM     13  H   UNL     1      -1.245  -2.226   0.845  0.00  0.00    +0.155 HD
BRANCH   7  14
ATOM     14  O   UNL     1      -4.686   0.508   2.721  0.00  0.00    -0.491 OA
ATOM     15  C   UNL     1      -4.038  -0.111   3.834  0.00  0.00    +0.277 C 
ENDBRANCH   7  14
BRANCH   6  16
ATOM     16  O   UNL     1      -5.865   1.646   0.537  0.00  0.00    -0.491 OA
ATOM     17  C   UNL     1      -6.443   2.212  -0.640  0.00  0.00    +0.277 C 
ENDBRANCH   6  16
ENDBRANCH   1   2
BRANCH   1  18
ATOM     18  N   UNL     1      -0.997  -0.415  -4.421  0.00  0.00    +0.387 N 
ATOM     19  C   UNL     1      -1.696  -1.474  -5.160  0.00  0.00    -0.059 C 
ATOM     20  C   UNL     1      -2.314  -0.886  -6.433  0.00  0.00    +0.086 C 
ATOM     21  N   UNL     1      -1.254  -0.211  -7.197  0.00  0.00    -0.333 N 
ATOM     22  C   UNL     1      -0.395   0.751  -6.490  0.00  0.00    +0.086 C 
ATOM     23  C   UNL     1       0.133   0.086  -5.215  0.00  0.00    -0.059 C 
ATOM     24  H   UNL     1      -1.638   0.342  -4.237  0.00  0.00    -0.081 HD
BRANCH  21  25
ATOM     25  C   UNL     1      -1.067  -0.477  -8.556  0.00  0.00    +0.033 A 
ATOM     26  C   UNL     1      -1.963  -1.295  -9.234  0.00  0.00    +0.023 A 
ATOM     27  C   UNL     1      -1.779  -1.558 -10.577  0.00  0.00    +0.005 A 
ATOM     28  C   UNL     1      -0.704  -1.008 -11.250  0.00  0.00    +0.046 A 
ATOM     29  C   UNL     1       0.193  -0.190 -10.579  0.00  0.00    +0.122 A 
ATOM     30  C   UNL     1       0.009   0.080  -9.232  0.00  0.00    +0.068 A 
BRANCH  29  31
ATOM     31  O   UNL     1       1.249   0.350 -11.242  0.00  0.00    -0.495 OA
ATOM     32  C   UNL     1       1.374   0.033 -12.630  0.00  0.00    +0.277 C 
ENDBRANCH  29  31
ENDBRANCH  21  25
ENDBRANCH   1  18
BRANCH   1  34
ATOM     33  N   UNL     1       1.236   0.786  -2.889  0.00  0.00    -0.183 NA
ATOM     34  C   UNL     1       0.027   0.191  -2.281  0.00  0.00    +0.205 C 
ATOM     35  N   UNL     1      -0.944   1.293  -2.238  0.00  0.00    -0.152 NA
ATOM     36  N   UNL     1      -0.422   2.304  -2.713  0.00  0.00    -0.070 NA
ATOM     37  N   UNL     1       0.891   2.091  -3.131  0.00  0.00    -0.179 N 
ATOM     38  H   UNL     1       1.469   2.760  -3.530  0.00  0.00    +0.191 HD
BRANCH  33  40
ATOM     39  C   UNL     1       2.055   1.461  -0.682  0.00  0.00    +0.029 C 
ATOM     40  C   UNL     1       2.380   0.706  -1.972  0.00  0.00    +0.035 C 
ATOM     41  C   UNL     1       3.609   1.333  -2.634  0.00  0.00    +0.029 C 
ATOM     42  C   UNL     1       2.670  -0.760  -1.645  0.00  0.00    +0.029 C 
ENDBRANCH  33  40
ENDBRANCH   1  34
TORSDOF 8
