REMARK  Name = ZINC24493840
REMARK  13 active torsions:
REMARK  status: ('A' for Active; 'I' for Inactive)
REMARK    1  A    between atoms: C_1  and  C_2
REMARK    2  A    between atoms: C_2  and  C_3
REMARK    3  A    between atoms: C_2  and  C_4
REMARK    4  A    between atoms: C_2  and  O_5
REMARK    5  A    between atoms: O_5  and  C_6
REMARK    6  A    between atoms: N_8  and  C_9
REMARK    7  A    between atoms: C_9  and  C_16
REMARK    8  A    between atoms: C_16  and  N_17
REMARK    9  A    between atoms: C_18  and  C_20
REMARK   10  A    between atoms: C_22  and  S_27
REMARK   11  A    between atoms: S_27  and  N_30
REMARK   12  A    between atoms: N_30  and  C_31
REMARK   13  A    between atoms: N_30  and  C_32
REMARK                            x       y       z     vdW  Elec       q    Type
REMARK                         _______ _______ _______ _____ _____    ______ ____
ROOT
ATOM      1  C   UNL     1       4.214   1.353  -2.712  0.00  0.00    +0.130 C 
ENDROOT
BRANCH   1   2
ATOM      2  C   UNL     1       4.066  -0.168  -2.650  0.00  0.00    +0.053 C 
ATOM      3  C   UNL     1       5.041  -0.721  -1.591  0.00  0.00    +0.027 C 
ATOM      4  C   UNL     1       4.563  -2.082  -1.165  0.00  0.00    +0.002 C 
ATOM      5  C   UNL     1       5.233  -3.219  -1.960  0.00  0.00    +0.000 C 
ATOM      6  C   UNL     1       5.358  -2.903  -3.463  0.00  0.00    +0.000 C 
ATOM      7  C   UNL     1       4.121  -2.250  -4.019  0.00  0.00    +0.002 C 
ATOM      8  C   UNL     1       4.313  -0.720  -3.974  0.00  0.00    +0.027 C 
BRANCH   2  11
ATOM      9  C   UNL     1       1.661  -0.150  -3.041  0.00  0.00    +0.401 C 
ATOM     10  O   UNL     1       1.856   0.511  -4.042  0.00  0.00    -0.226 OA
ATOM     11  N   UNL     1       2.695  -0.495  -2.249  0.00  0.00    -0.274 N 
ATOM     12  H   UNL     1       2.532  -0.959  -1.413  0.00  0.00    +0.153 HD
BRANCH   9  13
ATOM     13  O   UNL     1       0.411  -0.539  -2.724  0.00  0.00    -0.445 OA
BRANCH  13  15
ATOM     14  C   UNL     1      -0.371  -0.707  -5.004  0.00  0.00    +0.055 C 
ATOM     15  C   UNL     1      -0.637  -0.139  -3.609  0.00  0.00    +0.107 C 
ATOM     16  C   UNL     1      -0.688   1.389  -3.681  0.00  0.00    +0.055 C 
ATOM     17  C   UNL     1      -1.974  -0.669  -3.088  0.00  0.00    +0.055 C 
ENDBRANCH  13  15
ENDBRANCH   9  13
ENDBRANCH   2  11
ENDBRANCH   1   2
BRANCH   1  18
ATOM     18  N   UNL     1       3.888   1.929  -1.405  0.00  0.00    -0.309 N 
ATOM     19  C   UNL     1       4.058   3.248  -1.188  0.00  0.00    +0.246 C 
ATOM     20  O   UNL     1       4.481   3.961  -2.078  0.00  0.00    -0.270 OA
ATOM     21  H   UNL     1       3.551   1.360  -0.695  0.00  0.00    +0.149 HD
BRANCH  19  22
ATOM     22  C   UNL     1       3.729   3.829   0.130  0.00  0.00    +0.057 A 
ATOM     23  C   UNL     1       3.248   3.013   1.156  0.00  0.00    +0.043 A 
ATOM     24  C   UNL     1       2.944   3.561   2.384  0.00  0.00    +0.106 A 
ATOM     25  C   UNL     1       3.113   4.917   2.602  0.00  0.00    +0.030 A 
ATOM     26  C   UNL     1       3.588   5.733   1.592  0.00  0.00    +0.022 A 
ATOM     27  C   UNL     1       3.903   5.196   0.358  0.00  0.00    +0.053 A 
ATOM     28 CL   UNL     1       4.507   6.220  -0.908  0.00  0.00    -0.083 Cl
BRANCH  24  29
ATOM     29  S   UNL     1       2.337   2.532   3.679  0.00  0.00    +0.060 S 
ATOM     30  O   UNL     1       1.610   3.376   4.562  0.00  0.00    -0.153 OA
ATOM     31  O   UNL     1       1.751   1.397   3.056  0.00  0.00    -0.153 OA
BRANCH  29  32
ATOM     32  N   UNL     1       3.651   1.982   4.524  0.00  0.00    -0.183 NA
ATOM     33  C   UNL     1       4.160   2.747   5.665  0.00  0.00    +0.131 C 
ATOM     34  C   UNL     1       4.303   0.731   4.131  0.00  0.00    +0.131 C 
ENDBRANCH  29  32
ENDBRANCH  24  29
ENDBRANCH  19  22
ENDBRANCH   1  18
TORSDOF 8
