REMARK  Name = ZINC60427303
REMARK  7 active torsions:
REMARK  status: ('A' for Active; 'I' for Inactive)
REMARK    1  A    between atoms: C_1  and  C_2
REMARK    2  A    between atoms: C_2  and  C_3
REMARK    3  A    between atoms: C_2  and  S_10
REMARK    4  A    between atoms: S_10  and  C_11
REMARK    5  A    between atoms: C_12  and  C_20
REMARK    6  A    between atoms: C_14  and  C_18
REMARK    7  A    between atoms: C_15  and  N_17
REMARK                            x       y       z     vdW  Elec       q    Type
REMARK                         _______ _______ _______ _____ _____    ______ ____
ROOT
ATOM      1  C   UNL     1      -2.335  -0.110   1.573  0.00  0.00    +0.117 A 
ATOM      2  C   UNL     1      -3.659  -0.436   1.930  0.00  0.00    +0.085 A 
ATOM      3  C   UNL     1      -4.152  -0.017   3.168  0.00  0.00    +0.043 A 
ATOM      4  C   UNL     1      -3.305   0.713   4.006  0.00  0.00    +0.092 A 
ATOM      5  C   UNL     1      -1.994   0.999   3.576  0.00  0.00    +0.135 A 
ATOM      6  N   UNL     1      -1.561   0.580   2.398  0.00  0.00    -0.224 NA
ENDROOT
BRANCH   5   7
ATOM      7  N   UNL     1      -1.150   1.720   4.396  0.00  0.00    -0.342 N 
ATOM      8  H   UNL     1      -1.460   2.026   5.262  0.00  0.00    +0.144 HD
ATOM      9  H   UNL     1      -0.246   1.920   4.105  0.00  0.00    +0.144 HD
ENDBRANCH   5   7
BRANCH   4  10
ATOM     10  C   UNL     1      -3.764   1.165   5.285  0.00  0.00    +0.103 C 
ATOM     11  N   UNL     1      -4.127   1.525   6.299  0.00  0.00    -0.191 NA
ENDBRANCH   4  10
BRANCH   2  12
ATOM     12  C   UNL     1      -4.488  -1.187   1.036  0.00  0.00    +0.102 C 
ATOM     13  N   UNL     1      -5.145  -1.782   0.326  0.00  0.00    -0.191 NA
ENDBRANCH   2  12
BRANCH   1  14
ATOM     14  S   UNL     1      -1.700  -0.632   0.015  0.00  0.00    -0.097 S 
BRANCH  14  16
ATOM     15  C   UNL     1      -0.019   1.526   0.010  0.00  0.00    +0.024 C 
ATOM     16  C   UNL     1       0.002  -0.004   0.002  0.00  0.00    +0.080 C 
BRANCH  16  17
ATOM     17  C   UNL     1       0.707  -0.490  -1.238  0.00  0.00    -0.033 A 
ATOM     18  C   UNL     1       0.222  -0.151  -2.487  0.00  0.00    +0.005 A 
ATOM     19  C   UNL     1       0.868  -0.596  -3.625  0.00  0.00    +0.002 A 
ATOM     20  C   UNL     1       2.001  -1.381  -3.514  0.00  0.00    +0.020 A 
ATOM     21  C   UNL     1       2.487  -1.721  -2.264  0.00  0.00    +0.041 A 
ATOM     22  C   UNL     1       1.843  -1.270  -1.126  0.00  0.00    +0.024 A 
ATOM     23 CL   UNL     1       3.909  -2.707  -2.125  0.00  0.00    -0.084 Cl
ENDBRANCH  16  17
ENDBRANCH  14  16
ENDBRANCH   1  14
TORSDOF 6
