REMARK  Name = ZINC54643425
REMARK  10 active torsions:
REMARK  status: ('A' for Active; 'I' for Inactive)
REMARK    1  A    between atoms: C_1  and  C_2
REMARK    2  A    between atoms: C_6  and  C_7
REMARK    3  A    between atoms: C_9  and  C_27
REMARK    4  A    between atoms: C_10  and  C_26
REMARK    5  A    between atoms: C_15  and  S_17
REMARK    6  A    between atoms: S_17  and  C_18
REMARK    7  A    between atoms: C_18  and  C_19
REMARK    8  A    between atoms: C_27  and  O_29
REMARK    9  A    between atoms: O_29  and  C_30
REMARK   10  A    between atoms: C_30  and  C_31
REMARK                            x       y       z     vdW  Elec       q    Type
REMARK                         _______ _______ _______ _____ _____    ______ ____
ROOT
ATOM      1  C   UNL     1      -0.065  -0.135   2.629  0.00  0.00    +0.186 C 
ATOM      2  C   UNL     1       1.199  -0.478   3.372  0.00  0.00    +0.083 C 
ATOM      3  C   UNL     1       1.271  -1.467   4.277  0.00  0.00    +0.020 C 
ATOM      4  N   UNL     1       0.184  -2.239   4.605  0.00  0.00    -0.287 N 
ATOM      5  C   UNL     1      -1.061  -1.805   4.172  0.00  0.00    +0.219 A 
ATOM      6  N   UNL     1      -1.196  -0.819   3.252  0.00  0.00    -0.219 N 
ATOM      7  N   UNL     1      -2.564  -0.635   3.060  0.00  0.00    -0.141 NA
ATOM      8  C   UNL     1      -3.175  -1.496   3.844  0.00  0.00    +0.211 A 
ATOM      9  N   UNL     1      -2.256  -2.204   4.516  0.00  0.00    -0.187 NA
ATOM     10  C   UNL     1       2.589  -1.738   4.955  0.00  0.00    +0.061 C 
ATOM     11  H   UNL     1       0.283  -3.055   5.118  0.00  0.00    +0.155 HD
ENDROOT
BRANCH   1  17
ATOM     12  C   UNL     1      -0.229   1.658   0.140  0.00  0.00    +0.044 C 
ATOM     13  C   UNL     1      -0.004   0.170   0.063  0.00  0.00    -0.038 A 
ATOM     14  C   UNL     1       0.147  -0.455  -1.161  0.00  0.00    +0.011 A 
ATOM     15  C   UNL     1       0.348  -1.795  -1.195  0.00  0.00    +0.046 A 
ATOM     16  S   UNL     1       0.329  -2.215   0.540  0.00  0.00    -0.099 S 
ATOM     17  C   UNL     1       0.060  -0.576   1.194  0.00  0.00    +0.022 A 
ENDBRANCH   1  17
BRANCH   2  18
ATOM     18  C   UNL     1       2.364   0.275   3.103  0.00  0.00    +0.339 C 
ATOM     19  O   UNL     1       2.521   1.361   3.629  0.00  0.00    -0.245 OA
BRANCH  18  20
ATOM     20  O   UNL     1       3.302  -0.210   2.262  0.00  0.00    -0.457 OA
BRANCH  20  21
ATOM     21  C   UNL     1       4.454   0.604   2.036  0.00  0.00    +0.268 C 
BRANCH  21  22
ATOM     22  C   UNL     1       5.383  -0.095   1.079  0.00  0.00    -0.010 A 
ATOM     23  C   UNL     1       6.359  -0.947   1.560  0.00  0.00    +0.007 A 
ATOM     24  C   UNL     1       7.212  -1.588   0.682  0.00  0.00    +0.000 A 
ATOM     25  C   UNL     1       7.089  -1.378  -0.679  0.00  0.00    +0.000 A 
ATOM     26  C   UNL     1       6.112  -0.527  -1.161  0.00  0.00    +0.000 A 
ATOM     27  C   UNL     1       5.256   0.111  -0.282  0.00  0.00    +0.007 A 
ENDBRANCH  21  22
ENDBRANCH  20  21
ENDBRANCH  18  20
ENDBRANCH   2  18
BRANCH   8  28
ATOM     28  S   UNL     1      -4.921  -1.687   3.990  0.00  0.00    -0.080 S 
BRANCH  28  29
ATOM     29  C   UNL     1      -5.117  -3.013   5.212  0.00  0.00    +0.115 C 
BRANCH  29  30
ATOM     30  C   UNL     1      -6.583  -3.280   5.433  0.00  0.00    -0.002 A 
ATOM     31  C   UNL     1      -7.274  -2.587   6.409  0.00  0.00    +0.007 A 
ATOM     32  C   UNL     1      -8.619  -2.831   6.611  0.00  0.00    +0.000 A 
ATOM     33  C   UNL     1      -9.276  -3.770   5.838  0.00  0.00    +0.003 A 
ATOM     34  C   UNL     1      -8.588  -4.465   4.861  0.00  0.00    +0.038 A 
ATOM     35  C   UNL     1      -7.242  -4.217   4.654  0.00  0.00    +0.127 A 
ATOM     36  F   UNL     1      -6.569  -4.892   3.696  0.00  0.00    -0.205 F 
ENDBRANCH  29  30
ENDBRANCH  28  29
ENDBRANCH   8  28
TORSDOF 8
