REMARK  Name = ZINC43737559
REMARK  8 active torsions:
REMARK  status: ('A' for Active; 'I' for Inactive)
REMARK    1  A    between atoms: C_1  and  C_2
REMARK    2  A    between atoms: C_2  and  C_3
REMARK    3  A    between atoms: C_2  and  C_4
REMARK    4  A    between atoms: C_4  and  C_5
REMARK    5  A    between atoms: C_8  and  C_11
REMARK    6  A    between atoms: C_11  and  C_13
REMARK    7  A    between atoms: C_15  and  C_38
REMARK    8  A    between atoms: C_38  and  C_40
REMARK                            x       y       z     vdW  Elec       q    Type
REMARK                         _______ _______ _______ _____ _____    ______ ____
ROOT
ATOM      1  C   UNL     1      -1.195  -7.106   0.768  0.00  0.00    +0.109 C 
ATOM      2  C   UNL     1      -2.570  -7.665   1.222  0.00  0.00    +0.152 C 
ATOM      3  N   UNL     1      -2.780  -8.889   0.448  0.00  0.00    -0.311 N 
ATOM      4  C   UNL     1      -3.922  -9.672   0.325  0.00  0.00    +0.038 A 
ATOM      5  C   UNL     1      -5.202  -9.167   0.294  0.00  0.00    +0.024 A 
ATOM      6  C   UNL     1      -6.274 -10.033   0.150  0.00  0.00    +0.002 A 
ATOM      7  C   UNL     1      -6.062 -11.396   0.036  0.00  0.00    +0.001 A 
ATOM      8  C   UNL     1      -4.783 -11.916   0.072  0.00  0.00    +0.010 A 
ATOM      9  C   UNL     1      -3.698 -11.061   0.225  0.00  0.00    -0.004 A 
ATOM     10  C   UNL     1      -2.313 -11.563   0.311  0.00  0.00    +0.007 C 
ATOM     11  C   UNL     1      -1.277 -10.749   0.122  0.00  0.00    -0.003 C 
ATOM     12  C   UNL     1      -1.504  -9.294  -0.189  0.00  0.00    +0.117 C 
ATOM     13  C   UNL     1      -0.427  -8.397   0.416  0.00  0.00    +0.108 C 
ATOM     14  C   UNL     1       0.234  -8.998   1.606  0.00  0.00    -0.008 A 
ATOM     15  C   UNL     1      -0.264  -9.456   2.807  0.00  0.00    +0.006 A 
ATOM     16  C   UNL     1       0.652  -9.969   3.718  0.00  0.00    +0.000 A 
ATOM     17  C   UNL     1       2.001 -10.015   3.431  0.00  0.00    +0.002 A 
ATOM     18  C   UNL     1       2.511  -9.557   2.227  0.00  0.00    +0.023 A 
ATOM     19  C   UNL     1       1.602  -9.040   1.303  0.00  0.00    +0.038 A 
ATOM     20  N   UNL     1       1.832  -8.521   0.040  0.00  0.00    -0.284 N 
ATOM     21  C   UNL     1       0.688  -8.116  -0.556  0.00  0.00    +0.231 C 
ATOM     22  O   UNL     1       0.581  -7.622  -1.659  0.00  0.00    -0.274 OA
ATOM     23  H   UNL     1       2.709  -8.454  -0.368  0.00  0.00    +0.155 HD
ENDROOT
BRANCH   2  24
ATOM     24  C   UNL     1      -3.660  -6.668   0.925  0.00  0.00    +0.151 C 
ATOM     25  O   UNL     1      -3.820  -6.265  -0.202  0.00  0.00    -0.296 OA
ATOM     26  C   UNL     1      -4.551  -6.175   2.036  0.00  0.00    +0.088 C 
ENDBRANCH   2  24
BRANCH   1  27
ATOM     27  C   UNL     1      -1.347  -6.221  -0.443  0.00  0.00    +0.170 C 
ATOM     28  O   UNL     1      -1.589  -6.711  -1.525  0.00  0.00    -0.292 OA
BRANCH  27  32
ATOM     29  C   UNL     1      -0.926  -2.017  -0.064  0.00  0.00    -0.047 A 
ATOM     30  C   UNL     1      -1.086  -2.583  -1.317  0.00  0.00    +0.004 A 
ATOM     31  C   UNL     1      -1.224  -3.949  -1.448  0.00  0.00    +0.011 A 
ATOM     32  C   UNL     1      -1.200  -4.763  -0.311  0.00  0.00    +0.018 A 
ATOM     33  C   UNL     1      -1.037  -4.183   0.951  0.00  0.00    +0.011 A 
ATOM     34  C   UNL     1      -0.895  -2.817   1.066  0.00  0.00    +0.004 A 
BRANCH  29  35
ATOM     35  C   UNL     1      -0.776  -0.524   0.071  0.00  0.00    +0.038 C 
BRANCH  35  37
ATOM     36  C   UNL     1       0.847   1.374  -0.003  0.00  0.00    +0.007 C 
ATOM     37  C   UNL     1       0.705  -0.149  -0.014  0.00  0.00    -0.013 C 
ATOM     38  C   UNL     1       1.450  -0.740   1.184  0.00  0.00    +0.007 C 
ENDBRANCH  35  37
ENDBRANCH  29  35
ENDBRANCH  27  32
ENDBRANCH   1  27
TORSDOF 5
