REMARK  Name = ZINC60361043
REMARK  16 active torsions:
REMARK  status: ('A' for Active; 'I' for Inactive)
REMARK    1  A    between atoms: C_1  and  C_2
REMARK    2  A    between atoms: C_2  and  C_3
REMARK    3  A    between atoms: C_2  and  C_4
REMARK    4  A    between atoms: N_6  and  C_7
REMARK    5  A    between atoms: C_7  and  C_8
REMARK    6  A    between atoms: N_13  and  C_15
REMARK    7  A    between atoms: C_15  and  C_16
REMARK    8  A    between atoms: C_18  and  C_21
REMARK    9  A    between atoms: C_21  and  C_22
REMARK   10  A    between atoms: C_21  and  C_23
REMARK   11  A    between atoms: C_21  and  N_24
REMARK   12  A    between atoms: C_25  and  O_27
REMARK   13  A    between atoms: O_27  and  C_28
REMARK   14  A    between atoms: C_28  and  C_29
REMARK   15  A    between atoms: C_28  and  C_30
REMARK   16  A    between atoms: C_28  and  C_31
REMARK                            x       y       z     vdW  Elec       q    Type
REMARK                         _______ _______ _______ _____ _____    ______ ____
ROOT
ATOM      1  C   UNL     1       0.567   0.161   9.753  0.00  0.00    +0.211 A 
ATOM      2  N   UNL     1      -0.308  -0.426  10.522  0.00  0.00    -0.195 NA
ATOM      3  C   UNL     1      -0.663   0.391  11.521  0.00  0.00    +0.194 A 
ATOM      4  N   UNL     1      -0.013   1.512  11.399  0.00  0.00    -0.059 NA
ATOM      5  O   UNL     1       0.806   1.382  10.246  0.00  0.00    -0.340 OA
ENDROOT
BRANCH   3   6
ATOM      6  C   UNL     1      -1.652   0.065  12.609  0.00  0.00    +0.095 C 
ATOM      7  C   UNL     1      -3.016  -0.238  11.985  0.00  0.00    +0.040 C 
ATOM      8  C   UNL     1      -1.167  -1.157  13.391  0.00  0.00    +0.040 C 
BRANCH   6   9
ATOM      9  N   UNL     1      -1.774   1.209  13.517  0.00  0.00    -0.269 N 
ATOM     10  C   UNL     1      -2.609   1.145  14.573  0.00  0.00    +0.402 C 
ATOM     11  O   UNL     1      -3.261   0.139  14.772  0.00  0.00    -0.226 OA
ATOM     12  H   UNL     1      -1.254   2.012  13.357  0.00  0.00    +0.153 HD
BRANCH  10  13
ATOM     13  O   UNL     1      -2.721   2.196  15.407  0.00  0.00    -0.445 OA
BRANCH  13  14
ATOM     14  C   UNL     1      -3.624   2.059  16.505  0.00  0.00    +0.107 C 
ATOM     15  C   UNL     1      -3.187   0.884  17.382  0.00  0.00    +0.055 C 
ATOM     16  C   UNL     1      -3.617   3.345  17.335  0.00  0.00    +0.055 C 
ATOM     17  C   UNL     1      -5.037   1.803  15.975  0.00  0.00    +0.055 C 
ENDBRANCH  13  14
ENDBRANCH  10  13
ENDBRANCH   6   9
ENDBRANCH   3   6
BRANCH   1  18
ATOM     18  C   UNL     1       1.204  -0.436   8.525  0.00  0.00    +0.022 C 
BRANCH  18  23
ATOM     19  C   UNL     1       0.270  -0.182   4.899  0.00  0.00    -0.011 C 
ATOM     20  C   UNL     1      -1.123  -0.814   4.975  0.00  0.00    +0.001 C 
ATOM     21  C   UNL     1      -1.800  -0.376   6.277  0.00  0.00    -0.018 C 
ATOM     22  C   UNL     1      -0.918  -0.771   7.463  0.00  0.00    -0.078 C 
ATOM     23  N   UNL     1       0.389  -0.116   7.345  0.00  0.00    +0.386 N 
ATOM     24  C   UNL     1       1.076  -0.585   6.136  0.00  0.00    -0.073 C 
ATOM     25  H   UNL     1       0.260   0.884   7.290  0.00  0.00    -0.081 HD
BRANCH  19  26
ATOM     26  C   UNL     1       0.986  -0.676   3.640  0.00  0.00    +0.106 C 
BRANCH  26  29
ATOM     27  C   UNL     1       0.731  -0.503   1.223  0.00  0.00    +0.216 C 
ATOM     28  O   UNL     1       1.725  -1.187   1.099  0.00  0.00    -0.276 OA
ATOM     29  N   UNL     1       0.278  -0.191   2.453  0.00  0.00    -0.315 N 
ATOM     30  H   UNL     1      -0.517   0.356   2.553  0.00  0.00    +0.149 HD
BRANCH  27  32
ATOM     31  C   UNL     1      -0.019   1.526   0.010  0.00  0.00    +0.017 C 
ATOM     32  C   UNL     1       0.002  -0.004   0.002  0.00  0.00    +0.069 C 
ATOM     33  C   UNL     1       0.718  -0.497  -1.257  0.00  0.00    +0.017 C 
ENDBRANCH  27  32
ENDBRANCH  26  29
ENDBRANCH  19  26
ENDBRANCH  18  23
ENDBRANCH   1  18
TORSDOF 9
