REMARK  Name = ZINC02656795
REMARK  11 active torsions:
REMARK  status: ('A' for Active; 'I' for Inactive)
REMARK    1  A    between atoms: C_1  and  C_2
REMARK    2  A    between atoms: C_5  and  N_8
REMARK    3  A    between atoms: C_11  and  C_14
REMARK    4  A    between atoms: C_14  and  S_15
REMARK    5  A    between atoms: S_15  and  C_16
REMARK    6  A    between atoms: C_19  and  C_22
REMARK    7  A    between atoms: N_20  and  N_21
REMARK    8  A    between atoms: C_25  and  O_30
REMARK    9  A    between atoms: C_26  and  O_28
REMARK   10  A    between atoms: O_28  and  C_29
REMARK   11  A    between atoms: O_30  and  C_31
REMARK                            x       y       z     vdW  Elec       q    Type
REMARK                         _______ _______ _______ _____ _____    ______ ____
ROOT
ATOM      1  C   UNL     1      -1.043   1.499  -0.243  0.00  0.00    +0.209 A 
ATOM      2  N   UNL     1      -0.069   2.228  -0.739  0.00  0.00    -0.121 NA
ATOM      3  N   UNL     1      -0.356   3.476  -0.638  0.00  0.00    -0.127 NA
ATOM      4  C   UNL     1      -1.531   3.622  -0.070  0.00  0.00    +0.182 A 
ATOM      5  N   UNL     1      -2.010   2.360   0.195  0.00  0.00    -0.224 N 
ENDROOT
BRANCH   4   6
ATOM      6  C   UNL     1      -2.212   4.900   0.223  0.00  0.00    +0.024 A 
ATOM      7  C   UNL     1      -3.278   4.934   1.124  0.00  0.00    +0.015 A 
ATOM      8  C   UNL     1      -3.913   6.127   1.397  0.00  0.00    +0.050 A 
ATOM      9  C   UNL     1      -3.494   7.296   0.779  0.00  0.00    +0.162 A 
ATOM     10  C   UNL     1      -2.432   7.270  -0.121  0.00  0.00    +0.162 A 
ATOM     11  C   UNL     1      -1.788   6.077  -0.395  0.00  0.00    +0.061 A 
BRANCH  10  12
ATOM     12  O   UNL     1      -2.024   8.418  -0.726  0.00  0.00    -0.491 OA
ATOM     13  C   UNL     1      -0.928   8.317  -1.637  0.00  0.00    +0.277 C 
ENDBRANCH  10  12
BRANCH   9  14
ATOM     14  O   UNL     1      -4.123   8.471   1.052  0.00  0.00    -0.491 OA
ATOM     15  C   UNL     1      -5.205   8.426   1.985  0.00  0.00    +0.277 C 
ENDBRANCH   9  14
ENDBRANCH   4   6
BRANCH   5  16
ATOM     16  N   UNL     1      -3.202   2.035   0.778  0.00  0.00    -0.295 N 
ATOM     17  H   UNL     1      -3.132   2.062   1.784  0.00  0.00    +0.163 HD
ATOM     18  H   UNL     1      -3.941   2.639   0.451  0.00  0.00    +0.163 HD
ENDBRANCH   5  16
BRANCH   1  19
ATOM     19  S   UNL     1      -1.097  -0.261  -0.164  0.00  0.00    -0.078 S 
BRANCH  19  20
ATOM     20  C   UNL     1       0.496  -0.658  -0.927  0.00  0.00    +0.133 C 
BRANCH  20  24
ATOM     21  N   UNL     1       0.038  -5.051  -3.050  0.00  0.00    -0.294 N 
ATOM     22  C   UNL     1       0.410  -4.164  -2.051  0.00  0.00    +0.163 A 
ATOM     23  N   UNL     1       0.258  -2.854  -2.006  0.00  0.00    -0.229 NA
ATOM     24  C   UNL     1       0.673  -2.154  -0.968  0.00  0.00    +0.061 A 
ATOM     25  C   UNL     1       1.269  -2.809   0.057  0.00  0.00    +0.072 A 
ATOM     26  S   UNL     1       1.195  -4.493  -0.537  0.00  0.00    -0.060 S 
ATOM     27  H   UNL     1      -0.307  -4.716  -3.893  0.00  0.00    +0.154 HD
BRANCH  21  32
ATOM     28  C   UNL     1       0.534 -10.638  -2.213  0.00  0.00    +0.044 C 
ATOM     29  C   UNL     1       0.403  -9.154  -2.435  0.00  0.00    -0.050 A 
ATOM     30  C   UNL     1       0.019  -8.331  -1.392  0.00  0.00    +0.005 A 
ATOM     31  C   UNL     1      -0.102  -6.970  -1.592  0.00  0.00    +0.023 A 
ATOM     32  C   UNL     1       0.160  -6.428  -2.844  0.00  0.00    +0.033 A 
ATOM     33  C   UNL     1       0.540  -7.258  -3.892  0.00  0.00    +0.023 A 
ATOM     34  C   UNL     1       0.665  -8.617  -3.683  0.00  0.00    +0.005 A 
ENDBRANCH  21  32
ENDBRANCH  20  24
ENDBRANCH  19  20
ENDBRANCH   1  19
TORSDOF 8
