REMARK  Name = ZINC39132447
REMARK  9 active torsions:
REMARK  status: ('A' for Active; 'I' for Inactive)
REMARK    1  A    between atoms: C_1  and  C_2
REMARK    2  A    between atoms: C_2  and  C_3
REMARK    3  A    between atoms: C_2  and  C_4
REMARK    4  A    between atoms: C_4  and  C_5
REMARK    5  A    between atoms: C_7  and  C_24
REMARK    6  A    between atoms: C_12  and  C_16
REMARK    7  A    between atoms: C_16  and  C_17
REMARK    8  A    between atoms: C_20  and  O_23
REMARK    9  A    between atoms: C_27  and  O_30
REMARK                            x       y       z     vdW  Elec       q    Type
REMARK                         _______ _______ _______ _____ _____    ______ ____
ROOT
ATOM      1  C   UNL     1       2.165  -0.079  -1.208  0.00  0.00    +0.082 C 
ATOM      2  N   UNL     1       2.621   0.594  -0.188  0.00  0.00    -0.247 NA
ATOM      3  C   UNL     1       3.906   0.977  -0.123  0.00  0.00    +0.086 C 
ATOM      4  C   UNL     1       4.790   0.685  -1.110  0.00  0.00    +0.113 C 
ATOM      5  N   UNL     1       4.391  -0.022  -2.219  0.00  0.00    -0.226 N 
ATOM      6  C   UNL     1       3.078  -0.433  -2.308  0.00  0.00    +0.149 C 
ATOM      7  N   UNL     1       2.843  -1.099  -3.412  0.00  0.00    -0.254 NA
ATOM      8  C   UNL     1       4.101  -1.171  -4.168  0.00  0.00    +0.198 C 
ATOM      9  C   UNL     1       5.090  -0.417  -3.304  0.00  0.00    +0.250 C 
ATOM     10  O   UNL     1       6.264  -0.221  -3.532  0.00  0.00    -0.273 OA
ENDROOT
BRANCH   3  11
ATOM     11  C   UNL     1       4.371   1.742   1.060  0.00  0.00    +0.002 A 
ATOM     12  C   UNL     1       5.700   2.155   1.146  0.00  0.00    +0.013 A 
ATOM     13  C   UNL     1       6.130   2.865   2.247  0.00  0.00    +0.046 A 
ATOM     14  C   UNL     1       5.241   3.170   3.269  0.00  0.00    +0.117 A 
ATOM     15  C   UNL     1       3.917   2.760   3.186  0.00  0.00    +0.046 A 
ATOM     16  C   UNL     1       3.480   2.053   2.085  0.00  0.00    +0.013 A 
BRANCH  14  17
ATOM     17  O   UNL     1       5.668   3.869   4.353  0.00  0.00    -0.507 OA
ATOM     18  H   UNL     1       5.582   4.828   4.260  0.00  0.00    +0.292 HD
ENDBRANCH  14  17
ENDBRANCH   3  11
BRANCH   1  19
ATOM     19  C   UNL     1       0.718  -0.497  -1.257  0.00  0.00    +0.062 C 
BRANCH  19  21
ATOM     20  C   UNL     1      -0.019   1.526   0.010  0.00  0.00    +0.007 C 
ATOM     21  C   UNL     1       0.002  -0.004   0.002  0.00  0.00    -0.011 C 
ATOM     22  C   UNL     1      -1.433  -0.534   0.013  0.00  0.00    +0.007 C 
ENDBRANCH  19  21
ENDBRANCH   1  19
BRANCH   8  23
ATOM     23  C   UNL     1       4.533  -2.627  -4.355  0.00  0.00    +0.071 C 
BRANCH  23  24
ATOM     24  C   UNL     1       3.543  -3.334  -5.244  0.00  0.00    -0.045 A 
ATOM     25  C   UNL     1       2.445  -3.966  -4.690  0.00  0.00    +0.007 A 
ATOM     26  C   UNL     1       1.536  -4.616  -5.503  0.00  0.00    +0.045 A 
ATOM     27  C   UNL     1       1.726  -4.632  -6.877  0.00  0.00    +0.117 A 
ATOM     28  C   UNL     1       2.828  -3.997  -7.431  0.00  0.00    +0.045 A 
ATOM     29  C   UNL     1       3.731  -3.345  -6.614  0.00  0.00    +0.007 A 
BRANCH  27  30
ATOM     30  O   UNL     1       0.834  -5.271  -7.679  0.00  0.00    -0.507 OA
ATOM     31  H   UNL     1       0.108  -4.709  -7.985  0.00  0.00    +0.292 HD
ENDBRANCH  27  30
ENDBRANCH  23  24
ENDBRANCH   8  23
TORSDOF 7
