REMARK  Name = ZINC39877732
REMARK  10 active torsions:
REMARK  status: ('A' for Active; 'I' for Inactive)
REMARK    1  A    between atoms: C_1  and  C_2
REMARK    2  A    between atoms: C_2  and  O_3
REMARK    3  A    between atoms: O_3  and  C_4
REMARK    4  A    between atoms: C_6  and  C_11
REMARK    5  A    between atoms: C_9  and  O_10
REMARK    6  A    between atoms: C_18  and  C_36
REMARK    7  A    between atoms: C_19  and  C_35
REMARK    8  A    between atoms: N_26  and  C_27
REMARK    9  A    between atoms: C_30  and  O_33
REMARK   10  A    between atoms: O_33  and  C_34
REMARK                            x       y       z     vdW  Elec       q    Type
REMARK                         _______ _______ _______ _____ _____    ______ ____
ROOT
ATOM      1  C   UNL     1      -0.217  -4.963  -0.535  0.00  0.00    +0.150 C 
ATOM      2  C   UNL     1       0.860  -5.496  -1.422  0.00  0.00    +0.072 A 
ATOM      3  C   UNL     1       1.796  -4.815  -2.322  0.00  0.00    +0.199 A 
ATOM      4  O   UNL     1       1.936  -3.605  -2.347  0.00  0.00    -0.287 OA
ATOM      5  C   UNL     1       2.555  -5.740  -3.201  0.00  0.00    +0.065 A 
ATOM      6  C   UNL     1       3.334  -5.242  -4.245  0.00  0.00    +0.019 A 
ATOM      7  C   UNL     1       4.024  -6.107  -5.048  0.00  0.00    -0.047 A 
ATOM      8  C   UNL     1       3.950  -7.476  -4.827  0.00  0.00    -0.044 A 
ATOM      9  C   UNL     1       3.187  -7.984  -3.800  0.00  0.00    +0.050 A 
ATOM     10  C   UNL     1       2.476  -7.122  -2.965  0.00  0.00    +0.140 A 
ATOM     11  O   UNL     1       1.741  -7.643  -1.956  0.00  0.00    -0.450 OA
ATOM     12  C   UNL     1       0.874  -6.856  -1.289  0.00  0.00    +0.199 A 
ATOM     13  C   UNL     1      -0.179  -7.237  -0.333  0.00  0.00    +0.287 C 
ATOM     14  O   UNL     1      -0.433  -8.377   0.005  0.00  0.00    -0.266 OA
ATOM     15  N   UNL     1      -0.823  -6.137   0.113  0.00  0.00    -0.253 N 
ATOM     16  C   UNL     1       4.714  -8.416  -5.723  0.00  0.00    +0.044 C 
ATOM     17  C   UNL     1       4.867  -5.574  -6.177  0.00  0.00    +0.044 C 
ENDROOT
BRANCH   1  20
ATOM     18  C   UNL     1       0.802  -1.825   1.306  0.00  0.00    +0.162 A 
ATOM     19  C   UNL     1       0.261  -2.673   0.353  0.00  0.00    +0.055 A 
ATOM     20  C   UNL     1       0.372  -4.043   0.502  0.00  0.00    -0.018 A 
ATOM     21  C   UNL     1       1.024  -4.570   1.602  0.00  0.00    +0.009 A 
ATOM     22  C   UNL     1       1.566  -3.730   2.557  0.00  0.00    +0.049 A 
ATOM     23  C   UNL     1       1.462  -2.356   2.410  0.00  0.00    +0.158 A 
BRANCH  23  24
ATOM     24  O   UNL     1       2.000  -1.528   3.345  0.00  0.00    -0.503 OA
ATOM     25  H   UNL     1       1.395  -1.301   4.064  0.00  0.00    +0.292 HD
ENDBRANCH  23  24
BRANCH  18  26
ATOM     26  O   UNL     1       0.693  -0.477   1.160  0.00  0.00    -0.489 OA
BRANCH  26  28
ATOM     27  C   UNL     1      -0.019   1.526   0.010  0.00  0.00    +0.048 C 
ATOM     28  C   UNL     1       0.002  -0.004   0.002  0.00  0.00    +0.226 C 
ENDBRANCH  26  28
ENDBRANCH  18  26
ENDBRANCH   1  20
BRANCH  15  29
ATOM     29  C   UNL     1      -1.879  -6.116   1.031  0.00  0.00    +0.038 A 
ATOM     30  C   UNL     1      -2.454  -4.907   1.401  0.00  0.00    +0.027 A 
ATOM     31  C   UNL     1      -3.496  -4.887   2.307  0.00  0.00    +0.047 A 
ATOM     32  C   UNL     1      -3.968  -6.074   2.848  0.00  0.00    +0.120 A 
ATOM     33  C   UNL     1      -3.394  -7.282   2.479  0.00  0.00    +0.047 A 
ATOM     34  C   UNL     1      -2.356  -7.305   1.569  0.00  0.00    +0.027 A 
BRANCH  32  35
ATOM     35  O   UNL     1      -4.994  -6.054   3.740  0.00  0.00    -0.495 OA
ATOM     36  C   UNL     1      -5.430  -7.313   4.257  0.00  0.00    +0.277 C 
ENDBRANCH  32  35
ENDBRANCH  15  29
TORSDOF 6
