REMARK  Name = ZINC04878003
REMARK  4 active torsions:
REMARK  status: ('A' for Active; 'I' for Inactive)
REMARK    1  A    between atoms: C_5  and  C_7
REMARK    2  A    between atoms: C_11  and  S_13
REMARK    3  A    between atoms: S_13  and  C_14
REMARK    4  A    between atoms: C_14  and  C_15
REMARK                            x       y       z     vdW  Elec       q    Type
REMARK                         _______ _______ _______ _____ _____    ______ ____
ROOT
ATOM      1  C   UNL     1       1.245  -2.166  -0.022  0.00  0.00    +0.185 A 
ATOM      2  N   UNL     1       2.327  -2.911  -0.032  0.00  0.00    -0.151 NA
ATOM      3  H   UNL     1       2.468  -5.037  -0.044  0.00  0.00    +0.191 HD
ATOM      4  N   UNL     1       1.903  -4.249  -0.037  0.00  0.00    -0.253 N 
ATOM      5  C   UNL     1       0.551  -4.223  -0.031  0.00  0.00    +0.185 A 
ATOM      6  N   UNL     1       0.168  -2.965  -0.016  0.00  0.00    -0.201 NA
ENDROOT
BRANCH   1  11
ATOM      7  C   UNL     1      -0.017   1.376   0.010  0.00  0.00    +0.001 A 
ATOM      8  C   UNL     1       1.170   2.087   0.002  0.00  0.00    +0.003 A 
ATOM      9  C   UNL     1       2.382   1.422  -0.013  0.00  0.00    +0.039 A 
ATOM     10  C   UNL     1       2.413   0.040  -0.021  0.00  0.00    +0.134 A 
ATOM     11  C   UNL     1       1.219  -0.682  -0.013  0.00  0.00    +0.056 A 
ATOM     12  C   UNL     1       0.002  -0.004   0.002  0.00  0.00    +0.014 A 
ATOM     13  F   UNL     1       3.598  -0.611  -0.037  0.00  0.00    -0.205 F 
ENDBRANCH   1  11
BRANCH   5  14
ATOM     14  S   UNL     1      -0.512  -5.628  -0.034  0.00  0.00    -0.080 S 
BRANCH  14  15
ATOM     15  C   UNL     1      -2.180  -4.916  -0.022  0.00  0.00    +0.133 C 
BRANCH  15  16
ATOM     16  C   UNL     1      -3.200  -6.026  -0.023  0.00  0.00    +0.059 A 
ATOM     17  C   UNL     1      -3.899  -6.338   1.123  0.00  0.00    +0.095 A 
ATOM     18  C   UNL     1      -4.839  -7.369   1.102  0.00  0.00    +0.259 A 
ATOM     19  O   UNL     1      -5.462  -7.649   2.115  0.00  0.00    -0.267 OA
ATOM     20  N   UNL     1      -5.063  -8.064  -0.052  0.00  0.00    -0.262 N 
ATOM     21  C   UNL     1      -5.950  -9.098  -0.231  0.00  0.00    +0.104 A 
ATOM     22  C   UNL     1      -6.077  -9.699  -1.413  0.00  0.00    +0.067 A 
ATOM     23  S   UNL     1      -4.895  -8.803  -2.408  0.00  0.00    -0.058 S 
ATOM     24  C   UNL     1      -4.325  -7.689  -1.143  0.00  0.00    +0.180 A 
ATOM     25  N   UNL     1      -3.445  -6.719  -1.132  0.00  0.00    -0.227 NA
ENDBRANCH  15  16
ENDBRANCH  14  15
ENDBRANCH   5  14
TORSDOF 4
