REMARK  Name = ZINC39528988
REMARK  9 active torsions:
REMARK  status: ('A' for Active; 'I' for Inactive)
REMARK    1  A    between atoms: C_1  and  C_2
REMARK    2  A    between atoms: C_2  and  C_3
REMARK    3  A    between atoms: C_3  and  C_4
REMARK    4  A    between atoms: C_6  and  C_27
REMARK    5  A    between atoms: C_9  and  N_10
REMARK    6  A    between atoms: C_14  and  S_17
REMARK    7  A    between atoms: S_17  and  O_20
REMARK    8  A    between atoms: O_20  and  C_21
REMARK    9  A    between atoms: C_27  and  C_28
REMARK                            x       y       z     vdW  Elec       q    Type
REMARK                         _______ _______ _______ _____ _____    ______ ____
ROOT
ATOM      1  N   UNL     1      -1.268  -2.184   2.855  0.00  0.00    -0.331 N 
ATOM      2  C   UNL     1      -2.413  -1.735   3.664  0.00  0.00    +0.086 C 
ATOM      3  C   UNL     1      -2.316  -0.216   3.842  0.00  0.00    -0.061 C 
ATOM      4  N   UNL     1      -1.004   0.127   4.405  0.00  0.00    +0.398 N 
ATOM      5  C   UNL     1       0.057  -0.228   3.454  0.00  0.00    +0.133 C 
ATOM      6  C   UNL     1       0.078  -1.752   3.260  0.00  0.00    +0.115 C 
ATOM      7  H   UNL     1      -0.968   1.117   4.593  0.00  0.00    -0.083 HD
ATOM      8  H   UNL     1      -0.865  -0.381   5.266  0.00  0.00    -0.083 HD
ENDROOT
BRANCH   1  14
ATOM      9  C   UNL     1      -1.651  -2.434   0.486  0.00  0.00    -0.026 A 
ATOM     10  C   UNL     1      -1.830  -3.246  -0.618  0.00  0.00    +0.009 A 
ATOM     11  C   UNL     1      -1.820  -4.621  -0.475  0.00  0.00    -0.043 A 
ATOM     12  C   UNL     1      -1.631  -5.189   0.771  0.00  0.00    +0.006 A 
ATOM     13  C   UNL     1      -1.451  -4.384   1.879  0.00  0.00    +0.023 A 
ATOM     14  C   UNL     1      -1.455  -3.001   1.738  0.00  0.00    +0.033 A 
BRANCH   9  15
ATOM     15  C   UNL     1      -1.663  -0.935   0.330  0.00  0.00    +0.037 C 
BRANCH  15  17
ATOM     16  C   UNL     1      -0.241   1.094   0.014  0.00  0.00    +0.004 C 
ATOM     17  C   UNL     1      -0.229  -0.428   0.172  0.00  0.00    +0.001 C 
ENDBRANCH  15  17
ENDBRANCH   9  15
BRANCH  11  18
ATOM     18  C   UNL     1      -2.016  -5.503  -1.681  0.00  0.00    +0.070 C 
BRANCH  18  19
ATOM     19  C   UNL     1      -0.678  -5.809  -2.303  0.00  0.00    -0.043 A 
ATOM     20  C   UNL     1      -0.162  -4.976  -3.277  0.00  0.00    +0.004 A 
ATOM     21  C   UNL     1       1.066  -5.257  -3.848  0.00  0.00    +0.000 A 
ATOM     22  C   UNL     1       1.777  -6.371  -3.443  0.00  0.00    +0.000 A 
ATOM     23  C   UNL     1       1.261  -7.204  -2.467  0.00  0.00    +0.000 A 
ATOM     24  C   UNL     1       0.036  -6.920  -1.894  0.00  0.00    +0.004 A 
ENDBRANCH  18  19
ENDBRANCH  11  18
ENDBRANCH   1  14
BRANCH   5  25
ATOM     25  S   UNL     1       1.660   0.319   4.104  0.00  0.00    +0.109 S 
ATOM     26  O   UNL     1       1.909  -0.286   5.365  0.00  0.00    -0.138 OA
ATOM     27  O   UNL     1       2.642   0.285   3.077  0.00  0.00    -0.138 OA
BRANCH  25  28
ATOM     28  O   UNL     1       1.473   1.798   4.412  0.00  0.00    -0.347 OA
BRANCH  28  29
ATOM     29  C   UNL     1       1.481   2.597   3.313  0.00  0.00    +0.156 A 
ATOM     30  C   UNL     1       2.685   3.029   2.777  0.00  0.00    +0.048 A 
ATOM     31  C   UNL     1       2.691   3.841   1.660  0.00  0.00    +0.004 A 
ATOM     32  C   UNL     1       1.497   4.224   1.076  0.00  0.00    +0.000 A 
ATOM     33  C   UNL     1       0.296   3.795   1.609  0.00  0.00    +0.004 A 
ATOM     34  C   UNL     1       0.285   2.978   2.723  0.00  0.00    +0.048 A 
ENDBRANCH  28  29
ENDBRANCH  25  28
ENDBRANCH   5  25
TORSDOF 8
