REMARK  Name = ZINC35593880
REMARK  8 active torsions:
REMARK  status: ('A' for Active; 'I' for Inactive)
REMARK    1  A    between atoms: C_4  and  N_7
REMARK    2  A    between atoms: C_8  and  C_10
REMARK    3  A    between atoms: C_10  and  C_11
REMARK    4  A    between atoms: C_11  and  N_12
REMARK    5  A    between atoms: N_12  and  C_13
REMARK    6  A    between atoms: C_13  and  C_14
REMARK    7  A    between atoms: C_19  and  C_21
REMARK    8  A    between atoms: N_26  and  C_27
REMARK                            x       y       z     vdW  Elec       q    Type
REMARK                         _______ _______ _______ _____ _____    ______ ____
ROOT
ATOM      1  N   UNL     1       5.956  -4.967   0.343  0.00  0.00    -0.288 N 
ATOM      2  C   UNL     1       6.638  -5.280  -0.777  0.00  0.00    +0.266 C 
ATOM      3  O   UNL     1       7.652  -5.947  -0.704  0.00  0.00    -0.268 OA
ENDROOT
BRANCH   2   4
ATOM      4  C   UNL     1       6.156  -4.815  -2.087  0.00  0.00    +0.135 A 
ATOM      5  C   UNL     1       6.775  -5.223  -3.242  0.00  0.00    +0.081 A 
ATOM      6  S   UNL     1       5.791  -4.370  -4.467  0.00  0.00    -0.060 S 
ATOM      7  C   UNL     1       4.667  -3.564  -3.336  0.00  0.00    +0.163 A 
ATOM      8  N   UNL     1       5.107  -3.994  -2.170  0.00  0.00    -0.220 NA
ATOM      9  N   UNL     1       3.607  -2.715  -3.612  0.00  0.00    -0.291 N 
ATOM     10  H   UNL     1       3.127  -2.287  -2.886  0.00  0.00    +0.154 HD
BRANCH   9  11
ATOM     11  C   UNL     1       3.230  -2.475  -4.938  0.00  0.00    +0.068 A 
ATOM     12  C   UNL     1       3.335  -3.485  -5.885  0.00  0.00    +0.026 A 
ATOM     13  C   UNL     1       2.962  -3.245  -7.193  0.00  0.00    +0.002 A 
ATOM     14  C   UNL     1       2.483  -2.001  -7.561  0.00  0.00    +0.003 A 
ATOM     15  C   UNL     1       2.377  -0.992  -6.621  0.00  0.00    +0.040 A 
ATOM     16  C   UNL     1       2.744  -1.226  -5.309  0.00  0.00    +0.144 A 
ATOM     17  F   UNL     1       2.634  -0.242  -4.390  0.00  0.00    -0.204 F 
ENDBRANCH   9  11
ENDBRANCH   2   4
BRANCH   1  18
ATOM     18  C   UNL     1       4.673  -4.266   0.246  0.00  0.00    +0.118 C 
BRANCH  18  19
ATOM     19  C   UNL     1       4.920  -2.759   0.157  0.00  0.00    +0.115 C 
BRANCH  19  21
ATOM     20  N   UNL     1       3.571  -0.694  -0.031  0.00  0.00    -0.285 N 
ATOM     21  C   UNL     1       3.600  -2.038   0.058  0.00  0.00    +0.219 C 
ATOM     22  O   UNL     1       2.564  -2.668   0.059  0.00  0.00    -0.275 OA
ATOM     23  H   UNL     1       4.399  -0.196  -0.118  0.00  0.00    +0.155 HD
BRANCH  20  27
ATOM     24  C   UNL     1      -0.072   1.324   0.070  0.00  0.00    +0.000 A 
ATOM     25  C   UNL     1       0.048   0.086   0.675  0.00  0.00    +0.002 A 
ATOM     26  C   UNL     1       1.255  -0.585   0.643  0.00  0.00    +0.023 A 
ATOM     27  C   UNL     1       2.348  -0.016   0.003  0.00  0.00    +0.033 A 
ATOM     28  C   UNL     1       2.224   1.226  -0.604  0.00  0.00    +0.023 A 
ATOM     29  C   UNL     1       1.014   1.893  -0.569  0.00  0.00    +0.002 A 
ENDBRANCH  20  27
ENDBRANCH  19  21
ENDBRANCH  18  19
ENDBRANCH   1  18
BRANCH   1  30
ATOM     30  C   UNL     1       6.497  -5.327   1.655  0.00  0.00    +0.182 C 
BRANCH  30  31
ATOM     31  C   UNL     1       5.910  -6.642   2.097  0.00  0.00    +0.122 A 
ATOM     32  C   UNL     1       6.429  -7.858   1.848  0.00  0.00    +0.046 A 
ATOM     33  C   UNL     1       5.561  -8.803   2.442  0.00  0.00    +0.041 A 
ATOM     34  C   UNL     1       4.564  -8.108   3.019  0.00  0.00    +0.195 A 
ATOM     35  O   UNL     1       4.784  -6.799   2.811  0.00  0.00    -0.466 OA
ENDBRANCH  30  31
ENDBRANCH   1  30
TORSDOF 8
