REMARK  Name = ZINC13498643
REMARK  11 active torsions:
REMARK  status: ('A' for Active; 'I' for Inactive)
REMARK    1  A    between atoms: C_1  and  C_2
REMARK    2  A    between atoms: C_2  and  C_3
REMARK    3  A    between atoms: C_2  and  C_4
REMARK    4  A    between atoms: C_4  and  C_6
REMARK    5  A    between atoms: C_4  and  N_76
REMARK    6  A    between atoms: N_10  and  C_11
REMARK    7  A    between atoms: C_17  and  C_18
REMARK    8  A    between atoms: C_17  and  N_76
REMARK    9  A    between atoms: C_22  and  O_30
REMARK   10  A    between atoms: O_30  and  C_31
REMARK   11  A    between atoms: C_32  and  N_76
REMARK                            x       y       z     vdW  Elec       q    Type
REMARK                         _______ _______ _______ _____ _____    ______ ____
ROOT
ATOM      1  N   UNL     1       1.082   3.981  -1.145  0.00  0.00    +0.391 N 
ATOM      2  H   UNL     1       0.129   3.946  -0.764  0.00  0.00    -0.080 HD
ENDROOT
BRANCH   1   3
ATOM      3  C   UNL     1       1.102   3.292  -2.453  0.00  0.00    -0.067 C 
ATOM      4  C   UNL     1       2.537   2.939  -2.850  0.00  0.00    -0.015 C 
ATOM      5  C   UNL     1       2.530   2.221  -4.201  0.00  0.00    -0.002 C 
ATOM      6  C   UNL     1       1.917   3.138  -5.263  0.00  0.00    -0.000 C 
ATOM      7  C   UNL     1       0.482   3.490  -4.865  0.00  0.00    -0.002 C 
ATOM      8  C   UNL     1       0.489   4.208  -3.514  0.00  0.00    -0.015 C 
ENDBRANCH   1   3
BRANCH   1   9
ATOM      9  C   UNL     1       2.000   3.305  -0.204  0.00  0.00    +0.006 C 
BRANCH   9  10
ATOM     10  C   UNL     1       2.044   1.831  -0.518  0.00  0.00    +0.139 A 
ATOM     11  N   UNL     1       1.023   1.063  -0.810  0.00  0.00    -0.115 NA
ATOM     12  N   UNL     1       1.468  -0.129  -1.014  0.00  0.00    -0.023 NA
ATOM     13  N   UNL     1       2.746  -0.141  -0.861  0.00  0.00    -0.044 NA
ATOM     14  N   UNL     1       3.139   1.050  -0.554  0.00  0.00    -0.228 N 
BRANCH  14  15
ATOM     15  C   UNL     1       4.518   1.471  -0.293  0.00  0.00    +0.111 C 
ATOM     16  C   UNL     1       5.375   1.207  -1.533  0.00  0.00    +0.027 C 
ATOM     17  C   UNL     1       6.814   1.647  -1.261  0.00  0.00    +0.002 C 
ATOM     18  C   UNL     1       7.374   0.856  -0.077  0.00  0.00    +0.000 C 
ATOM     19  C   UNL     1       6.517   1.120   1.163  0.00  0.00    +0.002 C 
ATOM     20  C   UNL     1       5.077   0.680   0.891  0.00  0.00    +0.027 C 
ENDBRANCH  14  15
ENDBRANCH   9  10
BRANCH   9  22
ATOM     21  C   UNL     1       1.202   4.994   1.454  0.00  0.00    +0.006 C 
ATOM     22  C   UNL     1       1.476   3.508   1.219  0.00  0.00    -0.024 C 
ATOM     23  C   UNL     1       0.180   2.715   1.403  0.00  0.00    +0.006 C 
ENDBRANCH   9  22
ENDBRANCH   1   9
BRANCH   1  24
ATOM     24  C   UNL     1       1.480   5.394  -1.312  0.00  0.00    -0.036 C 
BRANCH  24  25
ATOM     25  C   UNL     1       2.911   5.489  -1.777  0.00  0.00    +0.001 A 
ATOM     26  C   UNL     1       3.183   5.684  -3.091  0.00  0.00    +0.017 A 
ATOM     27  C   UNL     1       4.583   5.776  -3.510  0.00  0.00    +0.002 A 
ATOM     28  C   UNL     1       4.923   5.984  -4.851  0.00  0.00    +0.055 A 
ATOM     29  C   UNL     1       6.253   6.061  -5.212  0.00  0.00    +0.121 A 
ATOM     30  C   UNL     1       7.252   5.934  -4.249  0.00  0.00    +0.047 A 
ATOM     31  C   UNL     1       6.929   5.729  -2.926  0.00  0.00    +0.030 A 
ATOM     32  C   UNL     1       5.595   5.648  -2.540  0.00  0.00    +0.049 A 
ATOM     33  N   UNL     1       5.251   5.445  -1.219  0.00  0.00    -0.322 N 
ATOM     34  H   UNL     1       5.950   5.357  -0.552  0.00  0.00    +0.169 HD
ATOM     35  C   UNL     1       3.963   5.367  -0.844  0.00  0.00    +0.251 A 
ATOM     36  O   UNL     1       3.696   5.187   0.332  0.00  0.00    -0.268 OA
BRANCH  29  37
ATOM     37  O   UNL     1       6.590   6.262  -6.514  0.00  0.00    -0.495 OA
ATOM     38  C   UNL     1       7.984   6.333  -6.820  0.00  0.00    +0.277 C 
ENDBRANCH  29  37
ENDBRANCH  24  25
ENDBRANCH   1  24
TORSDOF 8
