REMARK  Name = ZINC45920212
REMARK  4 active torsions:
REMARK  status: ('A' for Active; 'I' for Inactive)
REMARK    1  A    between atoms: C_1  and  O_2
REMARK    2  A    between atoms: O_2  and  C_3
REMARK    3  A    between atoms: C_11  and  C_13
REMARK    4  A    between atoms: C_16  and  N_20
REMARK                            x       y       z     vdW  Elec       q    Type
REMARK                         _______ _______ _______ _____ _____    ______ ____
ROOT
ATOM      1  C   UNL     1      -1.201  -0.638   0.010  0.00  0.00    +0.123 A 
ATOM      2  C   UNL     1      -1.251  -2.019   0.009  0.00  0.00    +0.077 A 
ATOM      3  C   UNL     1      -2.488  -2.667   0.017  0.00  0.00    +0.114 A 
ATOM      4  C   UNL     1      -3.670  -1.909   0.027  0.00  0.00    +0.170 A 
ATOM      5  C   UNL     1      -3.603  -0.524   0.028  0.00  0.00    +0.066 A 
ATOM      6  C   UNL     1      -2.376   0.107   0.025  0.00  0.00    +0.064 A 
ATOM      7 BR   UNL     1      -5.193   0.500   0.041  0.00  0.00    -0.046 Br
ATOM      8  O   UNL     1      -4.692  -2.795   0.033  0.00  0.00    -0.434 OA
ATOM      9  C   UNL     1      -4.170  -4.036   0.028  0.00  0.00    +0.230 A 
ATOM     10  N   UNL     1      -2.861  -3.972   0.018  0.00  0.00    -0.209 NA
ENDROOT
BRANCH   9  11
ATOM     11  C   UNL     1      -4.956  -5.286   0.033  0.00  0.00    +0.055 A 
ATOM     12  C   UNL     1      -4.306  -6.522   0.033  0.00  0.00    +0.016 A 
ATOM     13  C   UNL     1      -5.042  -7.686   0.037  0.00  0.00    +0.023 A 
ATOM     14  C   UNL     1      -6.432  -7.632   0.042  0.00  0.00    +0.026 A 
ATOM     15  C   UNL     1      -7.084  -6.403   0.042  0.00  0.00    +0.043 A 
ATOM     16  C   UNL     1      -6.353  -5.234   0.043  0.00  0.00    +0.055 A 
ATOM     17 CL   UNL     1      -7.167  -3.701   0.051  0.00  0.00    -0.083 Cl
BRANCH  14  18
ATOM     18  N   UNL     1      -7.173  -8.812   0.045  0.00  0.00    -0.358 N 
ATOM     19  H   UNL     1      -6.720  -9.669   0.045  0.00  0.00    +0.142 HD
ATOM     20  H   UNL     1      -8.143  -8.775   0.049  0.00  0.00    +0.142 HD
ENDBRANCH  14  18
ENDBRANCH   9  11
BRANCH   1  22
ATOM     21  C   UNL     1      -0.017   1.425   0.010  0.00  0.00    +0.277 C 
ATOM     22  O   UNL     1       0.002  -0.004   0.002  0.00  0.00    -0.495 OA
ENDBRANCH   1  22
TORSDOF 3
