REMARK  Name = ZINC39979529
REMARK  6 active torsions:
REMARK  status: ('A' for Active; 'I' for Inactive)
REMARK    1  A    between atoms: C_1  and  O_2
REMARK    2  A    between atoms: O_2  and  C_3
REMARK    3  A    between atoms: N_11  and  C_12
REMARK    4  A    between atoms: C_12  and  C_14
REMARK    5  A    between atoms: C_14  and  S_15
REMARK    6  A    between atoms: S_15  and  C_16
REMARK                            x       y       z     vdW  Elec       q    Type
REMARK                         _______ _______ _______ _____ _____    ______ ____
ROOT
ATOM      1  C   UNL     1       3.411  -4.449  -6.159  0.00  0.00    +0.248 C 
ATOM      2  O   UNL     1       3.532  -3.260  -6.387  0.00  0.00    -0.273 OA
ENDROOT
BRANCH   1  11
ATOM      3  C   UNL     1       0.587  -0.609  -1.066  0.00  0.00    +0.121 A 
ATOM      4  C   UNL     1       1.166   0.154  -2.072  0.00  0.00    +0.048 A 
ATOM      5  C   UNL     1       1.788  -0.440  -3.146  0.00  0.00    +0.030 A 
ATOM      6  C   UNL     1       1.852  -1.836  -3.252  0.00  0.00    +0.055 A 
ATOM      7  C   UNL     1       1.261  -2.584  -2.224  0.00  0.00    +0.042 A 
ATOM      8  C   UNL     1       0.643  -1.994  -1.147  0.00  0.00    +0.062 A 
ATOM      9  S   UNL     1       1.554  -4.260  -2.724  0.00  0.00    -0.052 S 
ATOM     10  C   UNL     1       2.381  -3.963  -4.156  0.00  0.00    +0.164 A 
ATOM     11  N   UNL     1       2.878  -4.855  -5.012  0.00  0.00    -0.156 NA
ATOM     12  N   UNL     1       2.428  -2.611  -4.244  0.00  0.00    -0.335 N 
ATOM     13  H   UNL     1       2.863  -2.187  -5.000  0.00  0.00    +0.168 HD
BRANCH   3  15
ATOM     14  C   UNL     1      -0.040   1.423  -0.001  0.00  0.00    +0.277 C 
ATOM     15  O   UNL     1      -0.024  -0.006  -0.011  0.00  0.00    -0.495 OA
ENDBRANCH   3  15
ENDBRANCH   1  11
BRANCH   1  16
ATOM     16  C   UNL     1       3.865  -5.461  -7.179  0.00  0.00    +0.170 C 
BRANCH  16  17
ATOM     17  S   UNL     1       4.542  -4.601  -8.625  0.00  0.00    -0.104 S 
BRANCH  17  18
ATOM     18  C   UNL     1       5.036  -5.942  -9.742  0.00  0.00    +0.276 C 
ATOM     19  N   UNL     1       5.984  -6.848  -9.072  0.00  0.00    -0.155 NA
ATOM     20  N   UNL     1       5.708  -8.034  -9.306  0.00  0.00    -0.155 NA
ATOM     21  C   UNL     1       4.578  -8.116 -10.229  0.00  0.00    +0.280 C 
ATOM     22  N   UNL     1       3.881  -6.801 -10.062  0.00  0.00    -0.265 N 
ATOM     23  C   UNL     1       2.496  -6.873 -10.207  0.00  0.00    +0.048 A 
ATOM     24  C   UNL     1       1.639  -5.833 -10.597  0.00  0.00    +0.024 A 
ATOM     25  C   UNL     1       0.278  -6.022 -10.669  0.00  0.00    +0.002 A 
ATOM     26  C   UNL     1      -0.293  -7.243 -10.361  0.00  0.00    +0.001 A 
ATOM     27  C   UNL     1       0.530  -8.294  -9.988  0.00  0.00    +0.016 A 
ATOM     28  C   UNL     1       1.889  -8.109  -9.930  0.00  0.00    +0.033 A 
ATOM     29  S   UNL     1       3.269  -9.232  -9.581  0.00  0.00    -0.076 S 
ENDBRANCH  17  18
ENDBRANCH  16  17
ENDBRANCH   1  16
TORSDOF 5
