REMARK  Name = ZINC12280027
REMARK  15 active torsions:
REMARK  status: ('A' for Active; 'I' for Inactive)
REMARK    1  A    between atoms: C_1  and  C_2
REMARK    2  A    between atoms: C_6  and  C_7
REMARK    3  A    between atoms: N_9  and  C_10
REMARK    4  A    between atoms: N_9  and  C_19
REMARK    5  A    between atoms: C_10  and  C_11
REMARK    6  A    between atoms: C_11  and  C_12
REMARK    7  A    between atoms: C_12  and  N_13
REMARK    8  A    between atoms: C_19  and  C_20
REMARK    9  A    between atoms: C_23  and  O_34
REMARK   10  A    between atoms: C_26  and  O_32
REMARK   11  A    between atoms: C_28  and  N_29
REMARK   12  A    between atoms: N_29  and  C_30
REMARK   13  A    between atoms: N_29  and  C_31
REMARK   14  A    between atoms: O_32  and  C_33
REMARK   15  A    between atoms: O_34  and  C_35
REMARK                            x       y       z     vdW  Elec       q    Type
REMARK                         _______ _______ _______ _____ _____    ______ ____
ROOT
ATOM      1  C   UNL     1       2.503   5.720  -0.233  0.00  0.00    +0.146 C 
ENDROOT
BRANCH   1   2
ATOM      2  C   UNL     1       2.710   6.054  -1.688  0.00  0.00    +0.009 A 
ATOM      3  C   UNL     1       3.872   5.707  -2.309  0.00  0.00    +0.022 A 
ATOM      4  C   UNL     1       4.026   6.037  -3.670  0.00  0.00    +0.044 A 
ATOM      5  C   UNL     1       5.201   5.707  -4.372  0.00  0.00    +0.129 A 
ATOM      6  C   UNL     1       5.315   6.047  -5.702  0.00  0.00    +0.050 A 
ATOM      7  C   UNL     1       4.281   6.712  -6.356  0.00  0.00    +0.051 A 
ATOM      8  C   UNL     1       3.131   7.045  -5.699  0.00  0.00    +0.144 A 
ATOM      9  C   UNL     1       2.978   6.714  -4.338  0.00  0.00    +0.093 A 
ATOM     10  C   UNL     1       1.706   6.718  -2.405  0.00  0.00    +0.104 A 
ATOM     11  N   UNL     1       1.803   7.067  -3.712  0.00  0.00    -0.340 N 
ATOM     12  H   UNL     1       1.049   7.561  -4.204  0.00  0.00    +0.167 HD
BRANCH  10  13
ATOM     13  N   UNL     1       0.526   7.061  -1.761  0.00  0.00    -0.322 N 
ATOM     14  C   UNL     1       0.577   8.444  -1.269  0.00  0.00    +0.130 C 
ATOM     15  C   UNL     1      -0.633   6.857  -2.640  0.00  0.00    +0.130 C 
ENDBRANCH  10  13
BRANCH   8  16
ATOM     16  O   UNL     1       2.135   7.695  -6.358  0.00  0.00    -0.493 OA
ATOM     17  C   UNL     1       2.360   7.999  -7.736  0.00  0.00    +0.277 C 
ENDBRANCH   8  16
BRANCH   5  18
ATOM     18  O   UNL     1       6.215   5.057  -3.743  0.00  0.00    -0.494 OA
ATOM     19  C   UNL     1       7.375   4.756  -4.522  0.00  0.00    +0.277 C 
ENDBRANCH   5  18
ENDBRANCH   1   2
BRANCH   1  22
ATOM     20  C   UNL     1       2.385   3.298   0.007  0.00  0.00    +0.254 C 
ATOM     21  O   UNL     1       3.598   3.276   0.100  0.00  0.00    -0.269 OA
ATOM     22  N   UNL     1       1.740   4.474  -0.122  0.00  0.00    -0.293 N 
BRANCH  20  28
ATOM     23  C   UNL     1       3.565   0.432  -0.035  0.00  0.00    +0.045 C 
ATOM     24  C   UNL     1       2.091   0.740   0.019  0.00  0.00    -0.031 A 
ATOM     25  C   UNL     1       1.151  -0.261   0.054  0.00  0.00    +0.011 A 
ATOM     26  C   UNL     1      -0.166   0.068   0.102  0.00  0.00    +0.046 A 
ATOM     27  S   UNL     1      -0.141   1.802   0.100  0.00  0.00    -0.092 S 
ATOM     28  C   UNL     1       1.625   2.045   0.035  0.00  0.00    +0.077 A 
ENDBRANCH  20  28
BRANCH  22  29
ATOM     29  C   UNL     1       0.275   4.508  -0.151  0.00  0.00    +0.110 C 
BRANCH  29  30
ATOM     30  C   UNL     1      -0.264   4.487   1.281  0.00  0.00    +0.038 C 
BRANCH  30  31
ATOM     31  C   UNL     1      -1.793   4.521   1.250  0.00  0.00    +0.109 C 
BRANCH  31  32
ATOM     32  N   UNL     1      -2.309   4.502   2.621  0.00  0.00    -0.301 N 
ATOM     33  C   UNL     1      -2.633   3.279   3.366  0.00  0.00    +0.108 C 
ATOM     34  C   UNL     1      -2.706   3.710   4.850  0.00  0.00    +0.028 C 
ATOM     35  C   UNL     1      -3.068   5.208   4.724  0.00  0.00    +0.097 C 
ATOM     36  C   UNL     1      -2.552   5.600   3.356  0.00  0.00    +0.216 C 
ATOM     37  O   UNL     1      -2.383   6.740   2.978  0.00  0.00    -0.276 OA
ENDBRANCH  31  32
ENDBRANCH  30  31
ENDBRANCH  29  30
ENDBRANCH  22  29
ENDBRANCH   1  22
TORSDOF 10
