REMARK  Name = ZINC14197959
REMARK  8 active torsions:
REMARK  status: ('A' for Active; 'I' for Inactive)
REMARK    1  A    between atoms: C_1  and  C_2
REMARK    2  A    between atoms: C_2  and  C_3
REMARK    3  A    between atoms: C_2  and  C_4
REMARK    4  A    between atoms: C_9  and  N_10
REMARK    5  A    between atoms: C_11  and  C_13
REMARK    6  A    between atoms: C_13  and  N_14
REMARK    7  A    between atoms: C_17  and  C_21
REMARK    8  A    between atoms: C_17  and  C_22
REMARK                            x       y       z     vdW  Elec       q    Type
REMARK                         _______ _______ _______ _____ _____    ______ ____
ROOT
ATOM      1  N   UNL     1       2.483   2.393   1.874  0.00  0.00    -0.215 N 
ATOM      2  C   UNL     1       2.158   1.237   1.262  0.00  0.00    +0.247 C 
ATOM      3  O   UNL     1       2.397   0.112   1.645  0.00  0.00    -0.273 OA
ATOM      4  C   UNL     1       1.430   1.636  -0.007  0.00  0.00    +0.113 C 
ATOM      5  N   UNL     1       1.429   3.108   0.043  0.00  0.00    -0.285 N 
ATOM      6  C   UNL     1       2.066   3.455   1.177  0.00  0.00    +0.310 C 
ATOM      7  O   UNL     1       2.242   4.605   1.527  0.00  0.00    -0.252 OA
ATOM      8  C   UNL     1       2.184   1.140  -1.243  0.00  0.00    +0.042 C 
ATOM      9  H   UNL     1       0.959   3.686  -0.766  0.00  0.00    +0.151 HD
ENDROOT
BRANCH   4  10
ATOM     10  C   UNL     1      -0.001   1.096   0.001  0.00  0.00    +0.021 C 
ATOM     11  C   UNL     1      -0.721   1.578   1.262  0.00  0.00    +0.006 C 
ATOM     12  C   UNL     1      -2.152   1.038   1.270  0.00  0.00    +0.000 C 
ATOM     13  C   UNL     1      -2.896   1.546   0.033  0.00  0.00    +0.000 C 
ATOM     14  C   UNL     1      -2.176   1.064  -1.228  0.00  0.00    +0.000 C 
ATOM     15  C   UNL     1      -0.745   1.604  -1.236  0.00  0.00    +0.006 C 
ENDBRANCH   4  10
BRANCH   1  16
ATOM     16  C   UNL     1       3.203   2.475   3.147  0.00  0.00    +0.214 C 
BRANCH  16  18
ATOM     17  N   UNL     1       2.651   2.549   5.558  0.00  0.00    -0.284 N 
ATOM     18  C   UNL     1       2.214   2.479   4.285  0.00  0.00    +0.235 C 
ATOM     19  O   UNL     1       1.024   2.418   4.054  0.00  0.00    -0.274 OA
ATOM     20  H   UNL     1       3.729   2.512   5.772  0.00  0.00    +0.155 HD
BRANCH  17  26
ATOM     21  C   UNL     1       2.071   2.231   7.880  0.00  0.00    -0.024 A 
ATOM     22  C   UNL     1       1.164   2.356   8.915  0.00  0.00    +0.006 A 
ATOM     23  C   UNL     1      -0.083   2.905   8.681  0.00  0.00    +0.000 A 
ATOM     24  C   UNL     1      -0.425   3.337   7.413  0.00  0.00    +0.002 A 
ATOM     25  C   UNL     1       0.479   3.220   6.375  0.00  0.00    +0.023 A 
ATOM     26  C   UNL     1       1.732   2.669   6.607  0.00  0.00    +0.037 A 
BRANCH  21  28
ATOM     27  C   UNL     1       4.119   2.383   9.270  0.00  0.00    +0.012 C 
ATOM     28  C   UNL     1       3.427   1.626   8.135  0.00  0.00    +0.015 C 
ATOM     29  C   UNL     1       3.265   0.156   8.527  0.00  0.00    +0.012 C 
ENDBRANCH  21  28
ENDBRANCH  17  26
ENDBRANCH  16  18
ENDBRANCH   1  16
TORSDOF 5
