REMARK  Name = ZINC12653481
REMARK  11 active torsions:
REMARK  status: ('A' for Active; 'I' for Inactive)
REMARK    1  A    between atoms: C_1  and  C_2
REMARK    2  A    between atoms: C_5  and  C_31
REMARK    3  A    between atoms: C_8  and  C_30
REMARK    4  A    between atoms: C_10  and  C_22
REMARK    5  A    between atoms: C_13  and  C_15
REMARK    6  A    between atoms: C_20  and  O_21
REMARK    7  A    between atoms: C_22  and  O_23
REMARK    8  A    between atoms: O_23  and  C_24
REMARK    9  A    between atoms: N_26  and  C_27
REMARK   10  A    between atoms: C_27  and  C_28
REMARK   11  A    between atoms: C_27  and  C_29
REMARK                            x       y       z     vdW  Elec       q    Type
REMARK                         _______ _______ _______ _____ _____    ______ ____
ROOT
ATOM      1  C   UNL     1       2.208   2.739  -6.213  0.00  0.00    +0.012 C 
ATOM      2  C   UNL     1       1.286   3.504  -5.261  0.00  0.00    +0.020 C 
ATOM      3  C   UNL     1      -0.041   2.811  -5.201  0.00  0.00    -0.024 C 
ATOM      4  C   UNL     1      -0.669   2.511  -4.110  0.00  0.00    -0.070 C 
ATOM      5  C   UNL     1      -0.120   2.807  -2.737  0.00  0.00    +0.051 C 
ATOM      6  C   UNL     1       0.883   3.965  -2.844  0.00  0.00    +0.008 C 
ATOM      7  C   UNL     1       1.937   3.574  -3.885  0.00  0.00    +0.037 C 
ATOM      8  C   UNL     1       2.592   2.252  -3.509  0.00  0.00    +0.171 C 
ATOM      9  O   UNL     1       1.613   1.238  -3.286  0.00  0.00    -0.371 OA
ATOM     10  C   UNL     1       0.656   1.562  -2.272  0.00  0.00    +0.159 C 
ATOM     11  C   UNL     1       1.554   4.196  -1.489  0.00  0.00    +0.009 C 
ATOM     12  C   UNL     1      -2.011   1.835  -4.216  0.00  0.00    +0.039 C 
ENDROOT
BRANCH  10  13
ATOM     13  C   UNL     1       1.367   1.859  -0.976  0.00  0.00    +0.023 A 
ATOM     14  C   UNL     1       2.713   1.576  -0.845  0.00  0.00    +0.010 A 
ATOM     15  C   UNL     1       3.365   1.848   0.343  0.00  0.00    +0.001 A 
ATOM     16  C   UNL     1       2.673   2.403   1.403  0.00  0.00    +0.004 A 
ATOM     17  C   UNL     1       1.328   2.692   1.276  0.00  0.00    +0.046 A 
ATOM     18  C   UNL     1       0.670   2.415   0.086  0.00  0.00    +0.123 A 
BRANCH  18  19
ATOM     19  O   UNL     1      -0.654   2.694  -0.040  0.00  0.00    -0.506 OA
ATOM     20  H   UNL     1      -1.236   1.966   0.218  0.00  0.00    +0.292 HD
ENDBRANCH  18  19
ENDBRANCH  10  13
BRANCH   7  21
ATOM     21  C   UNL     1       3.009   4.665  -3.905  0.00  0.00    +0.243 C 
BRANCH  21  22
ATOM     22  O   UNL     1       4.009   4.344  -4.907  0.00  0.00    -0.450 OA
BRANCH  22  23
ATOM     23  C   UNL     1       5.029   5.210  -5.052  0.00  0.00    +0.400 C 
ATOM     24  O   UNL     1       5.083   6.207  -4.360  0.00  0.00    -0.226 OA
ATOM     25  N   UNL     1       5.992   4.971  -5.965  0.00  0.00    -0.279 N 
ATOM     26  H   UNL     1       5.949   4.175  -6.518  0.00  0.00    +0.152 HD
BRANCH  25  27
ATOM     27  C   UNL     1       7.102   5.913  -6.123  0.00  0.00    +0.070 C 
ATOM     28  C   UNL     1       8.195   5.590  -5.103  0.00  0.00    +0.027 C 
ATOM     29  C   UNL     1       7.674   5.795  -7.538  0.00  0.00    +0.027 C 
ENDBRANCH  25  27
ENDBRANCH  22  23
ENDBRANCH  21  22
ENDBRANCH   7  21
TORSDOF 6
