REMARK  Name = ZINC20803146
REMARK  8 active torsions:
REMARK  status: ('A' for Active; 'I' for Inactive)
REMARK    1  A    between atoms: C_1  and  C_2
REMARK    2  A    between atoms: C_2  and  C_3
REMARK    3  A    between atoms: C_2  and  C_4
REMARK    4  A    between atoms: C_7  and  N_10
REMARK    5  A    between atoms: C_11  and  C_13
REMARK    6  A    between atoms: C_13  and  C_14
REMARK    7  A    between atoms: C_22  and  C_24
REMARK    8  A    between atoms: C_24  and  N_25
REMARK                            x       y       z     vdW  Elec       q    Type
REMARK                         _______ _______ _______ _____ _____    ______ ____
ROOT
ATOM      1  C   UNL     1       5.597  -4.018  -5.243  0.00  0.00    +0.171 C 
ATOM      2  C   UNL     1       6.359  -4.406  -6.481  0.00  0.00    +0.234 C 
ATOM      3  O   UNL     1       6.597  -3.549  -7.306  0.00  0.00    -0.274 OA
ATOM      4  N   UNL     1       6.784  -5.648  -6.713  0.00  0.00    -0.312 N 
ATOM      5  C   UNL     1       6.496  -6.794  -5.862  0.00  0.00    +0.123 C 
ATOM      6  C   UNL     1       6.135  -6.340  -4.446  0.00  0.00    +0.127 C 
ATOM      7  N   UNL     1       5.162  -5.238  -4.547  0.00  0.00    -0.287 N 
ATOM      8  C   UNL     1       3.924  -5.345  -4.026  0.00  0.00    +0.230 C 
ATOM      9  O   UNL     1       3.116  -4.455  -4.194  0.00  0.00    -0.274 OA
ATOM     10  H   UNL     1       7.324  -5.800  -7.505  0.00  0.00    +0.149 HD
ENDROOT
BRANCH   1  11
ATOM     11  C   UNL     1       4.373  -3.187  -5.634  0.00  0.00    +0.128 C 
BRANCH  11  13
ATOM     12  N   UNL     1       2.391  -3.435  -7.093  0.00  0.00    -0.285 N 
ATOM     13  C   UNL     1       3.483  -3.999  -6.539  0.00  0.00    +0.219 C 
ATOM     14  O   UNL     1       3.748  -5.160  -6.769  0.00  0.00    -0.275 OA
ATOM     15  H   UNL     1       2.215  -2.490  -6.964  0.00  0.00    +0.155 HD
BRANCH  12  19
ATOM     16  C   UNL     1      -0.225  -5.752  -9.362  0.00  0.00    -0.045 A 
ATOM     17  C   UNL     1       1.133  -6.009  -9.398  0.00  0.00    +0.006 A 
ATOM     18  C   UNL     1       2.003  -5.243  -8.647  0.00  0.00    +0.023 A 
ATOM     19  C   UNL     1       1.512  -4.213  -7.856  0.00  0.00    +0.033 A 
ATOM     20  C   UNL     1       0.148  -3.956  -7.822  0.00  0.00    +0.023 A 
ATOM     21  C   UNL     1      -0.716  -4.723  -8.579  0.00  0.00    +0.006 A 
BRANCH  16  23
ATOM     22  C   UNL     1      -0.805  -6.470 -11.663  0.00  0.00    +0.012 C 
ATOM     23  C   UNL     1      -1.171  -6.590 -10.182  0.00  0.00    +0.013 C 
ATOM     24  C   UNL     1      -1.065  -8.053  -9.747  0.00  0.00    +0.012 C 
ENDBRANCH  16  23
ENDBRANCH  12  19
ENDBRANCH  11  13
ENDBRANCH   1  11
BRANCH   8  25
ATOM     25  C   UNL     1       3.542  -6.569  -3.235  0.00  0.00    +0.180 C 
BRANCH  25  26
ATOM     26  N   UNL     1       2.151  -6.444  -2.779  0.00  0.00    -0.291 NA
ATOM     27  C   UNL     1       2.008  -5.340  -1.820  0.00  0.00    +0.104 C 
ATOM     28  C   UNL     1       0.523  -5.126  -1.509  0.00  0.00    +0.122 C 
ATOM     29  N   UNL     1      -0.052  -6.408  -1.073  0.00  0.00    -0.314 N 
ATOM     30  C   UNL     1       0.168  -7.592  -1.917  0.00  0.00    +0.122 C 
ATOM     31  C   UNL     1       1.667  -7.709  -2.211  0.00  0.00    +0.104 C 
ATOM     32  C   UNL     1      -0.784  -6.497   0.105  0.00  0.00    +0.099 A 
ATOM     33  C   UNL     1      -1.085  -5.341   0.819  0.00  0.00    +0.042 A 
ATOM     34  C   UNL     1      -1.814  -5.444   1.990  0.00  0.00    +0.005 A 
ATOM     35  C   UNL     1      -2.220  -6.705   2.409  0.00  0.00    +0.018 A 
ATOM     36  C   UNL     1      -1.886  -7.809   1.651  0.00  0.00    +0.084 A 
ATOM     37  N   UNL     1      -1.194  -7.680   0.535  0.00  0.00    -0.350 N 
ATOM     38  H   UNL     1      -0.976  -8.472   0.019  0.00  0.00    +0.166 HD
ENDBRANCH  25  26
ENDBRANCH   8  25
TORSDOF 6
