REMARK  Name = ZINC24641669
REMARK  7 active torsions:
REMARK  status: ('A' for Active; 'I' for Inactive)
REMARK    1  A    between atoms: C_1  and  C_2
REMARK    2  A    between atoms: C_2  and  C_3
REMARK    3  A    between atoms: C_3  and  C_23
REMARK    4  A    between atoms: N_6  and  N_10
REMARK    5  A    between atoms: C_11  and  C_13
REMARK    6  A    between atoms: C_13  and  N_14
REMARK    7  A    between atoms: C_15  and  C_17
REMARK                            x       y       z     vdW  Elec       q    Type
REMARK                         _______ _______ _______ _____ _____    ______ ____
ROOT
ATOM      1  C   UNL     1      -1.332   2.114   0.020  0.00  0.00    +0.139 C 
ATOM      2  C   UNL     1      -1.812   2.367  -1.395  0.00  0.00    +0.268 C 
ATOM      3  O   UNL     1      -1.255   3.018  -2.253  0.00  0.00    -0.271 OA
ATOM      4  N   UNL     1      -2.988   1.717  -1.502  0.00  0.00    -0.137 N 
ATOM      5  C   UNL     1      -3.314   1.095  -0.363  0.00  0.00    +0.327 C 
ATOM      6  O   UNL     1      -4.329   0.444  -0.216  0.00  0.00    -0.251 OA
ATOM      7  N   UNL     1      -2.392   1.272   0.600  0.00  0.00    -0.280 N 
ATOM      8  H   UNL     1      -2.312   0.926   1.641  0.00  0.00    +0.152 HD
ENDROOT
BRANCH   1   9
ATOM      9  C   UNL     1      -0.017   1.378   0.010  0.00  0.00    -0.015 A 
ATOM     10  C   UNL     1       1.171   2.086   0.002  0.00  0.00    +0.006 A 
ATOM     11  C   UNL     1       2.377   1.411  -0.015  0.00  0.00    +0.000 A 
ATOM     12  C   UNL     1       2.396   0.029  -0.022  0.00  0.00    +0.000 A 
ATOM     13  C   UNL     1       1.208  -0.679  -0.013  0.00  0.00    +0.000 A 
ATOM     14  C   UNL     1       0.002  -0.004   0.002  0.00  0.00    +0.006 A 
ENDBRANCH   1   9
BRANCH   4  15
ATOM     15  N   UNL     1      -3.773   1.696  -2.663  0.00  0.00    -0.222 N 
ATOM     16  C   UNL     1      -3.812   0.589  -3.430  0.00  0.00    +0.247 C 
ATOM     17  O   UNL     1      -3.167  -0.390  -3.116  0.00  0.00    -0.273 OA
ATOM     18  H   UNL     1      -4.358   2.583  -2.947  0.00  0.00    +0.174 HD
BRANCH  16  19
ATOM     19  C   UNL     1      -4.656   0.566  -4.678  0.00  0.00    +0.202 C 
BRANCH  19  20
ATOM     20  N   UNL     1      -4.528  -0.740  -5.330  0.00  0.00    -0.300 N 
ATOM     21  C   UNL     1      -5.199  -0.991  -6.472  0.00  0.00    +0.280 C 
ATOM     22  O   UNL     1      -5.911  -0.134  -6.961  0.00  0.00    -0.267 OA
ATOM     23  H   UNL     1      -3.885  -1.515  -4.888  0.00  0.00    +0.150 HD
BRANCH  21  24
ATOM     24  C   UNL     1      -5.071  -2.297  -7.125  0.00  0.00    +0.191 A 
ATOM     25  C   UNL     1      -5.692  -2.682  -8.279  0.00  0.00    +0.056 A 
ATOM     26  C   UNL     1      -5.287  -4.000  -8.535  0.00  0.00    +0.058 A 
ATOM     27  C   UNL     1      -4.446  -4.360  -7.538  0.00  0.00    +0.171 A 
ATOM     28  O   UNL     1      -4.315  -3.329  -6.693  0.00  0.00    -0.444 OA
ATOM     29 BR   UNL     1      -3.592  -6.038  -7.369  0.00  0.00    -0.008 Br
ENDBRANCH  21  24
ENDBRANCH  19  20
ENDBRANCH  16  19
ENDBRANCH   4  15
BRANCH   1  31
ATOM     30  C   UNL     1      -2.578   4.096   0.891  0.00  0.00    +0.007 C 
ATOM     31  C   UNL     1      -1.204   3.431   0.788  0.00  0.00    +0.037 C 
ENDBRANCH   1  31
TORSDOF 6
