REMARK  Name = ZINC09712555
REMARK  9 active torsions:
REMARK  status: ('A' for Active; 'I' for Inactive)
REMARK    1  A    between atoms: C_1  and  C_2
REMARK    2  A    between atoms: C_5  and  C_32
REMARK    3  A    between atoms: C_6  and  N_8
REMARK    4  A    between atoms: C_12  and  S_13
REMARK    5  A    between atoms: S_13  and  C_14
REMARK    6  A    between atoms: C_14  and  C_15
REMARK    7  A    between atoms: N_17  and  C_18
REMARK    8  A    between atoms: C_22  and  S_24
REMARK    9  A    between atoms: S_24  and  N_27
REMARK                            x       y       z     vdW  Elec       q    Type
REMARK                         _______ _______ _______ _____ _____    ______ ____
ROOT
ATOM      1  C   UNL     1       3.022   3.030  -6.096  0.00  0.00    +0.227 C 
ATOM      2  O   UNL     1       3.788   2.094  -6.191  0.00  0.00    -0.275 OA
ATOM      3  N   UNL     1       2.336   3.226  -4.953  0.00  0.00    -0.285 N 
ATOM      4  H   UNL     1       1.667   3.927  -4.902  0.00  0.00    +0.155 HD
ENDROOT
BRANCH   3   5
ATOM      5  C   UNL     1       2.588   2.418  -3.838  0.00  0.00    +0.035 A 
ATOM      6  C   UNL     1       1.558   2.094  -2.966  0.00  0.00    +0.023 A 
ATOM      7  C   UNL     1       1.810   1.296  -1.867  0.00  0.00    +0.004 A 
ATOM      8  C   UNL     1       3.086   0.815  -1.638  0.00  0.00    +0.029 A 
ATOM      9  C   UNL     1       4.116   1.140  -2.502  0.00  0.00    +0.110 A 
ATOM     10  C   UNL     1       3.870   1.938  -3.603  0.00  0.00    +0.052 A 
BRANCH   9  11
ATOM     11  S   UNL     1       5.741   0.530  -2.203  0.00  0.00    +0.073 S 
ATOM     12  O   UNL     1       6.410   0.522  -3.457  0.00  0.00    -0.150 OA
ATOM     13  O   UNL     1       5.596  -0.640  -1.410  0.00  0.00    -0.150 OA
BRANCH  11  14
ATOM     14  N   UNL     1       6.518   1.648  -1.260  0.00  0.00    -0.205 N 
ATOM     15  C   UNL     1       6.077   1.894   0.013  0.00  0.00    +0.088 C 
ATOM     16  C   UNL     1       4.835   1.775   1.934  0.00  0.00    +0.114 C 
ATOM     17  C   UNL     1       5.632   3.094   2.055  0.00  0.00    +0.028 C 
ATOM     18  C   UNL     1       6.711   2.886   0.963  0.00  0.00    +0.072 C 
ATOM     19  H   UNL     1       7.283   2.130  -1.610  0.00  0.00    +0.175 HD
ATOM     20  N   UNL     1       5.060   1.296   0.553  0.00  0.00    -0.375 N 
ATOM     21  H   UNL     1       4.488   0.584   0.084  0.00  0.00    +0.161 HD
ENDBRANCH  11  14
ENDBRANCH   9  11
ENDBRANCH   3   5
BRANCH   1  22
ATOM     22  C   UNL     1       2.836   3.973  -7.257  0.00  0.00    +0.173 C 
BRANCH  22  23
ATOM     23  S   UNL     1       3.886   3.447  -8.635  0.00  0.00    -0.078 S 
BRANCH  23  28
ATOM     24  N   UNL     1       3.998   4.791 -11.076  0.00  0.00    -0.294 N 
ATOM     25  C   UNL     1       3.414   5.894 -11.662  0.00  0.00    +0.113 A 
ATOM     26  C   UNL     1       2.580   6.425 -10.752  0.00  0.00    +0.131 A 
ATOM     27  N   UNL     1       2.635   5.676  -9.637  0.00  0.00    -0.230 NA
ATOM     28  C   UNL     1       3.481   4.689  -9.818  0.00  0.00    +0.174 A 
BRANCH  24  34
ATOM     29  C   UNL     1       8.494   4.085 -12.941  0.00  0.00    +0.044 C 
ATOM     30  C   UNL     1       7.126   3.567 -12.577  0.00  0.00    -0.048 A 
ATOM     31  C   UNL     1       6.800   2.246 -12.822  0.00  0.00    +0.004 A 
ATOM     32  C   UNL     1       5.546   1.767 -12.490  0.00  0.00    +0.005 A 
ATOM     33  C   UNL     1       4.618   2.607 -11.906  0.00  0.00    -0.027 A 
ATOM     34  C   UNL     1       4.940   3.935 -11.664  0.00  0.00    +0.052 A 
ATOM     35  C   UNL     1       6.200   4.413 -11.999  0.00  0.00    +0.029 A 
ATOM     36  C   UNL     1       3.253   2.083 -11.538  0.00  0.00    +0.046 C 
ENDBRANCH  24  34
ENDBRANCH  23  28
ENDBRANCH  22  23
ENDBRANCH   1  22
TORSDOF 7
