REMARK  Name = ZINC65074864
REMARK  7 active torsions:
REMARK  status: ('A' for Active; 'I' for Inactive)
REMARK    1  A    between atoms: C_1  and  C_2
REMARK    2  A    between atoms: C_2  and  C_3
REMARK    3  A    between atoms: C_2  and  C_4
REMARK    4  A    between atoms: C_4  and  C_5
REMARK    5  A    between atoms: C_8  and  S_11
REMARK    6  A    between atoms: S_11  and  N_14
REMARK    7  A    between atoms: N_25  and  C_26
REMARK                            x       y       z     vdW  Elec       q    Type
REMARK                         _______ _______ _______ _____ _____    ______ ____
ROOT
ATOM      1  N   UNL     1       0.222  -7.009  -0.614  0.00  0.00    -0.176 NA
ATOM      2  C   UNL     1       0.896  -7.104  -1.916  0.00  0.00    +0.111 C 
ATOM      3  C   UNL     1       1.514  -8.499  -2.051  0.00  0.00    +0.047 C 
ATOM      4  C   UNL     1       2.428  -8.766  -0.851  0.00  0.00    +0.075 C 
ATOM      5  C   UNL     1       1.600  -8.728   0.436  0.00  0.00    +0.047 C 
ATOM      6  C   UNL     1       0.984  -7.330   0.601  0.00  0.00    +0.111 C 
ATOM      7  C   UNL     1       3.066 -10.118  -0.999  0.00  0.00    +0.089 C 
ATOM      8  N   UNL     1       4.281 -10.291  -1.360  0.00  0.00    -0.374 N 
ATOM      9  C   UNL     1       5.200  -9.199  -1.665  0.00  0.00    +0.129 C 
ATOM     10  C   UNL     1       4.418  -7.905  -1.901  0.00  0.00    +0.102 C 
ATOM     11  N   UNL     1       3.465  -7.726  -0.792  0.00  0.00    -0.303 NA
ATOM     12  N   UNL     1       2.306 -11.226  -0.730  0.00  0.00    -0.330 N 
ATOM     13  H   UNL     1       3.055  -6.805  -0.813  0.00  0.00    +0.123 HD
ATOM     14  H   UNL     1       1.382 -11.125  -0.454  0.00  0.00    +0.147 HD
ATOM     15  H   UNL     1       4.610 -11.200  -1.436  0.00  0.00    +0.161 HD
ENDROOT
BRANCH  12  16
ATOM     16  C   UNL     1       2.889 -12.564  -0.861  0.00  0.00    +0.071 C 
ATOM     17  C   UNL     1       2.786 -13.025  -2.316  0.00  0.00    +0.022 C 
ATOM     18  C   UNL     1       3.395 -14.422  -2.453  0.00  0.00    +0.002 C 
ATOM     19  C   UNL     1       2.637 -15.399  -1.552  0.00  0.00    +0.000 C 
ATOM     20  C   UNL     1       2.741 -14.938  -0.097  0.00  0.00    +0.002 C 
ATOM     21  C   UNL     1       2.131 -13.541   0.039  0.00  0.00    +0.022 C 
ENDBRANCH  12  16
BRANCH   1  22
ATOM     22  S   UNL     1      -1.364  -6.544  -0.516  0.00  0.00    +0.061 S 
ATOM     23  O   UNL     1      -1.866  -7.064   0.707  0.00  0.00    -0.153 OA
ATOM     24  O   UNL     1      -1.955  -6.847  -1.772  0.00  0.00    -0.153 OA
BRANCH  22  28
ATOM     25  C   UNL     1      -1.416  -2.035  -0.119  0.00  0.00    -0.047 A 
ATOM     26  C   UNL     1      -1.450  -2.619  -1.372  0.00  0.00    +0.005 A 
ATOM     27  C   UNL     1      -1.434  -3.996  -1.493  0.00  0.00    +0.029 A 
ATOM     28  C   UNL     1      -1.384  -4.789  -0.361  0.00  0.00    +0.105 A 
ATOM     29  C   UNL     1      -1.349  -4.205   0.891  0.00  0.00    +0.029 A 
ATOM     30  C   UNL     1      -1.361  -2.828   1.012  0.00  0.00    +0.005 A 
BRANCH  25  31
ATOM     31  C   UNL     1      -1.433  -0.534   0.013  0.00  0.00    +0.038 C 
BRANCH  31  33
ATOM     32  C   UNL     1      -0.019   1.526   0.010  0.00  0.00    +0.007 C 
ATOM     33  C   UNL     1       0.002  -0.004   0.002  0.00  0.00    -0.013 C 
ATOM     34  C   UNL     1       0.742  -0.511   1.242  0.00  0.00    +0.007 C 
ENDBRANCH  31  33
ENDBRANCH  25  31
ENDBRANCH  22  28
ENDBRANCH   1  22
TORSDOF 5
