REMARK  Name = ZINC06121976
REMARK  9 active torsions:
REMARK  status: ('A' for Active; 'I' for Inactive)
REMARK    1  A    between atoms: C_1  and  C_2
REMARK    2  A    between atoms: C_4  and  C_27
REMARK    3  A    between atoms: C_5  and  N_9
REMARK    4  A    between atoms: C_6  and  C_8
REMARK    5  A    between atoms: C_10  and  C_12
REMARK    6  A    between atoms: C_12  and  O_13
REMARK    7  A    between atoms: O_13  and  C_14
REMARK    8  A    between atoms: C_14  and  C_16
REMARK    9  A    between atoms: C_25  and  O_26
REMARK                            x       y       z     vdW  Elec       q    Type
REMARK                         _______ _______ _______ _____ _____    ______ ____
ROOT
ATOM      1  O   UNL     1       2.031   8.703  -1.560  0.00  0.00    -0.452 OA
ENDROOT
BRANCH   1   2
ATOM      2  C   UNL     1       0.865   8.034  -1.662  0.00  0.00    +0.343 C 
ATOM      3  O   UNL     1      -0.089   8.371  -0.989  0.00  0.00    -0.245 OA
BRANCH   2   4
ATOM      4  C   UNL     1       0.748   6.895  -2.587  0.00  0.00    +0.101 A 
ATOM      5  C   UNL     1       1.857   6.508  -3.364  0.00  0.00    +0.019 A 
ATOM      6  C   UNL     1       1.774   5.463  -4.223  0.00  0.00    +0.009 A 
ATOM      7  C   UNL     1       0.569   4.744  -4.351  0.00  0.00    -0.014 A 
ATOM      8  C   UNL     1       0.465   3.659  -5.237  0.00  0.00    +0.008 A 
ATOM      9  C   UNL     1      -0.712   2.982  -5.341  0.00  0.00    +0.001 A 
ATOM     10  C   UNL     1      -1.821   3.353  -4.585  0.00  0.00    +0.001 A 
ATOM     11  C   UNL     1      -1.756   4.397  -3.712  0.00  0.00    +0.012 A 
ATOM     12  C   UNL     1      -0.558   5.117  -3.579  0.00  0.00    +0.024 A 
ATOM     13  C   UNL     1      -0.459   6.207  -2.689  0.00  0.00    +0.138 A 
BRANCH  13  14
ATOM     14  O   UNL     1      -1.525   6.579  -1.941  0.00  0.00    -0.505 OA
ATOM     15  H   UNL     1      -1.576   6.139  -1.082  0.00  0.00    +0.292 HD
ENDBRANCH  13  14
ENDBRANCH   2   4
ENDBRANCH   1   2
BRANCH   1  16
ATOM     16  C   UNL     1       2.074   9.815  -0.628  0.00  0.00    +0.328 C 
BRANCH  16  18
ATOM     17  N   UNL     1       3.721  11.493   0.141  0.00  0.00    -0.282 N 
ATOM     18  C   UNL     1       3.446  10.437  -0.650  0.00  0.00    +0.255 C 
ATOM     19  O   UNL     1       4.304   9.987  -1.380  0.00  0.00    -0.272 OA
ATOM     20  H   UNL     1       3.021  11.886   0.685  0.00  0.00    +0.155 HD
BRANCH  17  25
ATOM     21  C   UNL     1       8.970  13.640   0.289  0.00  0.00    +0.044 C 
ATOM     22  C   UNL     1       7.576  13.069   0.250  0.00  0.00    -0.050 A 
ATOM     23  C   UNL     1       6.497  13.901   0.011  0.00  0.00    +0.008 A 
ATOM     24  C   UNL     1       5.218  13.381  -0.026  0.00  0.00    -0.029 A 
ATOM     25  C   UNL     1       5.016  12.022   0.177  0.00  0.00    +0.039 A 
ATOM     26  C   UNL     1       6.101  11.191   0.421  0.00  0.00    -0.029 A 
ATOM     27  C   UNL     1       7.378  11.716   0.452  0.00  0.00    +0.008 A 
ATOM     28  C   UNL     1       5.886   9.717   0.647  0.00  0.00    +0.045 C 
ATOM     29  C   UNL     1       4.042  14.288  -0.286  0.00  0.00    +0.045 C 
ENDBRANCH  17  25
ENDBRANCH  16  18
ENDBRANCH   1  16
TORSDOF 6
