REMARK  Name = ZINC20862600
REMARK  13 active torsions:
REMARK  status: ('A' for Active; 'I' for Inactive)
REMARK    1  A    between atoms: C_1  and  C_2
REMARK    2  A    between atoms: C_2  and  C_3
REMARK    3  A    between atoms: N_5  and  C_17
REMARK    4  A    between atoms: C_12  and  C_16
REMARK    5  A    between atoms: C_17  and  C_18
REMARK    6  A    between atoms: N_20  and  C_21
REMARK    7  A    between atoms: C_21  and  C_22
REMARK    8  A    between atoms: C_22  and  N_23
REMARK    9  A    between atoms: N_23  and  C_24
REMARK   10  A    between atoms: N_23  and  C_30
REMARK   11  A    between atoms: C_30  and  C_32
REMARK   12  A    between atoms: C_30  and  C_33
REMARK   13  A    between atoms: C_33  and  C_34
REMARK                            x       y       z     vdW  Elec       q    Type
REMARK                         _______ _______ _______ _____ _____    ______ ____
ROOT
ATOM      1  C   UNL     1      -2.146  -2.748   2.792  0.00  0.00    +0.235 C 
ATOM      2  O   UNL     1      -1.009  -3.169   2.837  0.00  0.00    -0.274 OA
ATOM      3  N   UNL     1      -2.379  -1.479   2.405  0.00  0.00    -0.316 N 
ATOM      4  H   UNL     1      -3.410  -1.097   2.364  0.00  0.00    +0.149 HD
ENDROOT
BRANCH   1   5
ATOM      5  C   UNL     1      -3.297  -3.645   3.171  0.00  0.00    +0.243 C 
BRANCH   5   8
ATOM      6  C   UNL     1      -2.184  -7.135   2.868  0.00  0.00    +0.135 A 
ATOM      7  N   UNL     1      -2.636  -5.961   2.584  0.00  0.00    -0.154 NA
ATOM      8  N   UNL     1      -2.784  -4.963   3.552  0.00  0.00    -0.217 N 
ATOM      9  C   UNL     1      -2.460  -5.214   4.840  0.00  0.00    +0.292 A 
ATOM     10  O   UNL     1      -2.587  -4.359   5.699  0.00  0.00    -0.264 OA
ATOM     11  C   UNL     1      -1.951  -6.548   5.173  0.00  0.00    +0.116 A 
ATOM     12  N   UNL     1      -1.828  -7.481   4.157  0.00  0.00    -0.291 N 
ATOM     13  C   UNL     1      -1.331  -8.667   4.687  0.00  0.00    +0.063 A 
ATOM     14  C   UNL     1      -0.984  -9.952   4.243  0.00  0.00    +0.037 A 
ATOM     15  C   UNL     1      -0.514 -10.865   5.117  0.00  0.00    -0.011 A 
ATOM     16  S   UNL     1      -0.525  -9.972   6.662  0.00  0.00    -0.092 S 
ATOM     17  C   UNL     1      -1.156  -8.428   6.056  0.00  0.00    +0.038 A 
ATOM     18  C   UNL     1      -1.538  -7.127   6.349  0.00  0.00    +0.048 A 
ATOM     19  C   UNL     1      -0.086 -12.286   4.854  0.00  0.00    +0.051 C 
BRANCH   6  21
ATOM     20  C   UNL     1      -2.500  -7.541   0.443  0.00  0.00    +0.012 C 
ATOM     21  C   UNL     1      -2.047  -8.156   1.768  0.00  0.00    +0.073 C 
ENDBRANCH   6  21
ENDBRANCH   5   8
ENDBRANCH   1   5
BRANCH   3  22
ATOM     22  C   UNL     1      -1.260  -0.608   2.037  0.00  0.00    +0.086 C 
BRANCH  22  23
ATOM     23  C   UNL     1      -1.796   0.769   1.639  0.00  0.00    -0.059 C 
BRANCH  23  24
ATOM     24  N   UNL     1      -0.673   1.643   1.270  0.00  0.00    +0.384 N 
ATOM     25  H   UNL     1       0.060   1.615   2.090  0.00  0.00    -0.081 HD
BRANCH  24  26
ATOM     26  C   UNL     1      -1.119   3.034   1.111  0.00  0.00    -0.068 C 
ATOM     27  C   UNL     1       0.097   3.939   0.910  0.00  0.00    -0.015 C 
ATOM     28  C   UNL     1      -0.367   5.388   0.744  0.00  0.00    -0.002 C 
ATOM     29  C   UNL     1      -1.128   5.826   1.997  0.00  0.00    -0.000 C 
ATOM     30  C   UNL     1      -2.344   4.920   2.198  0.00  0.00    -0.002 C 
ATOM     31  C   UNL     1      -1.880   3.472   2.364  0.00  0.00    -0.015 C 
ENDBRANCH  24  26
BRANCH  24  32
ATOM     32  C   UNL     1      -0.009   1.161   0.052  0.00  0.00    -0.072 C 
ATOM     33  C   UNL     1      -0.621   1.848  -1.170  0.00  0.00    -0.013 C 
BRANCH  32  34
ATOM     34  C   UNL     1       1.485   1.484   0.124  0.00  0.00    -0.019 C 
ATOM     35  C   UNL     1       2.129   0.673   1.251  0.00  0.00    +0.002 C 
ENDBRANCH  32  34
ENDBRANCH  24  32
ENDBRANCH  23  24
ENDBRANCH  22  23
ENDBRANCH   3  22
TORSDOF 9
