REMARK  Name = ZINC36730548
REMARK  8 active torsions:
REMARK  status: ('A' for Active; 'I' for Inactive)
REMARK    1  A    between atoms: C_1  and  C_2
REMARK    2  A    between atoms: C_2  and  C_4
REMARK    3  A    between atoms: C_2  and  N_13
REMARK    4  A    between atoms: C_7  and  C_10
REMARK    5  A    between atoms: C_10  and  C_11
REMARK    6  A    between atoms: C_10  and  C_12
REMARK    7  A    between atoms: C_14  and  C_16
REMARK    8  A    between atoms: C_16  and  N_17
REMARK                            x       y       z     vdW  Elec       q    Type
REMARK                         _______ _______ _______ _____ _____    ______ ____
ROOT
ATOM      1  C   UNL     1       0.780  -1.133   3.576  0.00  0.00    +0.213 C 
ENDROOT
BRANCH   1   2
ATOM      2  N   UNL     1      -0.150  -1.201   4.706  0.00  0.00    -0.215 N 
ATOM      3  C   UNL     1      -0.378  -0.183   5.565  0.00  0.00    +0.251 C 
ATOM      4  O   UNL     1       0.127   0.919   5.550  0.00  0.00    -0.272 OA
ATOM      5  C   UNL     1      -1.393  -0.711   6.544  0.00  0.00    +0.138 C 
ATOM      6  C   UNL     1      -0.851  -0.680   7.979  0.00  0.00    +0.045 C 
ATOM      7  C   UNL     1      -2.130  -0.411   8.804  0.00  0.00    +0.038 C 
ATOM      8  C   UNL     1      -3.073   0.299   7.856  0.00  0.00    -0.042 A 
ATOM      9  C   UNL     1      -2.646   0.123   6.550  0.00  0.00    -0.012 A 
ATOM     10  C   UNL     1      -3.365   0.689   5.511  0.00  0.00    +0.006 A 
ATOM     11  C   UNL     1      -4.503   1.427   5.771  0.00  0.00    +0.000 A 
ATOM     12  C   UNL     1      -4.928   1.603   7.074  0.00  0.00    +0.000 A 
ATOM     13  C   UNL     1      -4.214   1.040   8.113  0.00  0.00    +0.004 A 
ATOM     14  N   UNL     1      -1.655  -2.081   6.103  0.00  0.00    -0.281 N 
ATOM     15  C   UNL     1      -0.884  -2.278   5.014  0.00  0.00    +0.310 C 
ATOM     16  O   UNL     1      -0.856  -3.317   4.384  0.00  0.00    -0.252 OA
ATOM     17  H   UNL     1      -2.263  -2.718   6.509  0.00  0.00    +0.152 HD
ENDBRANCH   1   2
BRANCH   1  19
ATOM     18  N   UNL     1       0.711  -0.489   1.189  0.00  0.00    -0.307 N 
ATOM     19  C   UNL     1       0.051  -0.633   2.355  0.00  0.00    +0.231 C 
ATOM     20  O   UNL     1      -1.129  -0.361   2.423  0.00  0.00    -0.274 OA
ATOM     21  H   UNL     1       1.654  -0.707   1.135  0.00  0.00    +0.149 HD
BRANCH  18  23
ATOM     22  C   UNL     1      -0.019   1.526   0.010  0.00  0.00    +0.033 C 
ATOM     23  C   UNL     1       0.002  -0.004   0.002  0.00  0.00    +0.100 C 
BRANCH  23  24
ATOM     24  C   UNL     1       0.707  -0.490  -1.238  0.00  0.00    -0.027 A 
ATOM     25  C   UNL     1       2.089  -0.511  -1.284  0.00  0.00    +0.006 A 
ATOM     26  C   UNL     1       2.736  -0.957  -2.421  0.00  0.00    +0.004 A 
ATOM     27  C   UNL     1       2.002  -1.382  -3.512  0.00  0.00    -0.045 A 
ATOM     28  C   UNL     1       0.620  -1.362  -3.466  0.00  0.00    +0.004 A 
ATOM     29  C   UNL     1      -0.027  -0.920  -2.327  0.00  0.00    +0.006 A 
BRANCH  27  30
ATOM     30  C   UNL     1       2.707  -1.867  -4.753  0.00  0.00    +0.013 C 
ATOM     31  C   UNL     1       2.307  -3.317  -5.032  0.00  0.00    +0.012 C 
ATOM     32  C   UNL     1       2.309  -0.990  -5.941  0.00  0.00    +0.012 C 
ENDBRANCH  27  30
ENDBRANCH  23  24
ENDBRANCH  18  23
ENDBRANCH   1  19
TORSDOF 5
