REMARK  Name = ZINC25345707
REMARK  13 active torsions:
REMARK  status: ('A' for Active; 'I' for Inactive)
REMARK    1  A    between atoms: C_1  and  C_2
REMARK    2  A    between atoms: C_2  and  C_4
REMARK    3  A    between atoms: C_2  and  N_10
REMARK    4  A    between atoms: C_4  and  C_5
REMARK    5  A    between atoms: C_5  and  C_6
REMARK    6  A    between atoms: C_6  and  C_7
REMARK    7  A    between atoms: C_7  and  C_8
REMARK    8  A    between atoms: C_7  and  C_9
REMARK    9  A    between atoms: C_11  and  C_13
REMARK   10  A    between atoms: C_13  and  C_15
REMARK   11  A    between atoms: C_13  and  N_26
REMARK   12  A    between atoms: C_15  and  C_16
REMARK   13  A    between atoms: C_27  and  C_29
REMARK                            x       y       z     vdW  Elec       q    Type
REMARK                         _______ _______ _______ _____ _____    ______ ____
ROOT
ATOM      1  C   UNL     1       0.712  -1.094  -3.598  0.00  0.00    +0.163 C 
ENDROOT
BRANCH   1   3
ATOM      2  N   UNL     1       0.688  -0.476  -1.203  0.00  0.00    -0.311 N 
ATOM      3  C   UNL     1       0.006  -0.608  -2.358  0.00  0.00    +0.234 C 
ATOM      4  O   UNL     1      -1.175  -0.336  -2.400  0.00  0.00    -0.274 OA
ATOM      5  H   UNL     1       1.632  -0.695  -1.170  0.00  0.00    +0.149 HD
BRANCH   2   7
ATOM      6  C   UNL     1      -0.019   1.526   0.010  0.00  0.00    +0.028 C 
ATOM      7  C   UNL     1       0.002  -0.004   0.002  0.00  0.00    +0.070 C 
BRANCH   7   8
ATOM      8  C   UNL     1       0.742  -0.511   1.242  0.00  0.00    +0.022 C 
BRANCH   8   9
ATOM      9  C   UNL     1       0.655  -2.037   1.299  0.00  0.00    +0.002 C 
BRANCH   9  10
ATOM     10  C   UNL     1       1.395  -2.544   2.538  0.00  0.00    +0.003 C 
BRANCH  10  11
ATOM     11  C   UNL     1       1.309  -4.071   2.595  0.00  0.00    -0.017 C 
ATOM     12  C   UNL     1       2.152  -4.586   3.763  0.00  0.00    +0.007 C 
ATOM     13  C   UNL     1      -0.149  -4.492   2.794  0.00  0.00    +0.007 C 
ENDBRANCH  10  11
ENDBRANCH   9  10
ENDBRANCH   8   9
ENDBRANCH   7   8
ENDBRANCH   2   7
ENDBRANCH   1   3
BRANCH   1  14
ATOM     14  N   UNL     1      -0.062  -0.711  -4.782  0.00  0.00    -0.299 N 
ATOM     15  C   UNL     1      -1.326  -1.151  -4.933  0.00  0.00    +0.251 C 
ATOM     16  O   UNL     1      -1.826  -1.868  -4.086  0.00  0.00    -0.270 OA
ATOM     17  H   UNL     1       0.337  -0.139  -5.457  0.00  0.00    +0.150 HD
BRANCH  15  18
ATOM     18  C   UNL     1      -2.100  -0.768  -6.117  0.00  0.00    +0.074 A 
ATOM     19  C   UNL     1      -3.401  -1.103  -6.458  0.00  0.00    +0.021 A 
ATOM     20  C   UNL     1      -3.860  -0.587  -7.646  0.00  0.00    +0.008 A 
ATOM     21  C   UNL     1      -3.035   0.194  -8.387  0.00  0.00    +0.046 A 
ATOM     22  S   UNL     1      -1.615   0.259  -7.492  0.00  0.00    -0.092 S 
ENDBRANCH  15  18
ENDBRANCH   1  14
BRANCH   1  23
ATOM     23  C   UNL     1       0.843  -2.618  -3.547  0.00  0.00    +0.069 C 
BRANCH  23  24
ATOM     24  C   UNL     1       1.655  -3.092  -4.724  0.00  0.00    -0.020 A 
ATOM     25  C   UNL     1       1.176  -3.524  -5.902  0.00  0.00    +0.087 A 
ATOM     26  N   UNL     1       2.211  -3.872  -6.726  0.00  0.00    -0.360 N 
ATOM     27  H   UNL     1       2.114  -4.213  -7.629  0.00  0.00    +0.165 HD
ATOM     28  C   UNL     1       3.411  -3.667  -6.083  0.00  0.00    +0.047 A 
ATOM     29  C   UNL     1       3.115  -3.164  -4.803  0.00  0.00    +0.003 A 
ATOM     30  C   UNL     1       4.151  -2.855  -3.920  0.00  0.00    +0.010 A 
ATOM     31  C   UNL     1       5.449  -3.039  -4.305  0.00  0.00    +0.001 A 
ATOM     32  C   UNL     1       5.747  -3.532  -5.568  0.00  0.00    +0.002 A 
ATOM     33  C   UNL     1       4.739  -3.853  -6.452  0.00  0.00    +0.026 A 
ENDBRANCH  23  24
ENDBRANCH   1  23
TORSDOF 10
