REMARK  Name = ZINC39479844
REMARK  8 active torsions:
REMARK  status: ('A' for Active; 'I' for Inactive)
REMARK    1  A    between atoms: C_1  and  C_2
REMARK    2  A    between atoms: C_2  and  C_3
REMARK    3  A    between atoms: C_2  and  S_4
REMARK    4  A    between atoms: S_4  and  C_7
REMARK    5  A    between atoms: N_16  and  C_32
REMARK    6  A    between atoms: C_20  and  O_30
REMARK    7  A    between atoms: C_22  and  C_23
REMARK    8  A    between atoms: C_23  and  C_24
REMARK                            x       y       z     vdW  Elec       q    Type
REMARK                         _______ _______ _______ _____ _____    ______ ____
ROOT
ATOM      1  C   UNL     1      -1.560  -2.368   0.150  0.00  0.00    +0.159 C 
ATOM      2  N   UNL     1      -1.637  -2.883   1.289  0.00  0.00    -0.227 NA
ATOM      3  C   UNL     1      -1.688  -3.999   2.001  0.00  0.00    +0.142 A 
ATOM      4  C   UNL     1      -1.836  -5.309   1.510  0.00  0.00    +0.156 A 
ATOM      5  N   UNL     1      -1.977  -6.323   2.359  0.00  0.00    -0.218 NA
ATOM      6  C   UNL     1      -1.918  -6.139   3.661  0.00  0.00    +0.225 A 
ATOM      7  N   UNL     1      -1.719  -4.941   4.173  0.00  0.00    -0.222 NA
ATOM      8  C   UNL     1      -1.605  -3.875   3.405  0.00  0.00    +0.160 A 
ATOM      9 CL   UNL     1      -1.355  -2.314   4.123  0.00  0.00    -0.060 Cl
ATOM     10  N   UNL     1      -1.779  -5.583   0.158  0.00  0.00    -0.286 N 
ATOM     11  C   UNL     1      -2.793  -5.155  -0.709  0.00  0.00    +0.042 A 
ATOM     12  C   UNL     1      -2.584  -3.969  -1.387  0.00  0.00    -0.015 A 
ATOM     13  C   UNL     1      -3.525  -3.506  -2.281  0.00  0.00    +0.051 A 
ATOM     14  C   UNL     1      -4.694  -4.232  -2.478  0.00  0.00    +0.118 A 
ATOM     15  C   UNL     1      -4.911  -5.412  -1.782  0.00  0.00    +0.051 A 
ATOM     16  C   UNL     1      -3.958  -5.879  -0.893  0.00  0.00    -0.018 A 
ATOM     17  C   UNL     1      -1.333  -3.184  -1.101  0.00  0.00    +0.112 C 
ATOM     18  C   UNL     1      -0.640  -6.332  -0.379  0.00  0.00    +0.137 C 
ENDROOT
BRANCH   1  19
ATOM     19  S   UNL     1      -1.730  -0.620  -0.001  0.00  0.00    +0.013 S 
ATOM     20  O   UNL     1      -2.404  -0.218   1.183  0.00  0.00    -0.168 OA
ATOM     21  O   UNL     1      -2.325  -0.422  -1.276  0.00  0.00    -0.168 OA
BRANCH  19  23
ATOM     22  C   UNL     1      -0.058   1.545  -0.001  0.00  0.00    +0.032 C 
ATOM     23  C   UNL     1      -0.031   0.015   0.001  0.00  0.00    +0.131 C 
ATOM     24  C   UNL     1       0.698  -0.480   1.251  0.00  0.00    +0.032 C 
ENDBRANCH  19  23
ENDBRANCH   1  19
BRANCH  14  25
ATOM     25  O   UNL     1      -5.629  -3.784  -3.358  0.00  0.00    -0.507 OA
ATOM     26  H   UNL     1      -5.508  -4.109  -4.261  0.00  0.00    +0.292 HD
ENDBRANCH  14  25
BRANCH  16  27
ATOM     27  C   UNL     1      -4.186  -7.161  -0.135  0.00  0.00    +0.072 C 
BRANCH  27  28
ATOM     28  C   UNL     1      -5.576  -7.670  -0.415  0.00  0.00    -0.043 A 
ATOM     29  C   UNL     1      -6.646  -7.199   0.323  0.00  0.00    +0.004 A 
ATOM     30  C   UNL     1      -7.922  -7.666   0.067  0.00  0.00    +0.000 A 
ATOM     31  C   UNL     1      -8.128  -8.602  -0.929  0.00  0.00    +0.000 A 
ATOM     32  C   UNL     1      -7.058  -9.072  -1.668  0.00  0.00    +0.000 A 
ATOM     33  C   UNL     1      -5.783  -8.603  -1.414  0.00  0.00    +0.004 A 
ENDBRANCH  27  28
ENDBRANCH  16  27
TORSDOF 5
