REMARK  Name = ZINC04289917
REMARK  5 active torsions:
REMARK  status: ('A' for Active; 'I' for Inactive)
REMARK    1  A    between atoms: C_1  and  O_2
REMARK    2  A    between atoms: O_2  and  C_3
REMARK    3  A    between atoms: C_6  and  N_7
REMARK    4  A    between atoms: N_7  and  N_8
REMARK    5  A    between atoms: C_11  and  C_14
REMARK                            x       y       z     vdW  Elec       q    Type
REMARK                         _______ _______ _______ _____ _____    ______ ____
ROOT
ATOM      1  N   UNL     1       3.531   0.464  -6.219  0.00  0.00    -0.245 N 
ATOM      2  C   UNL     1       4.146  -0.154  -7.296  0.00  0.00    +0.175 A 
ATOM      3  N   UNL     1       4.743   0.389  -8.341  0.00  0.00    -0.224 NA
ATOM      4  C   UNL     1       5.287  -0.367  -9.293  0.00  0.00    +0.082 A 
ATOM      5  C   UNL     1       5.224  -1.727  -9.183  0.00  0.00    +0.077 A 
ATOM      6  S   UNL     1       4.348  -1.898  -7.634  0.00  0.00    -0.059 S 
ATOM      7  H   UNL     1       3.498   1.432  -6.169  0.00  0.00    +0.172 HD
ENDROOT
BRANCH   4   8
ATOM      8  C   UNL     1       5.952   0.261 -10.459  0.00  0.00    +0.019 A 
ATOM      9  C   UNL     1       6.514  -0.534 -11.456  0.00  0.00    +0.013 A 
ATOM     10  C   UNL     1       7.133   0.055 -12.540  0.00  0.00    +0.021 A 
ATOM     11  C   UNL     1       7.196   1.435 -12.638  0.00  0.00    +0.042 A 
ATOM     12  C   UNL     1       6.640   2.230 -11.652  0.00  0.00    +0.040 A 
ATOM     13  C   UNL     1       6.013   1.651 -10.566  0.00  0.00    +0.052 A 
ATOM     14 CL   UNL     1       5.309   2.650  -9.333  0.00  0.00    -0.083 Cl
ATOM     15 CL   UNL     1       7.977   2.169 -14.004  0.00  0.00    -0.083 Cl
ENDBRANCH   4   8
BRANCH   1  16
ATOM     16  N   UNL     1       2.958  -0.310  -5.201  0.00  0.00    -0.272 N 
ATOM     17  H   UNL     1       2.991  -1.278  -5.251  0.00  0.00    +0.169 HD
BRANCH  16  21
ATOM     18  C   UNL     1       0.606  -0.608  -1.057  0.00  0.00    +0.168 C 
ATOM     19  C   UNL     1       1.162   0.146  -2.043  0.00  0.00    +0.058 C 
ATOM     20  C   UNL     1       1.789  -0.484  -3.142  0.00  0.00    -0.005 C 
ATOM     21  C   UNL     1       2.362   0.289  -4.158  0.00  0.00    +0.095 C 
ATOM     22  C   UNL     1       1.837  -1.893  -3.213  0.00  0.00    +0.028 C 
ATOM     23  C   UNL     1       1.281  -2.643  -2.226  0.00  0.00    +0.069 C 
ATOM     24  C   UNL     1       0.662  -2.017  -1.129  0.00  0.00    +0.234 C 
ATOM     25  O   UNL     1       0.166  -2.695  -0.238  0.00  0.00    -0.283 OA
ATOM     26 BR   UNL     1       1.346  -4.530  -2.324  0.00  0.00    -0.046 Br
BRANCH  18  28
ATOM     27  C   UNL     1      -0.017   1.425   0.010  0.00  0.00    +0.277 C 
ATOM     28  O   UNL     1       0.002  -0.004   0.002  0.00  0.00    -0.491 OA
ENDBRANCH  18  28
ENDBRANCH  16  21
ENDBRANCH   1  16
TORSDOF 4
