REMARK  Name = ZINC20612365
REMARK  5 active torsions:
REMARK  status: ('A' for Active; 'I' for Inactive)
REMARK    1  A    between atoms: C_1  and  C_2
REMARK    2  A    between atoms: C_18  and  C_20
REMARK    3  A    between atoms: C_20  and  N_21
REMARK    4  A    between atoms: N_24  and  C_27
REMARK    5  A    between atoms: C_27  and  C_28
REMARK                            x       y       z     vdW  Elec       q    Type
REMARK                         _______ _______ _______ _____ _____    ______ ____
ROOT
ATOM      1  C   UNL     1      -0.109   1.057  -2.412  0.00  0.00    -0.064 C 
ENDROOT
BRANCH   1  16
ATOM      2  C   UNL     1      -0.096   3.413  -7.491  0.00  0.00    +0.011 C 
ATOM      3  C   UNL     1       0.569   2.046  -7.669  0.00  0.00    -0.023 C 
ATOM      4  C   UNL     1       1.132   1.909  -9.083  0.00  0.00    +0.007 C 
ATOM      5  C   UNL     1       0.014   2.103 -10.108  0.00  0.00    +0.003 C 
ATOM      6  C   UNL     1      -1.032   0.997  -9.939  0.00  0.00    +0.037 C 
ATOM      7  C   UNL     1      -1.544   1.015  -8.496  0.00  0.00    +0.096 C 
ATOM      8  C   UNL     1      -0.460   0.934  -7.420  0.00  0.00    +0.030 C 
ATOM      9  C   UNL     1      -1.078   1.156  -6.042  0.00  0.00    +0.014 C 
ATOM     10  C   UNL     1      -0.016   1.042  -4.947  0.00  0.00    +0.042 C 
ATOM     11  C   UNL     1       1.174   1.979  -5.233  0.00  0.00    +0.181 C 
ATOM     12  C   UNL     1       1.694   1.884  -6.646  0.00  0.00    +0.052 C 
ATOM     13  O   UNL     1       0.658   3.298  -4.894  0.00  0.00    -0.461 OA
ATOM     14  C   UNL     1      -0.078   3.163  -3.765  0.00  0.00    +0.309 C 
ATOM     15  O   UNL     1      -0.281   4.031  -2.950  0.00  0.00    -0.251 OA
ATOM     16  C   UNL     1      -0.605   1.742  -3.686  0.00  0.00    +0.088 C 
ATOM     17  C   UNL     1      -2.795   1.838  -8.192  0.00  0.00    +0.196 C 
ATOM     18  O   UNL     1      -2.806   0.409  -8.225  0.00  0.00    -0.368 OA
ENDBRANCH   1  16
BRANCH   1  19
ATOM     19  N   UNL     1      -0.583  -0.334  -2.387  0.00  0.00    +0.382 N 
ATOM     20  C   UNL     1      -0.203  -0.997  -1.132  0.00  0.00    -0.063 C 
ATOM     21  C   UNL     1      -0.645  -2.462  -1.179  0.00  0.00    +0.066 C 
ATOM     22  N   UNL     1      -2.098  -2.527  -1.387  0.00  0.00    -0.302 NA
ATOM     23  C   UNL     1      -2.477  -1.863  -2.642  0.00  0.00    +0.066 C 
ATOM     24  C   UNL     1      -2.036  -0.398  -2.595  0.00  0.00    -0.063 C 
ATOM     25  H   UNL     1      -0.097  -0.870  -3.216  0.00  0.00    -0.082 HD
BRANCH  22  26
ATOM     26  C   UNL     1      -2.572  -3.917  -1.363  0.00  0.00    +0.119 C 
BRANCH  26  27
ATOM     27  C   UNL     1      -1.962  -4.635  -0.186  0.00  0.00    -0.030 A 
ATOM     28  C   UNL     1      -2.612  -4.635   1.034  0.00  0.00    +0.009 A 
ATOM     29  C   UNL     1      -2.057  -5.293   2.116  0.00  0.00    +0.050 A 
ATOM     30  C   UNL     1      -0.847  -5.954   1.979  0.00  0.00    +0.166 A 
ATOM     31  C   UNL     1      -0.193  -5.954   0.750  0.00  0.00    +0.167 A 
ATOM     32  C   UNL     1      -0.757  -5.297  -0.332  0.00  0.00    +0.054 A 
ATOM     33  O   UNL     1       0.966  -6.666   0.872  0.00  0.00    -0.453 OA
ATOM     34  C   UNL     1       1.214  -6.755   2.287  0.00  0.00    +0.466 C 
ATOM     35  O   UNL     1      -0.099  -6.666   2.871  0.00  0.00    -0.453 OA
ENDBRANCH  26  27
ENDBRANCH  22  26
ENDBRANCH   1  19
TORSDOF 4
