REMARK  Name = ZINC25011413
REMARK  8 active torsions:
REMARK  status: ('A' for Active; 'I' for Inactive)
REMARK    1  A    between atoms: C_1  and  C_2
REMARK    2  A    between atoms: N_5  and  C_8
REMARK    3  A    between atoms: C_8  and  C_9
REMARK    4  A    between atoms: C_15  and  C_17
REMARK    5  A    between atoms: C_17  and  C_19
REMARK    6  A    between atoms: C_17  and  N_20
REMARK    7  A    between atoms: C_21  and  C_23
REMARK    8  A    between atoms: C_23  and  C_24
REMARK                            x       y       z     vdW  Elec       q    Type
REMARK                         _______ _______ _______ _____ _____    ______ ____
ROOT
ATOM      1  C   UNL     1      -8.248   9.547  -4.890  0.00  0.00    +0.034 A 
ATOM      2  C   UNL     1      -8.470   9.960  -3.619  0.00  0.00    +0.070 A 
ATOM      3  S   UNL     1      -7.463   8.796  -2.711  0.00  0.00    -0.060 S 
ATOM      4  C   UNL     1      -6.866   7.903  -4.075  0.00  0.00    +0.165 A 
ATOM      5  N   UNL     1      -7.440   8.524  -5.087  0.00  0.00    -0.231 NA
ATOM      6  N   UNL     1      -6.000   6.816  -4.096  0.00  0.00    -0.263 N 
ATOM      7  C   UNL     1      -5.509   6.323  -2.942  0.00  0.00    +0.239 C 
ATOM      8  O   UNL     1      -5.823   6.828  -1.885  0.00  0.00    -0.273 OA
ATOM      9  H   UNL     1      -5.715   6.357  -5.055  0.00  0.00    +0.157 HD
ENDROOT
BRANCH   7  10
ATOM     10  C   UNL     1      -4.570   5.144  -2.965  0.00  0.00    +0.156 C 
ATOM     11  C   UNL     1      -5.271   3.946  -3.610  0.00  0.00    +0.038 C 
BRANCH  10  12
ATOM     12  N   UNL     1      -4.182   4.803  -1.594  0.00  0.00    -0.304 N 
ATOM     13  C   UNL     1      -3.019   4.162  -1.363  0.00  0.00    +0.218 C 
ATOM     14  O   UNL     1      -2.294   3.869  -2.289  0.00  0.00    -0.275 OA
ATOM     15  H   UNL     1      -4.840   5.069  -0.753  0.00  0.00    +0.149 HD
BRANCH  13  16
ATOM     16  C   UNL     1      -2.620   3.811   0.048  0.00  0.00    +0.131 C 
BRANCH  16  17
ATOM     17  C   UNL     1      -1.288   3.106   0.032  0.00  0.00    -0.031 A 
ATOM     18  C   UNL     1      -1.234   1.746   0.017  0.00  0.00    +0.005 A 
ATOM     19  C   UNL     1      -0.013   1.076   0.008  0.00  0.00    +0.001 A 
ATOM     20  C   UNL     1       1.163   1.762   0.000  0.00  0.00    +0.008 A 
ATOM     21  C   UNL     1       1.147   3.167   0.008  0.00  0.00    -0.018 A 
ATOM     22  C   UNL     1      -0.095   3.848   0.024  0.00  0.00    -0.014 A 
ATOM     23  C   UNL     1      -0.111   5.254   0.031  0.00  0.00    +0.009 A 
ATOM     24  C   UNL     1       1.064   5.940   0.023  0.00  0.00    +0.001 A 
ATOM     25  C   UNL     1       2.287   5.270   0.008  0.00  0.00    +0.001 A 
ATOM     26  C   UNL     1       2.340   3.910   0.000  0.00  0.00    +0.008 A 
ENDBRANCH  16  17
ENDBRANCH  13  16
ENDBRANCH  10  12
ENDBRANCH   7  10
BRANCH   1  27
ATOM     27  C   UNL     1      -8.905  10.246  -6.053  0.00  0.00    -0.022 C 
BRANCH  27  32
ATOM     28  C   UNL     1      -5.242  13.575  -8.912  0.00  0.00    +0.007 C 
ATOM     29  C   UNL     1      -6.160  12.419  -8.507  0.00  0.00    -0.018 C 
ATOM     30  C   UNL     1      -7.590  12.938  -8.335  0.00  0.00    -0.016 C 
ATOM     31  C   UNL     1      -8.490  11.791  -7.871  0.00  0.00    -0.078 C 
ATOM     32  N   UNL     1      -7.988  11.256  -6.599  0.00  0.00    +0.383 N 
ATOM     33  C   UNL     1      -6.633  10.709  -6.751  0.00  0.00    -0.078 C 
ATOM     34  C   UNL     1      -5.677  11.824  -7.182  0.00  0.00    -0.016 C 
ATOM     35  H   UNL     1      -7.935  12.089  -5.882  0.00  0.00    -0.081 HD
ENDBRANCH  27  32
ENDBRANCH   1  27
TORSDOF 6
