REMARK  Name = ZINC29523634
REMARK  8 active torsions:
REMARK  status: ('A' for Active; 'I' for Inactive)
REMARK    1  A    between atoms: C_1  and  N_2
REMARK    2  A    between atoms: N_2  and  C_3
REMARK    3  A    between atoms: N_2  and  C_10
REMARK    4  A    between atoms: C_3  and  C_4
REMARK    5  A    between atoms: C_10  and  C_11
REMARK    6  A    between atoms: N_16  and  C_17
REMARK    7  A    between atoms: C_17  and  C_18
REMARK    8  A    between atoms: C_18  and  C_19
REMARK                            x       y       z     vdW  Elec       q    Type
REMARK                         _______ _______ _______ _____ _____    ______ ____
ROOT
ATOM      1  C   UNL     1       4.097   1.247   2.583  0.00  0.00    +0.204 C 
ATOM      2  O   UNL     1       3.516   0.459   3.298  0.00  0.00    -0.277 OA
ATOM      3  N   UNL     1       5.304   1.725   2.947  0.00  0.00    -0.242 N 
ATOM      4  C   UNL     1       5.864   1.327   4.106  0.00  0.00    +0.306 C 
ATOM      5  O   UNL     1       5.282   0.537   4.823  0.00  0.00    -0.252 OA
ATOM      6  N   UNL     1       7.071   1.805   4.471  0.00  0.00    -0.299 N 
ATOM      7  H   UNL     1       5.831   2.440   2.298  0.00  0.00    +0.159 HD
ATOM      8  H   UNL     1       7.598   2.520   3.822  0.00  0.00    +0.150 HD
ENDROOT
BRANCH   1   9
ATOM      9  C   UNL     1       3.470   1.692   1.287  0.00  0.00    +0.019 C 
BRANCH   9  11
ATOM     10  C   UNL     1       2.329  -0.417   0.952  0.00  0.00    -0.096 C 
ATOM     11  N   UNL     1       2.168   1.034   1.121  0.00  0.00    +0.384 N 
ATOM     12  H   UNL     1       1.584   1.204   2.038  0.00  0.00    -0.082 HD
BRANCH  11  13
ATOM     13  C   UNL     1       1.423   1.615  -0.003  0.00  0.00    -0.075 C 
BRANCH  13  14
ATOM     14  C   UNL     1      -0.013   1.086   0.008  0.00  0.00    -0.028 C 
ATOM     15  C   UNL     1      -0.729   1.579   1.267  0.00  0.00    +0.002 C 
ATOM     16  C   UNL     1      -2.164   1.050   1.278  0.00  0.00    +0.000 C 
ATOM     17  C   UNL     1      -2.904   1.556   0.038  0.00  0.00    +0.000 C 
ATOM     18  C   UNL     1      -2.188   1.063  -1.221  0.00  0.00    +0.000 C 
ATOM     19  C   UNL     1      -0.753   1.593  -1.232  0.00  0.00    +0.002 C 
ENDBRANCH  13  14
ENDBRANCH  11  13
ENDBRANCH   9  11
ENDBRANCH   1   9
BRANCH   6  20
ATOM     20  C   UNL     1       7.680   1.373   5.731  0.00  0.00    +0.110 C 
BRANCH  20  21
ATOM     21  C   UNL     1       9.037   2.059   5.903  0.00  0.00    +0.049 C 
BRANCH  21  22
ATOM     22  C   UNL     1       9.664   1.614   7.199  0.00  0.00    -0.072 C 
ATOM     23  C   UNL     1      10.501   0.628   7.161  0.00  0.00    -0.028 C 
ATOM     24  C   UNL     1      11.197   0.068   8.367  0.00  0.00    +0.027 C 
ATOM     25  C   UNL     1      11.117   1.060   9.530  0.00  0.00    +0.004 C 
ATOM     26  C   UNL     1       9.659   1.513   9.682  0.00  0.00    +0.005 C 
ATOM     27  C   UNL     1       9.283   2.345   8.453  0.00  0.00    +0.030 C 
ENDBRANCH  21  22
ENDBRANCH  20  21
ENDBRANCH   6  20
TORSDOF 7
