REMARK  Name = ZINC64002314
REMARK  7 active torsions:
REMARK  status: ('A' for Active; 'I' for Inactive)
REMARK    1  A    between atoms: C_1  and  C_2
REMARK    2  A    between atoms: C_11  and  C_13
REMARK    3  A    between atoms: N_15  and  C_16
REMARK    4  A    between atoms: N_15  and  C_17
REMARK    5  A    between atoms: N_23  and  C_24
REMARK    6  A    between atoms: C_24  and  C_25
REMARK    7  A    between atoms: C_25  and  C_26
REMARK                            x       y       z     vdW  Elec       q    Type
REMARK                         _______ _______ _______ _____ _____    ______ ____
ROOT
ATOM      1  C   UNL     1      -0.157   1.570   0.227  0.00  0.00    +0.014 C 
ATOM      2  C   UNL     1      -0.096   0.046   0.109  0.00  0.00    +0.044 C 
ATOM      3  C   UNL     1      -1.479  -0.518   0.300  0.00  0.00    +0.028 A 
ATOM      4  C   UNL     1      -2.520  -0.577  -0.641  0.00  0.00    +0.126 A 
ATOM      5  N   UNL     1      -3.690  -1.098  -0.296  0.00  0.00    -0.221 NA
ATOM      6  C   UNL     1      -3.909  -1.565   0.917  0.00  0.00    +0.224 A 
ATOM      7  N   UNL     1      -2.962  -1.539   1.836  0.00  0.00    -0.229 NA
ATOM      8  C   UNL     1      -1.767  -1.042   1.559  0.00  0.00    +0.106 A 
ATOM      9  S   UNL     1      -0.281  -0.888   2.522  0.00  0.00    -0.092 S 
ATOM     10  C   UNL     1       0.895  -0.503   1.162  0.00  0.00    +0.146 C 
ATOM     11  N   UNL     1      -2.325  -0.094  -1.926  0.00  0.00    -0.328 N 
ATOM     12  H   UNL     1      -1.468   0.287  -2.176  0.00  0.00    +0.147 HD
ENDROOT
BRANCH  10  13
ATOM     13  C   UNL     1       1.890   0.549   1.580  0.00  0.00    +0.230 C 
ATOM     14  O   UNL     1       1.721   1.168   2.609  0.00  0.00    -0.274 OA
ATOM     15  N   UNL     1       2.968   0.800   0.811  0.00  0.00    -0.298 N 
ATOM     16  C   UNL     1       3.172   0.051  -0.431  0.00  0.00    +0.132 C 
BRANCH  15  17
ATOM     17  C   UNL     1       3.936   1.822   1.218  0.00  0.00    +0.103 C 
ATOM     18  C   UNL     1       4.068   2.909   0.123  0.00  0.00    +0.053 C 
ATOM     19  C   UNL     1       5.595   3.178   0.117  0.00  0.00    +0.162 C 
ATOM     20  O   UNL     1       6.168   1.872   0.340  0.00  0.00    -0.378 OA
ATOM     21  C   UNL     1       5.348   1.215   1.325  0.00  0.00    +0.182 C 
ENDBRANCH  15  17
ENDBRANCH  10  13
BRANCH  11  22
ATOM     22  C   UNL     1      -3.412  -0.158  -2.905  0.00  0.00    +0.107 C 
BRANCH  22  23
ATOM     23  C   UNL     1      -2.938   0.437  -4.233  0.00  0.00    +0.052 C 
BRANCH  23  24
ATOM     24  C   UNL     1      -4.057   0.372  -5.240  0.00  0.00    -0.040 C 
ATOM     25  C   UNL     1      -4.942   1.351  -5.538  0.00  0.00    -0.001 A 
ATOM     26  C   UNL     1      -5.121   2.716  -5.032  0.00  0.00    +0.010 A 
ATOM     27  C   UNL     1      -6.121   3.477  -5.534  0.00  0.00    +0.001 A 
ATOM     28  C   UNL     1      -6.987   2.994  -6.524  0.00  0.00    +0.002 A 
ATOM     29  C   UNL     1      -6.886   1.750  -7.039  0.00  0.00    +0.026 A 
ATOM     30  C   UNL     1      -5.870   0.864  -6.584  0.00  0.00    +0.043 A 
ATOM     31  N   UNL     1      -5.571  -0.367  -6.920  0.00  0.00    -0.380 N 
ATOM     32  C   UNL     1      -4.414  -0.800  -6.128  0.00  0.00    +0.144 C 
ATOM     33  H   UNL     1      -6.034  -0.901  -7.583  0.00  0.00    +0.160 HD
ENDBRANCH  23  24
ENDBRANCH  22  23
ENDBRANCH  11  22
TORSDOF 5
