REMARK  Name = ZINC09357301
REMARK  7 active torsions:
REMARK  status: ('A' for Active; 'I' for Inactive)
REMARK    1  A    between atoms: C_1  and  C_2
REMARK    2  A    between atoms: C_2  and  O_3
REMARK    3  A    between atoms: O_3  and  C_4
REMARK    4  A    between atoms: C_7  and  C_10
REMARK    5  A    between atoms: C_17  and  N_30
REMARK    6  A    between atoms: C_18  and  C_28
REMARK    7  A    between atoms: C_19  and  C_21
REMARK                            x       y       z     vdW  Elec       q    Type
REMARK                         _______ _______ _______ _____ _____    ______ ____
ROOT
ATOM      1  C   UNL     1       1.108  -6.016  -1.844  0.00  0.00    +0.074 A 
ATOM      2  C   UNL     1       2.219  -6.696  -2.216  0.00  0.00    +0.054 A 
ATOM      3  C   UNL     1       1.898  -8.067  -2.264  0.00  0.00    +0.245 A 
ATOM      4  N   UNL     1       0.645  -8.206  -1.934  0.00  0.00    -0.135 NA
ATOM      5  N   UNL     1       0.115  -6.936  -1.657  0.00  0.00    -0.273 N 
ATOM      6  H   UNL     1      -0.796  -6.746  -1.382  0.00  0.00    +0.189 HD
ATOM      7  O   UNL     1       2.815  -9.010  -2.612  0.00  0.00    -0.421 OA
ATOM      8  C   UNL     1       3.964  -8.582  -3.172  0.00  0.00    +0.201 C 
ATOM      9  C   UNL     1       4.381  -7.299  -3.177  0.00  0.00    +0.098 C 
ATOM     10  C   UNL     1       3.597  -6.179  -2.542  0.00  0.00    +0.102 C 
ENDROOT
BRANCH  10  11
ATOM     11  C   UNL     1       4.284  -5.730  -1.277  0.00  0.00    -0.034 A 
ATOM     12  C   UNL     1       4.508  -6.634  -0.255  0.00  0.00    +0.006 A 
ATOM     13  C   UNL     1       5.137  -6.223   0.905  0.00  0.00    +0.020 A 
ATOM     14  C   UNL     1       5.543  -4.908   1.043  0.00  0.00    +0.041 A 
ATOM     15  C   UNL     1       5.319  -4.004   0.020  0.00  0.00    +0.020 A 
ATOM     16  C   UNL     1       4.694  -4.417  -1.142  0.00  0.00    +0.006 A 
ATOM     17 CL   UNL     1       6.334  -4.391   2.500  0.00  0.00    -0.084 Cl
ENDBRANCH  10  11
BRANCH   1  21
ATOM     18  C   UNL     1       0.777  -1.810  -1.336  0.00  0.00    +0.121 A 
ATOM     19  C   UNL     1       0.241  -2.667  -0.384  0.00  0.00    +0.046 A 
ATOM     20  C   UNL     1       0.347  -4.032  -0.545  0.00  0.00    +0.013 A 
ATOM     21  C   UNL     1       0.992  -4.552  -1.667  0.00  0.00    +0.000 A 
ATOM     22  C   UNL     1       1.529  -3.688  -2.623  0.00  0.00    +0.013 A 
ATOM     23  C   UNL     1       1.415  -2.324  -2.457  0.00  0.00    +0.046 A 
BRANCH  18  24
ATOM     24  O   UNL     1       0.671  -0.465  -1.174  0.00  0.00    -0.492 OA
BRANCH  24  26
ATOM     25  C   UNL     1      -0.019   1.526   0.010  0.00  0.00    +0.048 C 
ATOM     26  C   UNL     1       0.002  -0.004   0.002  0.00  0.00    +0.225 C 
ENDBRANCH  24  26
ENDBRANCH  18  24
ENDBRANCH   1  21
BRANCH   8  27
ATOM     27  N   UNL     1       4.765  -9.517  -3.779  0.00  0.00    -0.328 N 
ATOM     28  H   UNL     1       4.497 -10.449  -3.795  0.00  0.00    +0.145 HD
ATOM     29  H   UNL     1       5.600  -9.245  -4.192  0.00  0.00    +0.145 HD
ENDBRANCH   8  27
BRANCH   9  30
ATOM     30  C   UNL     1       5.625  -6.987  -3.814  0.00  0.00    +0.101 C 
ATOM     31  N   UNL     1       6.612  -6.739  -4.320  0.00  0.00    -0.191 NA
ENDBRANCH   9  30
TORSDOF 6
