REMARK  Name = ZINC12318519
REMARK  12 active torsions:
REMARK  status: ('A' for Active; 'I' for Inactive)
REMARK    1  A    between atoms: C_1  and  C_2
REMARK    2  A    between atoms: C_2  and  C_13
REMARK    3  A    between atoms: C_3  and  C_4
REMARK    4  A    between atoms: C_4  and  C_5
REMARK    5  A    between atoms: C_5  and  C_6
REMARK    6  A    between atoms: C_6  and  C_12
REMARK    7  A    between atoms: N_7  and  N_8
REMARK    8  A    between atoms: C_13  and  C_14
REMARK    9  A    between atoms: C_14  and  C_15
REMARK   10  A    between atoms: C_23  and  C_30
REMARK   11  A    between atoms: C_27  and  C_28
REMARK   12  A    between atoms: C_27  and  C_29
REMARK                            x       y       z     vdW  Elec       q    Type
REMARK                         _______ _______ _______ _____ _____    ______ ____
ROOT
ATOM      1  C   UNL     1      -2.547   7.288   2.731  0.00  0.00    +0.031 C 
ENDROOT
BRANCH   1   3
ATOM      2  C   UNL     1      -4.515   7.030   4.426  0.00  0.00    +0.039 C 
ATOM      3  C   UNL     1      -3.043   7.205   4.151  0.00  0.00    -0.077 C 
ATOM      4  C   UNL     1      -2.196   7.284   5.147  0.00  0.00    -0.028 C 
BRANCH   4   5
ATOM      5  C   UNL     1      -0.714   7.315   4.875  0.00  0.00    +0.033 C 
BRANCH   5   6
ATOM      6  C   UNL     1      -0.117   8.604   5.444  0.00  0.00    +0.056 C 
BRANCH   6   7
ATOM      7  C   UNL     1       1.364   8.634   5.172  0.00  0.00    +0.034 C 
ATOM      8  N   UNL     1       1.854   9.527   4.396  0.00  0.00    -0.188 NA
ATOM      9  C   UNL     1       2.269   7.613   5.812  0.00  0.00    +0.062 C 
BRANCH   8  10
ATOM     10  N   UNL     1       3.232   9.556   4.143  0.00  0.00    -0.191 N 
ATOM     11  C   UNL     1       3.748  10.496   3.327  0.00  0.00    +0.317 C 
ATOM     12  O   UNL     1       4.944  10.521   3.107  0.00  0.00    -0.251 OA
ATOM     13  N   UNL     1       2.938  11.409   2.755  0.00  0.00    -0.312 N 
ATOM     14  H   UNL     1       3.814   8.899   4.555  0.00  0.00    +0.179 HD
ATOM     15  H   UNL     1       1.985  11.389   2.930  0.00  0.00    +0.147 HD
ATOM     16  H   UNL     1       3.310  12.086   2.167  0.00  0.00    +0.147 HD
ENDBRANCH   8  10
ENDBRANCH   6   7
ENDBRANCH   5   6
ENDBRANCH   4   5
ENDBRANCH   1   3
BRANCH   1  17
ATOM     17  C   UNL     1      -2.313   5.877   2.188  0.00  0.00    +0.013 C 
BRANCH  17  18
ATOM     18  C   UNL     1      -1.811   5.962   0.751  0.00  0.00    +0.021 C 
ATOM     19  C   UNL     1      -0.462   6.644   0.720  0.00  0.00    -0.073 C 
ATOM     20  C   UNL     1      -0.346   7.871   0.267  0.00  0.00    +0.008 C 
ATOM     21  C   UNL     1       0.748   5.894   1.226  0.00  0.00    +0.031 C 
ATOM     22  C   UNL     1       0.794   4.514   0.554  0.00  0.00    +0.009 C 
ATOM     23  C   UNL     1      -0.545   3.807   0.776  0.00  0.00    +0.002 C 
ATOM     24  C   UNL     1      -1.675   4.571   0.108  0.00  0.00    -0.022 C 
ATOM     25  C   UNL     1      -2.999   3.820   0.243  0.00  0.00    +0.007 C 
ATOM     26  C   UNL     1      -2.856   2.420  -0.360  0.00  0.00    +0.001 C 
ATOM     27  C   UNL     1      -1.816   1.642   0.438  0.00  0.00    +0.007 C 
ATOM     28  C   UNL     1      -0.455   2.334   0.418  0.00  0.00    -0.032 C 
ATOM     29  C   UNL     1       0.224   2.101  -0.931  0.00  0.00    +0.011 C 
ATOM     30  C   UNL     1       0.410   1.633   1.492  0.00  0.00    +0.011 C 
ATOM     31  C   UNL     1      -1.396   4.801  -1.386  0.00  0.00    +0.012 C 
ENDBRANCH  17  18
ENDBRANCH   1  17
TORSDOF 7
