REMARK  Name = ZINC19880395
REMARK  4 active torsions:
REMARK  status: ('A' for Active; 'I' for Inactive)
REMARK    1  A    between atoms: C_4  and  C_7
REMARK    2  A    between atoms: C_14  and  C_25
REMARK    3  A    between atoms: N_16  and  C_19
REMARK    4  A    between atoms: C_29  and  N_31
REMARK                            x       y       z     vdW  Elec       q    Type
REMARK                         _______ _______ _______ _____ _____    ______ ____
ROOT
ATOM      1  C   UNL     1       3.698  -0.688  -0.037  0.00  0.00    +0.050 C 
ATOM      2  N   UNL     1       4.835  -0.026  -0.139  0.00  0.00    -0.382 N 
ATOM      3  C   UNL     1       6.078  -0.753  -0.368  0.00  0.00    +0.131 C 
ATOM      4  C   UNL     1       6.642  -1.422   0.891  0.00  0.00    +0.122 C 
ATOM      5  N   UNL     1       5.562  -2.096   1.621  0.00  0.00    -0.338 N 
ATOM      6  C   UNL     1       4.612  -2.784   0.883  0.00  0.00    +0.098 C 
ATOM      7  C   UNL     1       3.742  -2.149   0.064  0.00  0.00    +0.027 C 
ATOM      8  C   UNL     1       2.923  -3.202  -0.618  0.00  0.00    +0.146 C 
ATOM      9  N   UNL     1       3.377  -4.485  -0.056  0.00  0.00    -0.255 N 
ATOM     10  C   UNL     1       4.357  -4.229   0.819  0.00  0.00    +0.266 C 
ATOM     11  O   UNL     1       4.943  -5.071   1.472  0.00  0.00    -0.268 OA
ATOM     12  H   UNL     1       5.515  -2.061   2.589  0.00  0.00    +0.146 HD
ATOM     13  H   UNL     1       4.843   0.941  -0.061  0.00  0.00    +0.160 HD
ENDROOT
BRANCH   1  17
ATOM     14  C   UNL     1      -0.017   1.379   0.010  0.00  0.00    +0.000 A 
ATOM     15  C   UNL     1       1.147   2.060  -0.302  0.00  0.00    +0.001 A 
ATOM     16  C   UNL     1       2.355   1.394  -0.318  0.00  0.00    +0.010 A 
ATOM     17  C   UNL     1       2.403   0.033  -0.021  0.00  0.00    -0.002 A 
ATOM     18  C   UNL     1       1.227  -0.648   0.292  0.00  0.00    +0.010 A 
ATOM     19  C   UNL     1       0.024   0.028   0.306  0.00  0.00    +0.001 A 
ENDBRANCH   1  17
BRANCH   9  20
ATOM     20  C   UNL     1       2.879  -5.749  -0.386  0.00  0.00    +0.038 A 
ATOM     21  C   UNL     1       1.864  -5.873  -1.326  0.00  0.00    +0.023 A 
ATOM     22  C   UNL     1       1.374  -7.123  -1.649  0.00  0.00    +0.002 A 
ATOM     23  C   UNL     1       1.892  -8.250  -1.038  0.00  0.00    +0.000 A 
ATOM     24  C   UNL     1       2.902  -8.130  -0.101  0.00  0.00    +0.002 A 
ATOM     25  C   UNL     1       3.400  -6.883   0.223  0.00  0.00    +0.023 A 
ENDBRANCH   9  20
BRANCH   8  26
ATOM     26  C   UNL     1       3.166  -3.167  -2.105  0.00  0.00    -0.020 A 
ATOM     27  C   UNL     1       4.292  -3.769  -2.635  0.00  0.00    +0.006 A 
ATOM     28  C   UNL     1       4.514  -3.737  -3.999  0.00  0.00    +0.003 A 
ATOM     29  C   UNL     1       3.610  -3.105  -4.833  0.00  0.00    +0.033 A 
ATOM     30  C   UNL     1       2.484  -2.505  -4.302  0.00  0.00    +0.127 A 
ATOM     31  C   UNL     1       2.259  -2.540  -2.938  0.00  0.00    +0.038 A 
BRANCH  30  32
ATOM     32  N   UNL     1       1.516  -1.827  -5.194  0.00  0.00    +0.056 N 
ATOM     33  O   UNL     1       1.711  -1.799  -6.387  0.00  0.00    -0.126 OA
ATOM     34  O   UNL     1       0.531  -1.302  -4.730  0.00  0.00    -0.126 OA
ENDBRANCH  30  32
ENDBRANCH   8  26
TORSDOF 4
