REMARK  Name = ZINC00645666
REMARK  5 active torsions:
REMARK  status: ('A' for Active; 'I' for Inactive)
REMARK    1  A    between atoms: C_1  and  C_2
REMARK    2  A    between atoms: C_5  and  S_8
REMARK    3  A    between atoms: S_8  and  N_11
REMARK    4  A    between atoms: N_11  and  C_12
REMARK    5  A    between atoms: C_25  and  C_27
REMARK                            x       y       z     vdW  Elec       q    Type
REMARK                         _______ _______ _______ _____ _____    ______ ____
ROOT
ATOM      1  N   UNL     1       0.148  -0.461   1.976  0.00  0.00    -0.140 N 
ATOM      2  C   UNL     1       0.051  -0.780   0.670  0.00  0.00    +0.236 C 
ATOM      3  O   UNL     1      -0.995  -1.201   0.224  0.00  0.00    -0.274 OA
ATOM      4  C   UNL     1       1.243  -0.612  -0.237  0.00  0.00    +0.111 C 
ENDROOT
BRANCH   1   5
ATOM      5  C   UNL     1      -0.985  -0.523   2.798  0.00  0.00    +0.061 A 
ATOM      6  C   UNL     1      -2.111   0.236   2.487  0.00  0.00    +0.029 A 
ATOM      7  C   UNL     1      -3.233   0.182   3.284  0.00  0.00    +0.049 A 
ATOM      8  C   UNL     1      -3.248  -0.626   4.414  0.00  0.00    +0.136 A 
ATOM      9  C   UNL     1      -2.111  -1.390   4.733  0.00  0.00    +0.025 A 
ATOM     10  C   UNL     1      -0.981  -1.333   3.919  0.00  0.00    +0.037 A 
ATOM     11  C   UNL     1      -2.462  -2.109   5.956  0.00  0.00    +0.001 A 
ATOM     12  C   UNL     1      -3.717  -1.747   6.270  0.00  0.00    +0.109 A 
ATOM     13  O   UNL     1      -4.178  -0.873   5.361  0.00  0.00    -0.459 OA
ATOM     14  C   UNL     1      -4.461  -2.274   7.476  0.00  0.00    +0.075 C 
ATOM     15  C   UNL     1      -3.746  -3.535   7.976  0.00  0.00    +0.008 C 
ATOM     16  C   UNL     1      -2.251  -3.246   8.134  0.00  0.00    +0.005 C 
ATOM     17  C   UNL     1      -1.619  -3.074   6.746  0.00  0.00    +0.039 C 
ENDBRANCH   1   5
BRANCH   1  18
ATOM     18  S   UNL     1       1.606   0.003   2.609  0.00  0.00    +0.081 S 
ATOM     19  O   UNL     1       2.597  -0.795   1.975  0.00  0.00    -0.149 OA
ATOM     20  O   UNL     1       1.444   0.037   4.020  0.00  0.00    -0.149 OA
BRANCH  18  25
ATOM     21  C   UNL     1       2.587   5.690   0.847  0.00  0.00    +0.044 C 
ATOM     22  C   UNL     1       2.342   4.270   1.287  0.00  0.00    -0.050 A 
ATOM     23  C   UNL     1       1.550   4.015   2.391  0.00  0.00    +0.005 A 
ATOM     24  C   UNL     1       1.326   2.712   2.795  0.00  0.00    +0.029 A 
ATOM     25  C   UNL     1       1.893   1.664   2.094  0.00  0.00    +0.109 A 
ATOM     26  C   UNL     1       2.688   1.919   0.993  0.00  0.00    +0.029 A 
ATOM     27  C   UNL     1       2.909   3.222   0.587  0.00  0.00    +0.005 A 
ENDBRANCH  18  25
ENDBRANCH   1  18
TORSDOF 3
