REMARK  Name = ZINC65770370
REMARK  6 active torsions:
REMARK  status: ('A' for Active; 'I' for Inactive)
REMARK    1  A    between atoms: C_4  and  C_7
REMARK    2  A    between atoms: C_7  and  N_8
REMARK    3  A    between atoms: N_8  and  C_9
REMARK    4  A    between atoms: C_9  and  C_10
REMARK    5  A    between atoms: C_10  and  C_11
REMARK    6  A    between atoms: N_16  and  C_17
REMARK                            x       y       z     vdW  Elec       q    Type
REMARK                         _______ _______ _______ _____ _____    ______ ____
ROOT
ATOM      1  N   UNL     1       4.018  -0.858   1.395  0.00  0.00    -0.281 N 
ATOM      2  C   UNL     1       4.786   0.041   2.042  0.00  0.00    +0.307 C 
ATOM      3  O   UNL     1       4.989   1.133   1.549  0.00  0.00    -0.252 OA
ATOM      4  N   UNL     1       5.330  -0.272   3.235  0.00  0.00    -0.269 N 
ATOM      5  H   UNL     1       5.106  -1.113   3.664  0.00  0.00    +0.156 HD
ENDROOT
BRANCH   4   6
ATOM      6  C   UNL     1       6.213   0.613   3.853  0.00  0.00    +0.036 A 
ATOM      7  C   UNL     1       7.061   1.396   3.079  0.00  0.00    +0.024 A 
ATOM      8  C   UNL     1       7.941   2.277   3.679  0.00  0.00    +0.015 A 
ATOM      9  C   UNL     1       7.978   2.381   5.063  0.00  0.00    +0.049 A 
ATOM     10  C   UNL     1       7.118   1.588   5.852  0.00  0.00    +0.051 A 
ATOM     11  C   UNL     1       6.237   0.712   5.243  0.00  0.00    +0.037 A 
ATOM     12  C   UNL     1       7.415   1.944   7.256  0.00  0.00    +0.251 C 
ATOM     13  O   UNL     1       6.877   1.470   8.236  0.00  0.00    -0.270 OA
ATOM     14  N   UNL     1       8.381   2.879   7.264  0.00  0.00    -0.248 N 
ATOM     15  C   UNL     1       8.765   3.190   6.013  0.00  0.00    +0.251 C 
ATOM     16  O   UNL     1       9.619   4.001   5.715  0.00  0.00    -0.270 OA
ATOM     17  H   UNL     1       8.752   3.277   8.067  0.00  0.00    +0.158 HD
ENDBRANCH   4   6
BRANCH   1  18
ATOM     18  C   UNL     1       3.428  -0.518   0.098  0.00  0.00    +0.144 C 
BRANCH  18  22
ATOM     19  C   UNL     1      -0.410   1.259   0.700  0.00  0.00    +0.000 A 
ATOM     20  C   UNL     1       0.721   2.054   0.656  0.00  0.00    +0.000 A 
ATOM     21  C   UNL     1       1.962   1.479   0.461  0.00  0.00    +0.005 A 
ATOM     22  C   UNL     1       2.074   0.109   0.311  0.00  0.00    -0.030 A 
ATOM     23  C   UNL     1       0.944  -0.686   0.357  0.00  0.00    +0.005 A 
ATOM     24  C   UNL     1      -0.298  -0.110   0.550  0.00  0.00    +0.000 A 
ENDBRANCH  18  22
ENDBRANCH   1  18
BRANCH   1  25
ATOM     25  C   UNL     1       3.774  -2.175   1.988  0.00  0.00    +0.119 C 
BRANCH  25  26
ATOM     26  C   UNL     1       4.857  -3.151   1.527  0.00  0.00    +0.114 C 
BRANCH  26  27
ATOM     27  C   UNL     1       4.606  -4.506   2.138  0.00  0.00    +0.212 C 
ATOM     28  O   UNL     1       3.653  -4.674   2.870  0.00  0.00    -0.276 OA
ATOM     29  N   UNL     1       5.439  -5.531   1.870  0.00  0.00    -0.329 N 
ATOM     30  H   UNL     1       6.200  -5.397   1.285  0.00  0.00    +0.145 HD
ATOM     31  H   UNL     1       5.277  -6.403   2.263  0.00  0.00    +0.145 HD
ENDBRANCH  26  27
ENDBRANCH  25  26
ENDBRANCH   1  25
TORSDOF 6
