REMARK  Name = ZINC58522377
REMARK  10 active torsions:
REMARK  status: ('A' for Active; 'I' for Inactive)
REMARK    1  A    between atoms: C_1  and  C_2
REMARK    2  A    between atoms: C_2  and  N_3
REMARK    3  A    between atoms: N_3  and  C_4
REMARK    4  A    between atoms: N_3  and  C_6
REMARK    5  A    between atoms: C_4  and  C_5
REMARK    6  A    between atoms: C_6  and  C_7
REMARK    7  A    between atoms: C_7  and  N_8
REMARK    8  A    between atoms: N_17  and  C_18
REMARK    9  A    between atoms: C_18  and  C_20
REMARK   10  A    between atoms: C_20  and  C_21
REMARK                            x       y       z     vdW  Elec       q    Type
REMARK                         _______ _______ _______ _____ _____    ______ ____
ROOT
ATOM      1  N   UNL     1       2.224  -3.717  -0.499  0.00  0.00    -0.314 N 
ATOM      2  C   UNL     1       3.343  -4.392  -0.023  0.00  0.00    +0.068 A 
ATOM      3  C   UNL     1       4.452  -3.990   0.709  0.00  0.00    +0.028 A 
ATOM      4  C   UNL     1       5.426  -4.909   1.043  0.00  0.00    +0.002 A 
ATOM      5  C   UNL     1       5.303  -6.231   0.650  0.00  0.00    +0.002 A 
ATOM      6  C   UNL     1       4.204  -6.642  -0.079  0.00  0.00    +0.028 A 
ATOM      7  C   UNL     1       3.219  -5.726  -0.419  0.00  0.00    +0.066 A 
ATOM      8  N   UNL     1       2.026  -5.833  -1.127  0.00  0.00    -0.326 N 
ATOM      9  C   UNL     1       1.438  -4.608  -1.159  0.00  0.00    +0.201 A 
ATOM     10  N   UNL     1       0.278  -4.325  -1.746  0.00  0.00    -0.147 NA
ATOM     11  H   UNL     1       1.674  -6.643  -1.527  0.00  0.00    +0.169 HD
ENDROOT
BRANCH  10  12
ATOM     12  C   UNL     1      -0.463  -5.303  -2.260  0.00  0.00    +0.241 C 
ATOM     13  O   UNL     1      -0.127  -6.462  -2.111  0.00  0.00    -0.274 OA
BRANCH  12  14
ATOM     14  C   UNL     1      -1.718  -4.974  -3.026  0.00  0.00    +0.122 C 
BRANCH  14  15
ATOM     15  C   UNL     1      -2.377  -6.269  -3.505  0.00  0.00    +0.146 C 
ATOM     16  C   UNL     1      -3.569  -5.941  -4.366  0.00  0.00    +0.231 C 
ATOM     17  O   UNL     1      -3.435  -5.966  -5.572  0.00  0.00    -0.274 OA
ATOM     18  N   UNL     1      -4.761  -5.628  -3.869  0.00  0.00    -0.284 N 
ATOM     19  C   UNL     1      -5.138  -5.660  -2.530  0.00  0.00    +0.048 A 
ATOM     20  C   UNL     1      -6.287  -4.985  -2.132  0.00  0.00    +0.044 A 
ATOM     21  C   UNL     1      -6.677  -4.994  -0.806  0.00  0.00    +0.043 A 
ATOM     22  C   UNL     1      -5.929  -5.673   0.140  0.00  0.00    +0.021 A 
ATOM     23  C   UNL     1      -4.786  -6.351  -0.243  0.00  0.00    +0.018 A 
ATOM     24  C   UNL     1      -4.394  -6.349  -1.572  0.00  0.00    +0.030 A 
ATOM     25  S   UNL     1      -2.943  -7.234  -2.071  0.00  0.00    -0.110 S 
ATOM     26 CL   UNL     1      -8.114  -4.148  -0.324  0.00  0.00    -0.083 Cl
ATOM     27  H   UNL     1      -5.438  -5.347  -4.505  0.00  0.00    +0.155 HD
ENDBRANCH  14  15
ENDBRANCH  12  14
ENDBRANCH  10  12
BRANCH   1  28
ATOM     28  C   UNL     1       1.938  -2.292  -0.316  0.00  0.00    +0.106 C 
BRANCH  28  29
ATOM     29  C   UNL     1       1.144  -2.093   0.976  0.00  0.00    -0.057 C 
BRANCH  29  30
ATOM     30  N   UNL     1       0.858  -0.664   1.160  0.00  0.00    +0.380 N 
ATOM     31  H   UNL     1       1.721  -0.142   1.134  0.00  0.00    -0.082 HD
BRANCH  30  33
ATOM     32  C   UNL     1      -0.212   1.315   0.194  0.00  0.00    -0.017 C 
ATOM     33  C   UNL     1      -0.028  -0.200   0.084  0.00  0.00    -0.082 C 
ENDBRANCH  30  33
BRANCH  30  34
ATOM     34  C   UNL     1       0.201  -0.460   2.458  0.00  0.00    -0.082 C 
ATOM     35  C   UNL     1       1.176  -0.809   3.584  0.00  0.00    -0.017 C 
ENDBRANCH  30  34
ENDBRANCH  29  30
ENDBRANCH  28  29
ENDBRANCH   1  28
TORSDOF 8
