REMARK  Name = ZINC63612476
REMARK  14 active torsions:
REMARK  status: ('A' for Active; 'I' for Inactive)
REMARK    1  A    between atoms: C_1  and  C_2
REMARK    2  A    between atoms: C_2  and  O_3
REMARK    3  A    between atoms: O_3  and  C_4
REMARK    4  A    between atoms: C_4  and  C_6
REMARK    5  A    between atoms: C_7  and  C_38
REMARK    6  A    between atoms: C_9  and  C_14
REMARK    7  A    between atoms: C_11  and  C_13
REMARK    8  A    between atoms: C_14  and  N_15
REMARK    9  A    between atoms: N_15  and  C_16
REMARK   10  A    between atoms: C_16  and  C_17
REMARK   11  A    between atoms: C_20  and  C_23
REMARK   12  A    between atoms: C_24  and  C_26
REMARK   13  A    between atoms: C_32  and  O_36
REMARK   14  A    between atoms: O_36  and  C_37
REMARK                            x       y       z     vdW  Elec       q    Type
REMARK                         _______ _______ _______ _____ _____    ______ ____
ROOT
ATOM      1  N   UNL     1       4.442  -3.715   5.245  0.00  0.00    -0.293 N 
ATOM      2  C   UNL     1       4.763  -3.416   6.519  0.00  0.00    +0.242 C 
ATOM      3  O   UNL     1       5.436  -4.184   7.172  0.00  0.00    -0.273 OA
ENDROOT
BRANCH   2   4
ATOM      4  C   UNL     1       4.285  -2.125   7.133  0.00  0.00    +0.190 C 
ATOM      5  C   UNL     1       5.033  -0.955   6.534  0.00  0.00    +0.016 C 
ATOM      6  C   UNL     1       5.681  -0.358   7.559  0.00  0.00    -0.003 A 
ATOM      7  C   UNL     1       6.565   0.813   7.627  0.00  0.00    +0.013 A 
ATOM      8  C   UNL     1       7.077   1.179   8.821  0.00  0.00    +0.046 A 
ATOM      9  C   UNL     1       6.786   0.467  10.000  0.00  0.00    +0.122 A 
ATOM     10  C   UNL     1       5.978  -0.624  10.012  0.00  0.00    +0.071 A 
ATOM     11  C   UNL     1       5.388  -1.092   8.812  0.00  0.00    +0.047 A 
ATOM     12  N   UNL     1       4.587  -2.105   8.569  0.00  0.00    -0.370 N 
ATOM     13  H   UNL     1       4.252  -2.734   9.226  0.00  0.00    +0.161 HD
BRANCH   9  14
ATOM     14  O   UNL     1       7.333   0.886  11.168  0.00  0.00    -0.495 OA
ATOM     15  C   UNL     1       8.177   2.038  11.112  0.00  0.00    +0.277 C 
ENDBRANCH   9  14
ENDBRANCH   2   4
BRANCH   1  16
ATOM     16  C   UNL     1       3.723  -2.740   4.422  0.00  0.00    +0.131 C 
BRANCH  16  20
ATOM     17  C   UNL     1       0.593  -3.028   2.906  0.00  0.00    +0.058 C 
ATOM     18  C   UNL     1       0.862  -4.250   3.394  0.00  0.00    +0.011 C 
ATOM     19  N   UNL     1       1.775  -4.249   4.397  0.00  0.00    -0.342 N 
ATOM     20  C   UNL     1       2.219  -2.875   4.667  0.00  0.00    +0.095 C 
ATOM     21  C   UNL     1       1.431  -2.017   3.658  0.00  0.00    +0.046 C 
ATOM     22  C   UNL     1       2.384  -1.293   2.704  0.00  0.00    +0.014 C 
ATOM     23  C   UNL     1       0.209  -5.505   2.876  0.00  0.00    +0.061 C 
ATOM     24  H   UNL     1       2.089  -5.038   4.865  0.00  0.00    +0.146 HD
BRANCH  17  25
ATOM     25  C   UNL     1      -0.315  -2.736   1.865  0.00  0.00    +0.337 C 
ATOM     26  O   UNL     1      -0.938  -3.635   1.331  0.00  0.00    -0.245 OA
BRANCH  25  27
ATOM     27  O   UNL     1      -0.491  -1.460   1.461  0.00  0.00    -0.462 OA
BRANCH  27  29
ATOM     28  C   UNL     1      -1.489   0.257   0.084  0.00  0.00    +0.048 C 
ATOM     29  C   UNL     1      -1.425  -1.238   0.402  0.00  0.00    +0.229 C 
ENDBRANCH  27  29
ENDBRANCH  25  27
ENDBRANCH  17  25
ENDBRANCH  16  20
ENDBRANCH   1  16
BRANCH   1  30
ATOM     30  C   UNL     1       4.811  -5.017   4.683  0.00  0.00    +0.143 C 
BRANCH  30  31
ATOM     31  C   UNL     1       6.145  -4.905   3.990  0.00  0.00    -0.030 A 
ATOM     32  C   UNL     1       6.204  -4.526   2.662  0.00  0.00    +0.005 A 
ATOM     33  C   UNL     1       7.427  -4.423   2.026  0.00  0.00    +0.003 A 
ATOM     34  C   UNL     1       8.591  -4.698   2.719  0.00  0.00    -0.050 A 
ATOM     35  C   UNL     1       8.532  -5.076   4.048  0.00  0.00    +0.003 A 
ATOM     36  C   UNL     1       7.309  -5.174   4.685  0.00  0.00    +0.005 A 
ATOM     37  C   UNL     1       9.925  -4.587   2.026  0.00  0.00    +0.044 C 
ENDBRANCH  30  31
ENDBRANCH   1  30
TORSDOF 9
