REMARK  Name = ZINC08916985
REMARK  8 active torsions:
REMARK  status: ('A' for Active; 'I' for Inactive)
REMARK    1  A    between atoms: C_1  and  C_2
REMARK    2  A    between atoms: C_9  and  C_12
REMARK    3  A    between atoms: N_14  and  C_15
REMARK    4  A    between atoms: C_15  and  C_16
REMARK    5  A    between atoms: C_16  and  C_18
REMARK    6  A    between atoms: C_16  and  N_54
REMARK    7  A    between atoms: C_21  and  O_24
REMARK    8  A    between atoms: O_24  and  C_25
REMARK                            x       y       z     vdW  Elec       q    Type
REMARK                         _______ _______ _______ _____ _____    ______ ____
ROOT
ATOM      1  C   UNL     1       6.103   1.200  -0.110  0.00  0.00    +0.094 C 
ENDROOT
BRANCH   1   4
ATOM      2  C   UNL     1       5.715   3.168  -1.495  0.00  0.00    +0.252 C 
ATOM      3  O   UNL     1       4.784   3.459  -0.767  0.00  0.00    -0.270 OA
ATOM      4  N   UNL     1       6.438   2.057  -1.251  0.00  0.00    -0.312 N 
ATOM      5  H   UNL     1       7.180   1.824  -1.831  0.00  0.00    +0.149 HD
BRANCH   2  14
ATOM      6  C   UNL     1       7.725   7.600  -7.694  0.00  0.00    +0.044 C 
ATOM      7  C   UNL     1       7.103   6.984  -6.467  0.00  0.00    -0.049 A 
ATOM      8  C   UNL     1       6.012   7.590  -5.856  0.00  0.00    +0.004 A 
ATOM      9  C   UNL     1       5.427   7.056  -4.753  0.00  0.00    +0.011 A 
ATOM     10  C   UNL     1       5.922   5.858  -4.176  0.00  0.00    +0.008 A 
ATOM     11  C   UNL     1       7.033   5.263  -4.819  0.00  0.00    +0.022 A 
ATOM     12  C   UNL     1       7.613   5.814  -5.942  0.00  0.00    +0.019 A 
ATOM     13  S   UNL     1       7.353   3.818  -3.840  0.00  0.00    -0.082 S 
ATOM     14  C   UNL     1       6.050   4.026  -2.638  0.00  0.00    +0.093 A 
ATOM     15  C   UNL     1       5.445   5.175  -3.042  0.00  0.00    +0.068 A 
ATOM     16 CL   UNL     1       4.086   5.799  -2.159  0.00  0.00    -0.082 Cl
ENDBRANCH   2  14
ENDBRANCH   1   4
BRANCH   1  17
ATOM     17  C   UNL     1       6.994  -0.043  -0.127  0.00  0.00    -0.020 C 
BRANCH  17  18
ATOM     18  C   UNL     1       8.428   0.363   0.097  0.00  0.00    -0.059 A 
ATOM     19  C   UNL     1       8.877   0.631   1.377  0.00  0.00    +0.005 A 
ATOM     20  C   UNL     1      10.192   0.998   1.585  0.00  0.00    +0.046 A 
ATOM     21  C   UNL     1      11.060   1.108   0.509  0.00  0.00    +0.120 A 
ATOM     22  C   UNL     1      10.605   0.844  -0.775  0.00  0.00    +0.046 A 
ATOM     23  C   UNL     1       9.291   0.471  -0.978  0.00  0.00    +0.005 A 
BRANCH  21  24
ATOM     24  O   UNL     1      12.353   1.475   0.711  0.00  0.00    -0.495 OA
ATOM     25  C   UNL     1      12.751   1.732   2.059  0.00  0.00    +0.277 C 
ENDBRANCH  21  24
ENDBRANCH  17  18
BRANCH  17  30
ATOM     26  C   UNL     1       5.153  -1.362   0.766  0.00  0.00    -0.078 C 
ATOM     27  C   UNL     1       5.049  -2.666   1.596  0.00  0.00    -0.020 C 
ATOM     28  C   UNL     1       6.410  -3.352   1.335  0.00  0.00    -0.020 C 
ATOM     29  C   UNL     1       7.354  -2.217   0.896  0.00  0.00    -0.078 C 
ATOM     30  N   UNL     1       6.564  -0.987   0.948  0.00  0.00    +0.385 N 
ATOM     31  H   UNL     1       6.687  -0.534   1.862  0.00  0.00    -0.081 HD
ENDBRANCH  17  30
ENDBRANCH   1  17
TORSDOF 6
