REMARK  Name = ZINC10775682
REMARK  4 active torsions:
REMARK  status: ('A' for Active; 'I' for Inactive)
REMARK    1  A    between atoms: C_1  and  N_49
REMARK    2  A    between atoms: C_10  and  C_12
REMARK    3  A    between atoms: N_18  and  S_19
REMARK    4  A    between atoms: S_19  and  C_22
REMARK                            x       y       z     vdW  Elec       q    Type
REMARK                         _______ _______ _______ _____ _____    ______ ____
ROOT
ATOM      1  C   UNL     1       0.376  -0.362  -1.857  0.00  0.00    -0.096 C 
ATOM      2  C   UNL     1      -0.659  -1.958  -0.358  0.00  0.00    -0.073 C 
ATOM      3  C   UNL     1      -1.247  -2.111   1.048  0.00  0.00    +0.038 C 
ATOM      4  C   UNL     1      -2.503  -1.259   1.137  0.00  0.00    +0.050 A 
ATOM      5  C   UNL     1      -2.706  -0.274   0.221  0.00  0.00    -0.002 A 
ATOM      6  S   UNL     1      -4.259   0.411   0.725  0.00  0.00    -0.059 S 
ATOM      7  C   UNL     1      -4.520  -0.635   2.089  0.00  0.00    +0.165 A 
ATOM      8  N   UNL     1      -3.447  -1.400   2.061  0.00  0.00    -0.229 NA
ATOM      9  N   UNL     1      -5.586  -0.658   2.980  0.00  0.00    -0.263 N 
ATOM     10  C   UNL     1      -6.601   0.217   2.840  0.00  0.00    +0.238 C 
ATOM     11  O   UNL     1      -6.584   1.026   1.936  0.00  0.00    -0.274 OA
ATOM     12  C   UNL     1      -1.813   0.099  -0.912  0.00  0.00    -0.034 C 
ATOM     13  H   UNL     1      -5.600  -1.305   3.703  0.00  0.00    +0.157 HD
ATOM     14  N   UNL     1      -0.488  -0.524  -0.667  0.00  0.00    +0.381 N 
ATOM     15  H   UNL     1      -0.043  -0.060   0.134  0.00  0.00    -0.082 HD
ENDROOT
BRANCH  10  16
ATOM     16  C   UNL     1      -7.757   0.192   3.807  0.00  0.00    +0.166 C 
ATOM     17  C   UNL     1      -7.825   1.524   4.560  0.00  0.00    +0.030 C 
ATOM     18  C   UNL     1      -9.082   1.547   5.434  0.00  0.00    +0.003 C 
ATOM     19  C   UNL     1     -10.325   1.424   4.551  0.00  0.00    +0.017 C 
ATOM     20  C   UNL     1     -10.283   0.090   3.800  0.00  0.00    +0.110 C 
ATOM     21  N   UNL     1      -9.012  -0.001   3.068  0.00  0.00    -0.164 NA
BRANCH  21  22
ATOM     22  S   UNL     1      -8.995  -0.317   1.443  0.00  0.00    +0.068 S 
ATOM     23  O   UNL     1      -7.720  -0.871   1.150  0.00  0.00    -0.152 OA
ATOM     24  O   UNL     1     -10.207  -0.998   1.148  0.00  0.00    -0.152 OA
BRANCH  22  25
ATOM     25  C   UNL     1      -9.073   1.234   0.610  0.00  0.00    +0.144 A 
ATOM     26  C   UNL     1      -8.067   1.968   0.076  0.00  0.00    +0.038 A 
ATOM     27  C   UNL     1      -8.366   3.168  -0.542  0.00  0.00    +0.030 A 
ATOM     28  C   UNL     1      -9.658   3.581  -0.584  0.00  0.00    +0.080 A 
ATOM     29  S   UNL     1     -10.498   2.250   0.259  0.00  0.00    -0.057 S 
ATOM     30 CL   UNL     1     -10.321   5.027  -1.278  0.00  0.00    -0.076 Cl
ENDBRANCH  22  25
ENDBRANCH  21  22
ENDBRANCH  10  16
TORSDOF 3
