REMARK  Name = ZINC40329721
REMARK  6 active torsions:
REMARK  status: ('A' for Active; 'I' for Inactive)
REMARK    1  A    between atoms: C_1  and  N_2
REMARK    2  A    between atoms: N_2  and  C_3
REMARK    3  A    between atoms: N_2  and  S_10
REMARK    4  A    between atoms: C_3  and  C_4
REMARK    5  A    between atoms: S_10  and  C_13
REMARK    6  A    between atoms: C_18  and  N_19
REMARK                            x       y       z     vdW  Elec       q    Type
REMARK                         _______ _______ _______ _____ _____    ______ ____
ROOT
ATOM      1  S   UNL     1      -0.000  -0.824  -1.437  0.00  0.00    +0.063 S 
ATOM      2  O   UNL     1      -0.531  -2.115  -1.167  0.00  0.00    -0.153 OA
ATOM      3  O   UNL     1      -0.572   0.049  -2.401  0.00  0.00    -0.153 OA
ENDROOT
BRANCH   1   4
ATOM      4  C   UNL     1       1.682  -1.059  -1.905  0.00  0.00    +0.127 A 
ATOM      5  C   UNL     1       2.208  -2.334  -1.976  0.00  0.00    +0.045 A 
ATOM      6  C   UNL     1       3.529  -2.520  -2.343  0.00  0.00    +0.020 A 
ATOM      7  C   UNL     1       4.327  -1.429  -2.641  0.00  0.00    +0.017 A 
ATOM      8  C   UNL     1       3.806  -0.152  -2.572  0.00  0.00    +0.026 A 
ATOM      9  C   UNL     1       2.478   0.037  -2.209  0.00  0.00    +0.051 A 
ATOM     10 BR   UNL     1       4.246  -4.267  -2.437  0.00  0.00    -0.050 Br
BRANCH   9  11
ATOM     11  N   UNL     1       1.947   1.327  -2.145  0.00  0.00    -0.356 N 
ATOM     12  H   UNL     1       1.021   1.459  -1.887  0.00  0.00    +0.142 HD
ATOM     13  H   UNL     1       2.504   2.092  -2.357  0.00  0.00    +0.142 HD
ENDBRANCH   9  11
ENDBRANCH   1   4
BRANCH   1  15
ATOM     14  C   UNL     1      -0.018   1.461   0.010  0.00  0.00    +0.132 C 
ATOM     15  N   UNL     1       0.002  -0.004   0.002  0.00  0.00    -0.175 NA
BRANCH  15  16
ATOM     16  C   UNL     1       0.024  -0.743   1.267  0.00  0.00    +0.151 C 
BRANCH  16  17
ATOM     17  C   UNL     1      -1.384  -0.909   1.776  0.00  0.00    +0.007 A 
ATOM     18  C   UNL     1      -2.265  -1.913   1.540  0.00  0.00    +0.027 A 
ATOM     19  C   UNL     1      -3.518  -1.855   2.121  0.00  0.00    +0.025 A 
ATOM     20  C   UNL     1      -3.830  -0.796   2.908  0.00  0.00    +0.060 A 
ATOM     21  S   UNL     1      -2.324   0.161   2.853  0.00  0.00    -0.099 S 
ATOM     22 BR   UNL     1      -4.780  -3.231   1.820  0.00  0.00    -0.050 Br
ENDBRANCH  16  17
ENDBRANCH  15  16
ENDBRANCH   1  15
TORSDOF 5
