REMARK  Name = ZINC39571142
REMARK  5 active torsions:
REMARK  status: ('A' for Active; 'I' for Inactive)
REMARK    1  A    between atoms: C_4  and  O_25
REMARK    2  A    between atoms: C_5  and  C_7
REMARK    3  A    between atoms: N_8  and  N_9
REMARK    4  A    between atoms: C_10  and  C_12
REMARK    5  A    between atoms: C_15  and  C_18
REMARK                            x       y       z     vdW  Elec       q    Type
REMARK                         _______ _______ _______ _____ _____    ______ ____
ROOT
ATOM      1  N   UNL     1       2.412  -4.186  -0.047  0.00  0.00    -0.205 N 
ATOM      2  C   UNL     1       3.591  -4.838  -0.063  0.00  0.00    +0.263 C 
ATOM      3  O   UNL     1       4.630  -4.212  -0.070  0.00  0.00    -0.271 OA
ATOM      4  H   UNL     1       1.581  -4.686  -0.041  0.00  0.00    +0.177 HD
ENDROOT
BRANCH   2   5
ATOM      5  C   UNL     1       3.619  -6.344  -0.072  0.00  0.00    +0.240 C 
ATOM      6  C   UNL     1       3.454  -6.892   1.334  0.00  0.00    +0.041 C 
ATOM      7  C   UNL     1       4.598  -7.569   1.553  0.00  0.00    +0.092 C 
ATOM      8  N   UNL     1       5.411  -7.491   0.467  0.00  0.00    -0.153 NA
ATOM      9  N   UNL     1       4.947  -6.837  -0.475  0.00  0.00    -0.170 NA
BRANCH   7  10
ATOM     10  C   UNL     1       4.926  -8.296   2.805  0.00  0.00    +0.002 A 
ATOM     11  C   UNL     1       4.016  -8.316   3.860  0.00  0.00    +0.011 A 
ATOM     12  C   UNL     1       4.325  -8.994   5.021  0.00  0.00    +0.016 A 
ATOM     13  C   UNL     1       5.536  -9.652   5.140  0.00  0.00    +0.018 A 
ATOM     14  C   UNL     1       6.444  -9.635   4.095  0.00  0.00    +0.016 A 
ATOM     15  C   UNL     1       6.142  -8.965   2.927  0.00  0.00    +0.011 A 
ATOM     16 BR   UNL     1       5.953 -10.579   6.735  0.00  0.00    -0.050 Br
ENDBRANCH   7  10
ENDBRANCH   2   5
BRANCH   1  18
ATOM     17  C   UNL     1       1.250  -2.157  -0.023  0.00  0.00    +0.142 C 
ATOM     18  N   UNL     1       2.386  -2.785  -0.038  0.00  0.00    -0.188 NA
BRANCH  17  23
ATOM     19  C   UNL     1      -0.017   1.375   0.010  0.00  0.00    +0.001 A 
ATOM     20  C   UNL     1       1.169   2.089   0.002  0.00  0.00    +0.004 A 
ATOM     21  C   UNL     1       2.383   1.428  -0.013  0.00  0.00    +0.046 A 
ATOM     22  C   UNL     1       2.420   0.044  -0.022  0.00  0.00    +0.125 A 
ATOM     23  C   UNL     1       1.222  -0.684  -0.014  0.00  0.00    +0.036 A 
ATOM     24  C   UNL     1       0.002  -0.004   0.002  0.00  0.00    +0.013 A 
BRANCH  22  25
ATOM     25  O   UNL     1       3.612  -0.607  -0.038  0.00  0.00    -0.506 OA
ATOM     26  H   UNL     1       3.967  -0.800   0.841  0.00  0.00    +0.292 HD
ENDBRANCH  22  25
ENDBRANCH  17  23
ENDBRANCH   1  18
TORSDOF 5
