REMARK  Name = ZINC00272563
REMARK  6 active torsions:
REMARK  status: ('A' for Active; 'I' for Inactive)
REMARK    1  A    between atoms: C_2  and  C_8
REMARK    2  A    between atoms: C_5  and  O_7
REMARK    3  A    between atoms: N_9  and  C_10
REMARK    4  A    between atoms: C_13  and  N_16
REMARK    5  A    between atoms: C_17  and  C_18
REMARK    6  A    between atoms: C_21  and  O_24
REMARK                            x       y       z     vdW  Elec       q    Type
REMARK                         _______ _______ _______ _____ _____    ______ ____
ROOT
ATOM      1  C   UNL     1       2.283   5.586   0.009  0.00  0.00    +0.064 A 
ATOM      2  C   UNL     1       1.408   6.282  -0.832  0.00  0.00    +0.030 A 
ATOM      3  C   UNL     1       1.395   7.647  -0.825  0.00  0.00    +0.030 A 
ATOM      4  C   UNL     1       2.256   8.351   0.024  0.00  0.00    +0.064 A 
ATOM      5  C   UNL     1       3.131   7.655   0.865  0.00  0.00    +0.030 A 
ATOM      6  C   UNL     1       3.141   6.289   0.861  0.00  0.00    +0.030 A 
ENDROOT
BRANCH   1   8
ATOM      7  C   UNL     1       1.173   3.557   0.009  0.00  0.00    +0.119 C 
ATOM      8  N   UNL     1       2.296   4.220   0.002  0.00  0.00    -0.255 NA
BRANCH   7  10
ATOM      9  C   UNL     1      -0.017   1.373   0.010  0.00  0.00    +0.013 A 
ATOM     10  C   UNL     1       1.187   2.086   0.002  0.00  0.00    -0.007 A 
ATOM     11  C   UNL     1       2.404   1.396  -0.013  0.00  0.00    +0.013 A 
ATOM     12  C   UNL     1       2.412   0.019  -0.021  0.00  0.00    +0.046 A 
ATOM     13  C   UNL     1       1.214  -0.685  -0.014  0.00  0.00    +0.117 A 
ATOM     14  C   UNL     1       0.002  -0.004   0.002  0.00  0.00    +0.046 A 
BRANCH  13  15
ATOM     15  O   UNL     1       1.227  -2.042  -0.021  0.00  0.00    -0.507 OA
ATOM     16  H   UNL     1       1.239  -2.441   0.860  0.00  0.00    +0.292 HD
ENDBRANCH  13  15
ENDBRANCH   7  10
ENDBRANCH   1   8
BRANCH   4  17
ATOM     17  N   UNL     1       2.244   9.717   0.030  0.00  0.00    -0.255 NA
ATOM     18  C   UNL     1       2.253  10.364   1.163  0.00  0.00    +0.119 C 
BRANCH  18  19
ATOM     19  C   UNL     1       2.239  11.834   1.170  0.00  0.00    -0.007 A 
ATOM     20  C   UNL     1       2.211  12.542  -0.037  0.00  0.00    +0.013 A 
ATOM     21  C   UNL     1       2.198  13.918  -0.026  0.00  0.00    +0.046 A 
ATOM     22  C   UNL     1       2.213  14.606   1.183  0.00  0.00    +0.117 A 
ATOM     23  C   UNL     1       2.242  13.908   2.384  0.00  0.00    +0.046 A 
ATOM     24  C   UNL     1       2.249  12.531   2.383  0.00  0.00    +0.013 A 
BRANCH  22  25
ATOM     25  O   UNL     1       2.200  15.963   1.189  0.00  0.00    -0.507 OA
ATOM     26  H   UNL     1       1.313  16.348   1.206  0.00  0.00    +0.292 HD
ENDBRANCH  22  25
ENDBRANCH  18  19
ENDBRANCH   4  17
TORSDOF 6
