REMARK  Name = ZINC09203217
REMARK  7 active torsions:
REMARK  status: ('A' for Active; 'I' for Inactive)
REMARK    1  A    between atoms: C_1  and  C_2
REMARK    2  A    between atoms: C_2  and  N_3
REMARK    3  A    between atoms: C_4  and  C_25
REMARK    4  A    between atoms: C_5  and  C_12
REMARK    5  A    between atoms: N_13  and  N_14
REMARK    6  A    between atoms: C_15  and  C_17
REMARK    7  A    between atoms: C_17  and  C_18
REMARK                            x       y       z     vdW  Elec       q    Type
REMARK                         _______ _______ _______ _____ _____    ______ ____
ROOT
ATOM      1  C   UNL     1      -0.529   1.435  -4.764  0.00  0.00    +0.140 C 
ATOM      2  N   UNL     1      -0.966   1.736  -3.578  0.00  0.00    -0.188 NA
ENDROOT
BRANCH   1   5
ATOM      3  N   UNL     1      -1.803   2.305  -8.076  0.00  0.00    -0.344 N 
ATOM      4  C   UNL     1      -0.906   1.691  -7.254  0.00  0.00    +0.025 A 
ATOM      5  C   UNL     1      -1.241   1.923  -5.956  0.00  0.00    +0.023 A 
ATOM      6  C   UNL     1      -2.459   2.752  -5.977  0.00  0.00    +0.009 A 
ATOM      7  C   UNL     1      -2.760   2.963  -7.333  0.00  0.00    +0.050 A 
ATOM      8  C   UNL     1      -3.873   3.725  -7.674  0.00  0.00    +0.026 A 
ATOM      9  C   UNL     1      -4.671   4.258  -6.685  0.00  0.00    +0.002 A 
ATOM     10  C   UNL     1      -4.371   4.051  -5.346  0.00  0.00    +0.001 A 
ATOM     11  C   UNL     1      -3.271   3.302  -4.988  0.00  0.00    +0.010 A 
ATOM     12  C   UNL     1       0.277   0.879  -7.714  0.00  0.00    +0.064 C 
BRANCH   3  14
ATOM     13  C   UNL     1      -2.557   1.070 -10.048  0.00  0.00    +0.027 C 
ATOM     14  C   UNL     1      -1.757   2.271  -9.540  0.00  0.00    +0.119 C 
ENDBRANCH   3  14
ENDBRANCH   1   5
BRANCH   2  15
ATOM     15  N   UNL     1      -0.288   1.272  -2.443  0.00  0.00    -0.207 N 
ATOM     16  C   UNL     1      -0.742   1.585  -1.213  0.00  0.00    +0.237 C 
ATOM     17  O   UNL     1      -1.736   2.268  -1.088  0.00  0.00    -0.274 OA
ATOM     18  H   UNL     1       0.507   0.726  -2.543  0.00  0.00    +0.177 HD
BRANCH  16  19
ATOM     19  C   UNL     1      -0.013   1.086   0.008  0.00  0.00    +0.132 C 
BRANCH  19  20
ATOM     20  C   UNL     1      -0.718   1.572   1.248  0.00  0.00    -0.039 A 
ATOM     21  C   UNL     1      -0.360   2.779   1.819  0.00  0.00    +0.005 A 
ATOM     22  C   UNL     1      -1.010   3.227   2.953  0.00  0.00    +0.015 A 
ATOM     23  C   UNL     1      -2.012   2.463   3.523  0.00  0.00    +0.018 A 
ATOM     24  C   UNL     1      -2.366   1.253   2.955  0.00  0.00    +0.015 A 
ATOM     25  C   UNL     1      -1.719   0.808   1.818  0.00  0.00    +0.005 A 
ATOM     26 BR   UNL     1      -2.897   3.073   5.079  0.00  0.00    -0.050 Br
ENDBRANCH  19  20
ENDBRANCH  16  19
ENDBRANCH   2  15
TORSDOF 5
