REMARK  Name = ZINC05442289
REMARK  5 active torsions:
REMARK  status: ('A' for Active; 'I' for Inactive)
REMARK    1  A    between atoms: C_3  and  C_6
REMARK    2  A    between atoms: C_9  and  S_12
REMARK    3  A    between atoms: S_12  and  C_13
REMARK    4  A    between atoms: C_13  and  C_14
REMARK    5  A    between atoms: N_16  and  C_17
REMARK                            x       y       z     vdW  Elec       q    Type
REMARK                         _______ _______ _______ _____ _____    ______ ____
ROOT
ATOM      1  C   UNL     1       2.295   5.676   0.226  0.00  0.00    +0.172 C 
ENDROOT
BRANCH   1   2
ATOM      2  C   UNL     1       2.318   4.174   0.104  0.00  0.00    +0.227 C 
ATOM      3  O   UNL     1       3.377   3.583   0.091  0.00  0.00    -0.275 OA
ATOM      4  N   UNL     1       1.162   3.487   0.010  0.00  0.00    -0.284 N 
ATOM      5  H   UNL     1       0.320   3.963  -0.061  0.00  0.00    +0.155 HD
BRANCH   4   6
ATOM      6  C   UNL     1       1.177   2.088   0.013  0.00  0.00    +0.053 A 
ATOM      7  C   UNL     1       2.230   1.405   0.607  0.00  0.00    +0.044 A 
ATOM      8  C   UNL     1       2.241   0.022   0.609  0.00  0.00    +0.043 A 
ATOM      9  C   UNL     1       1.205  -0.680   0.019  0.00  0.00    +0.021 A 
ATOM     10  C   UNL     1       0.156  -0.003  -0.573  0.00  0.00    +0.023 A 
ATOM     11  C   UNL     1       0.138   1.379  -0.578  0.00  0.00    +0.062 A 
ATOM     12 CL   UNL     1      -1.176   2.229  -1.329  0.00  0.00    -0.082 Cl
ATOM     13 CL   UNL     1       3.557  -0.833   1.352  0.00  0.00    -0.083 Cl
ENDBRANCH   4   6
ENDBRANCH   1   2
BRANCH   1  14
ATOM     14  S   UNL     1       3.995   6.300   0.333  0.00  0.00    -0.095 S 
BRANCH  14  18
ATOM     15  C   UNL     1       3.410  10.700   0.674  0.00  0.00    +0.128 A 
ATOM     16  C   UNL     1       4.728  10.222   0.679  0.00  0.00    +0.036 A 
ATOM     17  C   UNL     1       4.924   8.868   0.580  0.00  0.00    +0.039 A 
ATOM     18  C   UNL     1       3.800   8.046   0.469  0.00  0.00    +0.120 A 
ATOM     19  N   UNL     1       2.586   8.579   0.473  0.00  0.00    -0.142 NA
ATOM     20  N   UNL     1       2.399   9.846   0.570  0.00  0.00    -0.145 NA
BRANCH  15  23
ATOM     21  C   UNL     1       2.141  14.127   0.913  0.00  0.00    +0.042 A 
ATOM     22  C   UNL     1       1.922  12.741   0.787  0.00  0.00    +0.051 A 
ATOM     23  C   UNL     1       3.147  12.149   0.784  0.00  0.00    +0.155 A 
ATOM     24  O   UNL     1       4.079  13.116   0.894  0.00  0.00    -0.461 OA
ATOM     25  C   UNL     1       3.475  14.312   0.972  0.00  0.00    +0.196 A 
ENDBRANCH  15  23
ENDBRANCH  14  18
ENDBRANCH   1  14
TORSDOF 5
