REMARK  Name = ZINC09894924
REMARK  4 active torsions:
REMARK  status: ('A' for Active; 'I' for Inactive)
REMARK    1  A    between atoms: C_4  and  C_7
REMARK    2  A    between atoms: C_13  and  C_15
REMARK    3  A    between atoms: C_16  and  C_17
REMARK    4  A    between atoms: C_20  and  N_23
REMARK                            x       y       z     vdW  Elec       q    Type
REMARK                         _______ _______ _______ _____ _____    ______ ____
ROOT
ATOM      1  C   UNL     1      -2.514   0.980   0.019  0.00  0.00    +0.107 C 
ATOM      2  C   UNL     1      -3.110   0.951  -1.404  0.00  0.00    +0.029 C 
ATOM      3  C   UNL     1      -4.633   1.099  -1.146  0.00  0.00    +0.021 C 
ATOM      4  C   UNL     1      -4.650   2.056   0.072  0.00  0.00    +0.109 C 
ATOM      5  N   UNL     1      -3.493   1.648   0.889  0.00  0.00    -0.291 N 
ATOM      6  C   UNL     1      -3.354   1.854   2.214  0.00  0.00    +0.240 C 
ATOM      7  O   UNL     1      -2.351   1.473   2.788  0.00  0.00    -0.271 OA
ENDROOT
BRANCH   1  11
ATOM      8  C   UNL     1       1.156   3.165   0.008  0.00  0.00    +0.000 A 
ATOM      9  C   UNL     1       1.175   1.783   0.000  0.00  0.00    +0.000 A 
ATOM     10  C   UNL     1      -0.013   1.076   0.008  0.00  0.00    +0.005 A 
ATOM     11  C   UNL     1      -1.219   1.751   0.017  0.00  0.00    -0.027 A 
ATOM     12  C   UNL     1      -1.238   3.133   0.029  0.00  0.00    +0.005 A 
ATOM     13  C   UNL     1      -0.050   3.840   0.023  0.00  0.00    +0.000 A 
ENDBRANCH   1  11
BRANCH   6  14
ATOM     14  C   UNL     1      -4.411   2.537   2.963  0.00  0.00    +0.068 C 
ATOM     15  C   UNL     1      -4.273   2.743   4.288  0.00  0.00    +0.013 C 
BRANCH  15  16
ATOM     16  C   UNL     1      -5.336   3.429   5.041  0.00  0.00    -0.025 A 
ATOM     17  C   UNL     1      -6.488   3.873   4.384  0.00  0.00    +0.010 A 
ATOM     18  C   UNL     1      -7.481   4.510   5.097  0.00  0.00    +0.033 A 
ATOM     19  C   UNL     1      -7.336   4.720   6.458  0.00  0.00    +0.126 A 
ATOM     20  C   UNL     1      -6.196   4.288   7.114  0.00  0.00    +0.033 A 
ATOM     21  C   UNL     1      -5.196   3.645   6.415  0.00  0.00    +0.010 A 
BRANCH  19  22
ATOM     22  N   UNL     1      -8.404   5.410   7.215  0.00  0.00    +0.056 N 
ATOM     23  O   UNL     1      -8.279   5.596   8.412  0.00  0.00    -0.126 OA
ATOM     24  O   UNL     1      -9.409   5.791   6.641  0.00  0.00    -0.126 OA
ENDBRANCH  19  22
ENDBRANCH  15  16
ENDBRANCH   6  14
TORSDOF 4
