REMARK  Name = ZINC08781917
REMARK  14 active torsions:
REMARK  status: ('A' for Active; 'I' for Inactive)
REMARK    1  A    between atoms: C_1  and  C_2
REMARK    2  A    between atoms: C_2  and  O_3
REMARK    3  A    between atoms: O_3  and  C_4
REMARK    4  A    between atoms: C_4  and  C_6
REMARK    5  A    between atoms: C_6  and  C_32
REMARK    6  A    between atoms: C_7  and  C_8
REMARK    7  A    between atoms: C_8  and  C_27
REMARK    8  A    between atoms: C_9  and  N_10
REMARK    9  A    between atoms: C_9  and  N_11
REMARK   10  A    between atoms: N_14  and  C_17
REMARK   11  A    between atoms: C_20  and  C_22
REMARK   12  A    between atoms: C_27  and  O_29
REMARK   13  A    between atoms: O_29  and  C_30
REMARK   14  A    between atoms: C_30  and  C_31
REMARK                            x       y       z     vdW  Elec       q    Type
REMARK                         _______ _______ _______ _____ _____    ______ ____
ROOT
ATOM      1  C   UNL     1       1.001  -6.198  -2.352  0.00  0.00    +0.096 C 
ATOM      2  C   UNL     1      -0.049  -5.944  -1.451  0.00  0.00    +0.098 C 
ENDROOT
BRANCH   2   3
ATOM      3  N   UNL     1       0.024  -4.885  -0.602  0.00  0.00    -0.315 N 
ATOM      4  C   UNL     1       0.718  -5.000   0.690  0.00  0.00    +0.125 C 
ATOM      5  C   UNL     1      -0.219  -4.495   1.792  0.00  0.00    +0.125 C 
ATOM      6  N   UNL     1      -0.682  -3.142   1.455  0.00  0.00    -0.313 N 
ATOM      7  C   UNL     1      -1.472  -3.143   0.216  0.00  0.00    +0.125 C 
ATOM      8  C   UNL     1      -0.587  -3.593  -0.950  0.00  0.00    +0.125 C 
BRANCH   6   9
ATOM      9  C   UNL     1      -1.403  -2.585   2.506  0.00  0.00    +0.118 A 
ATOM     10  C   UNL     1      -0.908  -1.462   3.163  0.00  0.00    +0.079 A 
ATOM     11  C   UNL     1      -1.636  -0.918   4.207  0.00  0.00    +0.037 A 
ATOM     12  C   UNL     1      -2.839  -1.518   4.559  0.00  0.00    +0.072 A 
ATOM     13  C   UNL     1      -3.269  -2.630   3.863  0.00  0.00    +0.096 A 
ATOM     14 CL   UNL     1       0.602  -0.754   2.681  0.00  0.00    -0.080 Cl
ATOM     15  N   UNL     1      -2.580  -3.191   2.833  0.00  0.00    -0.348 N 
ATOM     16  H   UNL     1      -2.925  -4.019   2.333  0.00  0.00    +0.167 HD
BRANCH  12  17
ATOM     17  C   UNL     1      -3.666  -0.960   5.688  0.00  0.00    +0.419 C 
ATOM     18  F   UNL     1      -4.821  -1.732   5.846  0.00  0.00    -0.166 F 
ATOM     19  F   UNL     1      -2.919  -0.990   6.871  0.00  0.00    -0.166 F 
ATOM     20  F   UNL     1      -4.024   0.361   5.396  0.00  0.00    -0.166 F 
ENDBRANCH  12  17
ENDBRANCH   6   9
ENDBRANCH   2   3
BRANCH   2  21
ATOM     21  N   UNL     1      -1.139  -6.758  -1.431  0.00  0.00    -0.346 N 
ATOM     22  H   UNL     1      -1.829  -6.627  -0.762  0.00  0.00    +0.143 HD
ATOM     23  H   UNL     1      -1.225  -7.469  -2.085  0.00  0.00    +0.143 HD
ENDBRANCH   2  21
BRANCH   1  25
ATOM     24  C   UNL     1       1.960  -7.557  -4.109  0.00  0.00    +0.136 C 
ATOM     25  C   UNL     1       0.878  -7.222  -3.304  0.00  0.00    +0.044 C 
BRANCH  24  26
ATOM     26  C   UNL     1       1.789  -8.508  -5.208  0.00  0.00    +0.350 C 
ATOM     27  O   UNL     1       0.698  -9.005  -5.418  0.00  0.00    -0.244 OA
BRANCH  26  28
ATOM     28  O   UNL     1       2.840  -8.834  -5.989  0.00  0.00    -0.461 OA
BRANCH  28  30
ATOM     29  C   UNL     1       3.898 -10.011  -7.815  0.00  0.00    +0.048 C 
ATOM     30  C   UNL     1       2.600  -9.768  -7.044  0.00  0.00    +0.229 C 
ENDBRANCH  28  30
ENDBRANCH  26  28
ENDBRANCH  24  26
BRANCH  24  31
ATOM     31  C   UNL     1       3.244  -6.973  -3.862  0.00  0.00    +0.106 C 
ATOM     32  N   UNL     1       4.263  -6.509  -3.666  0.00  0.00    -0.191 NA
ENDBRANCH  24  31
ENDBRANCH   1  25
BRANCH   1  33
ATOM     33  C   UNL     1       2.224  -5.394  -2.295  0.00  0.00    +0.342 C 
ATOM     34  O   UNL     1       2.382  -4.471  -3.072  0.00  0.00    -0.245 OA
BRANCH  33  35
ATOM     35  O   UNL     1       3.176  -5.677  -1.382  0.00  0.00    -0.461 OA
BRANCH  35  36
ATOM     36  C   UNL     1       4.306  -4.768  -1.304  0.00  0.00    +0.229 C 
ATOM     37  C   UNL     1       5.333  -5.315  -0.310  0.00  0.00    +0.048 C 
ENDBRANCH  35  36
ENDBRANCH  33  35
ENDBRANCH   1  33
TORSDOF 12
