REMARK  Name = ZINC14886150
REMARK  13 active torsions:
REMARK  status: ('A' for Active; 'I' for Inactive)
REMARK    1  A    between atoms: C_1  and  C_2
REMARK    2  A    between atoms: C_2  and  C_3
REMARK    3  A    between atoms: C_2  and  C_6
REMARK    4  A    between atoms: C_2  and  O_28
REMARK    5  A    between atoms: C_3  and  N_64
REMARK    6  A    between atoms: C_4  and  N_64
REMARK    7  A    between atoms: C_5  and  N_64
REMARK    8  A    between atoms: C_16  and  C_17
REMARK    9  A    between atoms: C_16  and  N_66
REMARK   10  A    between atoms: C_18  and  C_19
REMARK   11  A    between atoms: C_22  and  N_25
REMARK   12  A    between atoms: N_25  and  C_26
REMARK   13  A    between atoms: N_25  and  C_27
REMARK                            x       y       z     vdW  Elec       q    Type
REMARK                         _______ _______ _______ _____ _____    ______ ____
ROOT
ATOM      1  C   UNL     1      -3.044   0.647  -0.598  0.00  0.00    -0.018 A 
ATOM      2  C   UNL     1      -3.441   1.957  -0.798  0.00  0.00    +0.010 A 
ATOM      3  C   UNL     1      -2.512   2.923  -1.134  0.00  0.00    +0.046 A 
ATOM      4  C   UNL     1      -1.175   2.574  -1.270  0.00  0.00    +0.122 A 
ATOM      5  C   UNL     1      -0.787   1.261  -1.084  0.00  0.00    -0.022 A 
ATOM      6  C   UNL     1      -1.712   0.298  -0.741  0.00  0.00    +0.011 A 
ATOM      7  C   UNL     1       0.671   0.886  -1.274  0.00  0.00    -0.039 C 
ATOM      8  C   UNL     1       1.836   2.884  -0.512  0.00  0.00    -0.036 C 
ATOM      9  C   UNL     1       0.666   3.845  -0.516  0.00  0.00    +0.210 C 
ATOM     10  O   UNL     1      -0.249   3.524  -1.571  0.00  0.00    -0.494 OA
ATOM     11  N   UNL     1       1.445   1.501  -0.169  0.00  0.00    +0.387 N 
ATOM     12  H   UNL     1       0.857   1.524   0.673  0.00  0.00    -0.081 HD
ENDROOT
BRANCH   1  14
ATOM     13  C   UNL     1      -4.181  -0.471   1.301  0.00  0.00    +0.044 C 
ATOM     14  C   UNL     1      -4.061  -0.399  -0.222  0.00  0.00    +0.074 C 
BRANCH  14  15
ATOM     15  O   UNL     1      -3.646  -1.670  -0.727  0.00  0.00    -0.386 OA
ATOM     16  H   UNL     1      -3.393  -1.659  -1.661  0.00  0.00    +0.211 HD
ENDBRANCH  14  15
BRANCH  14  17
ATOM     17  C   UNL     1      -5.418  -0.030  -0.824  0.00  0.00    -0.040 C 
BRANCH  17  20
ATOM     18  C   UNL     1      -5.428  -1.296  -2.888  0.00  0.00    -0.096 C 
ATOM     19  C   UNL     1      -6.295   0.965  -2.850  0.00  0.00    -0.096 C 
ATOM     20  N   UNL     1      -5.277   0.049  -2.293  0.00  0.00    +0.378 N 
ATOM     21  H   UNL     1      -4.343   0.410  -2.519  0.00  0.00    -0.083 HD
ENDBRANCH  17  20
ENDBRANCH  14  17
ENDBRANCH   1  14
BRANCH  11  22
ATOM     22  C   UNL     1       2.646   0.697   0.112  0.00  0.00    -0.050 C 
BRANCH  22  23
ATOM     23  C   UNL     1       3.295   1.226   1.364  0.00  0.00    -0.045 C 
ATOM     24  C   UNL     1       3.511   0.416   2.392  0.00  0.00    +0.002 C 
BRANCH  24  25
ATOM     25  C   UNL     1       4.148   0.935   3.620  0.00  0.00    -0.025 A 
ATOM     26  C   UNL     1       4.528   2.276   3.699  0.00  0.00    +0.010 A 
ATOM     27  C   UNL     1       5.117   2.757   4.847  0.00  0.00    +0.023 A 
ATOM     28  C   UNL     1       5.343   1.907   5.924  0.00  0.00    +0.029 A 
ATOM     29  C   UNL     1       4.971   0.569   5.847  0.00  0.00    +0.023 A 
ATOM     30  C   UNL     1       4.376   0.083   4.703  0.00  0.00    +0.010 A 
BRANCH  28  31
ATOM     31  N   UNL     1       5.945   2.396   7.083  0.00  0.00    -0.336 N 
ATOM     32  C   UNL     1       6.068   1.537   8.264  0.00  0.00    +0.129 C 
ATOM     33  C   UNL     1       6.455   3.769   7.121  0.00  0.00    +0.129 C 
ENDBRANCH  28  31
ENDBRANCH  24  25
ENDBRANCH  22  23
ENDBRANCH  11  22
TORSDOF 8
