REMARK  Name = ZINC21362164
REMARK  10 active torsions:
REMARK  status: ('A' for Active; 'I' for Inactive)
REMARK    1  A    between atoms: C_1  and  C_2
REMARK    2  A    between atoms: C_6  and  C_8
REMARK    3  A    between atoms: N_10  and  C_11
REMARK    4  A    between atoms: C_14  and  C_29
REMARK    5  A    between atoms: C_20  and  C_21
REMARK    6  A    between atoms: N_23  and  C_24
REMARK    7  A    between atoms: C_24  and  C_25
REMARK    8  A    between atoms: C_25  and  C_26
REMARK    9  A    between atoms: C_26  and  C_27
REMARK   10  A    between atoms: C_26  and  C_28
REMARK                            x       y       z     vdW  Elec       q    Type
REMARK                         _______ _______ _______ _____ _____    ______ ____
ROOT
ATOM      1  C   UNL     1       1.064   7.399   0.121  0.00  0.00    +0.072 A 
ATOM      2  C   UNL     1       2.171   8.316  -0.162  0.00  0.00    +0.022 A 
ATOM      3  C   UNL     1       3.480   8.133  -0.619  0.00  0.00    +0.015 A 
ATOM      4  C   UNL     1       4.294   9.215  -0.796  0.00  0.00    -0.050 A 
ATOM      5  C   UNL     1       3.831  10.497  -0.532  0.00  0.00    +0.005 A 
ATOM      6  C   UNL     1       2.545  10.702  -0.088  0.00  0.00    +0.026 A 
ATOM      7  C   UNL     1       1.695   9.614   0.101  0.00  0.00    +0.049 A 
ATOM      8  N   UNL     1       0.391   9.509   0.525  0.00  0.00    -0.349 N 
ATOM      9  H   UNL     1      -0.176  10.414   0.791  0.00  0.00    +0.166 HD
ATOM     10  C   UNL     1       0.005   8.177   0.539  0.00  0.00    +0.124 A 
ATOM     11  C   UNL     1       5.707   9.015  -1.283  0.00  0.00    +0.044 C 
ENDROOT
BRANCH   1  14
ATOM     12  C   UNL     1       2.185   5.320   0.335  0.00  0.00    +0.248 C 
ATOM     13  O   UNL     1       3.200   5.910   0.653  0.00  0.00    -0.270 OA
ATOM     14  N   UNL     1       1.080   6.014  -0.002  0.00  0.00    -0.279 N 
ATOM     15  H   UNL     1       0.191   5.485  -0.375  0.00  0.00    +0.155 HD
BRANCH  12  21
ATOM     16  C   UNL     1       4.508   0.961   1.041  0.00  0.00    +0.044 C 
ATOM     17  C   UNL     1       3.278   1.742   0.657  0.00  0.00    -0.050 A 
ATOM     18  C   UNL     1       2.123   1.074   0.290  0.00  0.00    +0.003 A 
ATOM     19  C   UNL     1       0.987   1.783  -0.058  0.00  0.00    +0.001 A 
ATOM     20  C   UNL     1       1.001   3.163  -0.045  0.00  0.00    +0.013 A 
ATOM     21  C   UNL     1       2.164   3.843   0.319  0.00  0.00    +0.037 A 
ATOM     22  C   UNL     1       3.307   3.121   0.669  0.00  0.00    +0.016 A 
ENDBRANCH  12  21
ENDBRANCH   1  14
BRANCH  10  23
ATOM     23  C   UNL     1      -1.312   7.678   0.934  0.00  0.00    +0.262 C 
ATOM     24  O   UNL     1      -1.512   6.479   1.006  0.00  0.00    -0.269 OA
ATOM     25  N   UNL     1      -2.304   8.545   1.218  0.00  0.00    -0.310 N 
ATOM     26  H   UNL     1      -2.123   9.628   1.153  0.00  0.00    +0.149 HD
BRANCH  25  27
ATOM     27  C   UNL     1      -3.623   8.045   1.614  0.00  0.00    +0.105 C 
BRANCH  27  28
ATOM     28  C   UNL     1      -4.558   9.226   1.878  0.00  0.00    +0.022 C 
BRANCH  28  29
ATOM     29  C   UNL     1      -5.936   8.704   2.291  0.00  0.00    -0.016 C 
ATOM     30  C   UNL     1      -6.833   9.882   2.675  0.00  0.00    +0.007 C 
ATOM     31  C   UNL     1      -6.564   7.944   1.122  0.00  0.00    +0.007 C 
ENDBRANCH  28  29
ENDBRANCH  27  28
ENDBRANCH  25  27
ENDBRANCH  10  23
TORSDOF 6
