REMARK  Name = ZINC01514420
REMARK  2 active torsions:
REMARK  status: ('A' for Active; 'I' for Inactive)
REMARK    1  A    between atoms: C_4  and  N_7
REMARK    2  A    between atoms: C_10  and  C_12
REMARK                            x       y       z     vdW  Elec       q    Type
REMARK                         _______ _______ _______ _____ _____    ______ ____
ROOT
ATOM      1  C   UNL     1      -1.231   2.202   0.020  0.00  0.00    +0.233 C 
ATOM      2  C   UNL     1      -2.140   1.843  -1.165  0.00  0.00    +0.130 C 
ATOM      3  C   UNL     1      -3.325   2.791  -1.122  0.00  0.00    +0.171 C 
ATOM      4  O   UNL     1      -4.453   2.415  -1.364  0.00  0.00    -0.292 OA
ATOM      5  C   UNL     1      -3.035   4.192  -0.770  0.00  0.00    +0.060 A 
ATOM      6  C   UNL     1      -4.001   5.186  -0.941  0.00  0.00    +0.030 A 
ATOM      7  C   UNL     1      -3.707   6.488  -0.596  0.00  0.00    +0.019 A 
ATOM      8  C   UNL     1      -2.459   6.808  -0.082  0.00  0.00    +0.019 A 
ATOM      9  C   UNL     1      -1.496   5.834   0.089  0.00  0.00    +0.047 A 
ATOM     10  C   UNL     1      -1.770   4.517  -0.255  0.00  0.00    +0.132 A 
ATOM     11  O   UNL     1      -0.822   3.565  -0.092  0.00  0.00    -0.481 OA
ATOM     12 BR   UNL     1      -5.008   7.841  -0.824  0.00  0.00    -0.050 Br
ENDROOT
BRANCH   1  16
ATOM     13  N   UNL     1       1.225  -0.400  -0.012  0.00  0.00    -0.150 N 
ATOM     14  N   UNL     1       2.030   0.603  -0.014  0.00  0.00    -0.155 NA
ATOM     15  C   UNL     1       1.323   1.711  -0.001  0.00  0.00    +0.163 A 
ATOM     16  C   UNL     1      -0.016   1.310   0.009  0.00  0.00    +0.124 A 
ATOM     17  N   UNL     1       0.002  -0.004   0.002  0.00  0.00    -0.148 NA
BRANCH  13  21
ATOM     18  C   UNL     1       2.421  -4.394  -0.044  0.00  0.00    +0.000 A 
ATOM     19  C   UNL     1       3.371  -3.389  -0.048  0.00  0.00    +0.002 A 
ATOM     20  C   UNL     1       2.978  -2.065  -0.037  0.00  0.00    +0.029 A 
ATOM     21  C   UNL     1       1.627  -1.743  -0.023  0.00  0.00    +0.086 A 
ATOM     22  C   UNL     1       0.676  -2.754  -0.013  0.00  0.00    +0.029 A 
ATOM     23  C   UNL     1       1.075  -4.077  -0.030  0.00  0.00    +0.002 A 
ENDBRANCH  13  21
ENDBRANCH   1  16
TORSDOF 2
