REMARK  Name = ZINC01135844
REMARK  5 active torsions:
REMARK  status: ('A' for Active; 'I' for Inactive)
REMARK    1  A    between atoms: C_3  and  C_32
REMARK    2  A    between atoms: C_6  and  C_7
REMARK    3  A    between atoms: C_7  and  O_8
REMARK    4  A    between atoms: O_8  and  C_9
REMARK    5  A    between atoms: C_14  and  C_15
REMARK                            x       y       z     vdW  Elec       q    Type
REMARK                         _______ _______ _______ _____ _____    ______ ____
ROOT
ATOM      1  C   UNL     1      -0.059   4.498   0.026  0.00  0.00    +0.125 A 
ATOM      2  C   UNL     1      -1.250   3.787   0.034  0.00  0.00    +0.047 A 
ATOM      3  C   UNL     1      -1.230   2.406   0.021  0.00  0.00    +0.023 A 
ATOM      4  C   UNL     1      -0.021   1.732   0.012  0.00  0.00    +0.041 A 
ATOM      5  C   UNL     1       1.168   2.439   0.004  0.00  0.00    +0.028 A 
ATOM      6  C   UNL     1       1.151   3.820   0.011  0.00  0.00    +0.008 A 
ATOM      7 CL   UNL     1       0.002  -0.004   0.002  0.00  0.00    -0.084 Cl
ENDROOT
BRANCH   6   8
ATOM      8  C   UNL     1       2.446   4.590   0.002  0.00  0.00    +0.092 C 
ATOM      9  C   UNL     1       3.203   4.268  -1.260  0.00  0.00    +0.024 C 
ATOM     10  C   UNL     1       4.224   3.386  -1.241  0.00  0.00    +0.015 C 
ATOM     11  C   UNL     1       4.978   3.040  -2.500  0.00  0.00    +0.051 C 
ATOM     12  C   UNL     1       4.991   4.250  -3.438  0.00  0.00    +0.014 C 
ATOM     13  C   UNL     1       3.543   4.644  -3.745  0.00  0.00    +0.080 C 
ATOM     14  C   UNL     1       2.822   4.910  -2.452  0.00  0.00    +0.162 C 
ATOM     15  O   UNL     1       1.893   5.694  -2.436  0.00  0.00    -0.292 OA
ATOM     16  N   UNL     1       4.591   2.785  -0.068  0.00  0.00    -0.320 N 
ATOM     17  C   UNL     1       4.272   3.351   1.137  0.00  0.00    +0.015 C 
ATOM     18  C   UNL     1       3.247   4.224   1.224  0.00  0.00    +0.024 C 
ATOM     19  C   UNL     1       2.899   4.813   2.453  0.00  0.00    +0.162 C 
ATOM     20  O   UNL     1       1.976   5.601   2.497  0.00  0.00    -0.292 OA
ATOM     21  C   UNL     1       3.650   4.482   3.715  0.00  0.00    +0.080 C 
ATOM     22  C   UNL     1       4.214   3.062   3.602  0.00  0.00    +0.014 C 
ATOM     23  C   UNL     1       5.089   2.984   2.349  0.00  0.00    +0.051 C 
ATOM     24  H   UNL     1       5.149   1.838  -0.086  0.00  0.00    +0.152 HD
ENDBRANCH   6   8
BRANCH   1  25
ATOM     25  O   UNL     1      -0.077   5.857   0.034  0.00  0.00    -0.487 OA
BRANCH  25  26
ATOM     26  C   UNL     1      -1.359   6.489   0.049  0.00  0.00    +0.264 C 
BRANCH  26  32
ATOM     27  C   UNL     1      -1.095   8.663   1.259  0.00  0.00    +0.008 A 
ATOM     28  C   UNL     1      -0.928  10.033   1.272  0.00  0.00    +0.015 A 
ATOM     29  C   UNL     1      -0.858  10.736   0.067  0.00  0.00    +0.063 A 
ATOM     30  C   UNL     1      -0.951  10.046  -1.143  0.00  0.00    +0.015 A 
ATOM     31  C   UNL     1      -1.113   8.676  -1.141  0.00  0.00    +0.008 A 
ATOM     32  C   UNL     1      -1.182   7.985   0.056  0.00  0.00    -0.010 A 
BRANCH  29  33
ATOM     33  C   UNL     1      -0.684  12.203   0.074  0.00  0.00    +0.387 C 
ATOM     34  O   UNL     1      -0.622  12.811  -0.976  0.00  0.00    -0.241 OA
ATOM     35  O   UNL     1      -0.594  12.865   1.243  0.00  0.00    -0.241 OA
ENDBRANCH  29  33
ENDBRANCH  26  32
ENDBRANCH  25  26
ENDBRANCH   1  25
TORSDOF 5
