REMARK  Name = ZINC09641026
REMARK  7 active torsions:
REMARK  status: ('A' for Active; 'I' for Inactive)
REMARK    1  A    between atoms: C_1  and  C_2
REMARK    2  A    between atoms: C_2  and  C_31
REMARK    3  A    between atoms: N_5  and  C_9
REMARK    4  A    between atoms: C_9  and  C_10
REMARK    5  A    between atoms: N_15  and  S_18
REMARK    6  A    between atoms: S_18  and  C_21
REMARK    7  A    between atoms: C_26  and  C_27
REMARK                            x       y       z     vdW  Elec       q    Type
REMARK                         _______ _______ _______ _____ _____    ______ ____
ROOT
ATOM      1  C   UNL     1       2.741   1.085  -2.479  0.00  0.00    +0.234 C 
ATOM      2  O   UNL     1       2.061   1.303  -3.459  0.00  0.00    -0.274 OA
ATOM      3  N   UNL     1       4.006   0.643  -2.621  0.00  0.00    -0.298 N 
ATOM      4  C   UNL     1       4.843   0.380  -1.442  0.00  0.00    +0.125 C 
ATOM      5  C   UNL     1       5.355  -1.069  -1.523  0.00  0.00    +0.128 C 
ATOM      6  N   UNL     1       5.924  -1.290  -2.860  0.00  0.00    -0.174 NA
ATOM      7  C   UNL     1       5.089  -1.021  -4.039  0.00  0.00    +0.128 C 
ATOM      8  C   UNL     1       4.576   0.422  -3.958  0.00  0.00    +0.125 C 
ENDROOT
BRANCH   6   9
ATOM      9  S   UNL     1       7.479  -1.831  -3.034  0.00  0.00    +0.061 S 
ATOM     10  O   UNL     1       7.772  -2.606  -1.880  0.00  0.00    -0.153 OA
ATOM     11  O   UNL     1       7.581  -2.357  -4.351  0.00  0.00    -0.153 OA
BRANCH   9  12
ATOM     12  C   UNL     1       8.533  -0.420  -2.973  0.00  0.00    +0.117 A 
ATOM     13  C   UNL     1       7.995   0.849  -3.083  0.00  0.00    +0.029 A 
ATOM     14  C   UNL     1       8.820   1.957  -3.030  0.00  0.00    +0.002 A 
ATOM     15  C   UNL     1      10.185   1.795  -2.878  0.00  0.00    +0.001 A 
ATOM     16  C   UNL     1      10.723   0.526  -2.773  0.00  0.00    +0.014 A 
ATOM     17  C   UNL     1       9.897  -0.581  -2.821  0.00  0.00    +0.081 A 
BRANCH  17  18
ATOM     18  C   UNL     1      10.483  -1.965  -2.707  0.00  0.00    +0.419 C 
ATOM     19  F   UNL     1      11.880  -1.881  -2.709  0.00  0.00    -0.166 F 
ATOM     20  F   UNL     1      10.053  -2.557  -1.515  0.00  0.00    -0.166 F 
ATOM     21  F   UNL     1      10.062  -2.741  -3.792  0.00  0.00    -0.166 F 
ENDBRANCH  17  18
ENDBRANCH   9  12
ENDBRANCH   6   9
BRANCH   1  22
ATOM     22  C   UNL     1       2.170   1.306  -1.102  0.00  0.00    +0.213 C 
BRANCH  22  27
ATOM     23  C   UNL     1      -1.514   3.737  -2.714  0.00  0.00    +0.042 C 
ATOM     24  C   UNL     1      -1.070   3.097  -1.397  0.00  0.00    +0.113 C 
ATOM     25  C   UNL     1       0.442   3.083  -1.294  0.00  0.00    +0.247 C 
ATOM     26  O   UNL     1       1.184   4.042  -1.283  0.00  0.00    -0.273 OA
ATOM     27  N   UNL     1       0.790   1.784  -1.216  0.00  0.00    -0.215 N 
ATOM     28  C   UNL     1      -0.281   0.983  -1.256  0.00  0.00    +0.310 C 
ATOM     29  O   UNL     1      -0.221  -0.230  -1.202  0.00  0.00    -0.252 OA
ATOM     30  N   UNL     1      -1.433   1.669  -1.369  0.00  0.00    -0.285 N 
ATOM     31  H   UNL     1      -2.327   1.297  -1.420  0.00  0.00    +0.151 HD
BRANCH  24  32
ATOM     32  C   UNL     1      -1.685   3.837  -0.207  0.00  0.00    +0.021 C 
ATOM     33  C   UNL     1      -2.475   3.009   0.808  0.00  0.00    +0.006 C 
ATOM     34  C   UNL     1      -3.210   3.945  -0.154  0.00  0.00    +0.006 C 
ENDBRANCH  24  32
ENDBRANCH  22  27
ENDBRANCH   1  22
TORSDOF 6
