REMARK  Name = ZINC35271651
REMARK  7 active torsions:
REMARK  status: ('A' for Active; 'I' for Inactive)
REMARK    1  A    between atoms: C_1  and  C_2
REMARK    2  A    between atoms: N_4  and  C_5
REMARK    3  A    between atoms: C_7  and  O_36
REMARK    4  A    between atoms: C_15  and  C_18
REMARK    5  A    between atoms: C_24  and  O_26
REMARK    6  A    between atoms: O_26  and  C_27
REMARK    7  A    between atoms: C_32  and  C_33
REMARK                            x       y       z     vdW  Elec       q    Type
REMARK                         _______ _______ _______ _____ _____    ______ ____
ROOT
ATOM      1  C   UNL     1      -1.136  -2.159   0.001  0.00  0.00    +0.173 C 
ATOM      2  C   UNL     1      -2.445  -2.686  -0.595  0.00  0.00    +0.172 C 
ATOM      3  C   UNL     1      -2.451  -4.213  -0.527  0.00  0.00    +0.183 C 
ATOM      4  C   UNL     1      -2.242  -4.665   0.922  0.00  0.00    +0.179 C 
ATOM      5  C   UNL     1      -2.132  -6.195   0.946  0.00  0.00    +0.197 C 
ATOM      6  O   UNL     1      -1.095  -6.597   0.045  0.00  0.00    -0.342 OA
ATOM      7  C   UNL     1      -1.298  -6.164  -1.302  0.00  0.00    +0.319 C 
ATOM      8  O   UNL     1      -1.395  -4.737  -1.336  0.00  0.00    -0.336 OA
ATOM      9  O   UNL     1      -1.038  -4.089   1.433  0.00  0.00    -0.332 OA
ATOM     10  C   UNL     1      -0.994  -2.677   1.435  0.00  0.00    +0.331 C 
ENDROOT
BRANCH   1  14
ATOM     11  C   UNL     1      -0.018   1.503   0.010  0.00  0.00    +0.109 C 
ATOM     12  C   UNL     1       0.002  -0.004   0.002  0.00  0.00    +0.210 C 
ATOM     13  O   UNL     1       1.060  -0.596  -0.011  0.00  0.00    -0.276 OA
ATOM     14  N   UNL     1      -1.156  -0.694   0.009  0.00  0.00    -0.304 N 
ATOM     15  H   UNL     1      -2.002  -0.220   0.020  0.00  0.00    +0.149 HD
ENDBRANCH   1  14
BRANCH   7  16
ATOM     16  C   UNL     1      -0.137  -6.608  -2.153  0.00  0.00    +0.161 A 
ATOM     17  C   UNL     1       0.247  -7.881  -2.357  0.00  0.00    +0.050 A 
ATOM     18  C   UNL     1       1.371  -7.838  -3.213  0.00  0.00    +0.041 A 
ATOM     19  C   UNL     1       1.607  -6.541  -3.481  0.00  0.00    +0.195 A 
ATOM     20  O   UNL     1       0.687  -5.801  -2.841  0.00  0.00    -0.463 OA
ENDBRANCH   7  16
BRANCH   2  21
ATOM     21  O   UNL     1      -2.551  -2.267  -1.957  0.00  0.00    -0.387 OA
ATOM     22  H   UNL     1      -2.551  -1.307  -2.075  0.00  0.00    +0.210 HD
ENDBRANCH   2  21
BRANCH  10  23
ATOM     23  O   UNL     1      -2.074  -2.182   2.230  0.00  0.00    -0.461 OA
BRANCH  23  24
ATOM     24  C   UNL     1      -1.990  -2.373   3.570  0.00  0.00    +0.134 A 
ATOM     25  C   UNL     1      -0.889  -3.019   4.114  0.00  0.00    +0.047 A 
ATOM     26  C   UNL     1      -0.805  -3.213   5.478  0.00  0.00    +0.019 A 
ATOM     27  C   UNL     1      -1.815  -2.766   6.316  0.00  0.00    +0.019 A 
ATOM     28  C   UNL     1      -2.916  -2.122   5.795  0.00  0.00    +0.030 A 
ATOM     29  C   UNL     1      -3.014  -1.913   4.414  0.00  0.00    +0.057 A 
ATOM     30 BR   UNL     1      -1.682  -3.042   8.182  0.00  0.00    -0.050 Br
BRANCH  29  31
ATOM     31  C   UNL     1      -4.181  -1.224   3.852  0.00  0.00    +0.262 C 
ATOM     32  O   UNL     1      -5.063  -0.828   4.584  0.00  0.00    -0.296 OA
ENDBRANCH  29  31
ENDBRANCH  23  24
ENDBRANCH  10  23
TORSDOF 6
