REMARK  Name = ZINC20764644
REMARK  7 active torsions:
REMARK  status: ('A' for Active; 'I' for Inactive)
REMARK    1  A    between atoms: C_1  and  C_2
REMARK    2  A    between atoms: C_2  and  O_3
REMARK    3  A    between atoms: O_3  and  C_4
REMARK    4  A    between atoms: C_7  and  C_10
REMARK    5  A    between atoms: C_12  and  C_26
REMARK    6  A    between atoms: C_15  and  C_18
REMARK    7  A    between atoms: C_23  and  O_24
REMARK                            x       y       z     vdW  Elec       q    Type
REMARK                         _______ _______ _______ _____ _____    ______ ____
ROOT
ATOM      1  C   UNL     1       5.532  -1.862  -1.560  0.00  0.00    +0.047 C 
ATOM      2  N   UNL     1       5.655  -2.727  -0.623  0.00  0.00    -0.264 NA
ATOM      3  C   UNL     1       4.798  -2.785   0.554  0.00  0.00    +0.206 C 
ATOM      4  N   UNL     1       3.558  -2.030   0.331  0.00  0.00    -0.284 NA
ATOM      5  C   UNL     1       3.869  -0.675  -0.156  0.00  0.00    +0.095 C 
ATOM      6  C   UNL     1       4.470  -0.798  -1.560  0.00  0.00    +0.079 C 
ATOM      7  H   UNL     1       2.942  -2.550  -0.418  0.00  0.00    +0.125 HD
ENDROOT
BRANCH   5   8
ATOM      8  C   UNL     1       2.607   0.146  -0.213  0.00  0.00    +0.013 A 
ATOM      9  C   UNL     1       1.375  -0.479  -0.218  0.00  0.00    +0.028 A 
ATOM     10  C   UNL     1       0.216   0.275  -0.271  0.00  0.00    +0.042 A 
ATOM     11  C   UNL     1       0.288   1.656  -0.319  0.00  0.00    +0.023 A 
ATOM     12  C   UNL     1       1.518   2.285  -0.314  0.00  0.00    +0.047 A 
ATOM     13  C   UNL     1       2.682   1.530  -0.261  0.00  0.00    +0.122 A 
ATOM     14 CL   UNL     1      -1.331  -0.513  -0.277  0.00  0.00    -0.084 Cl
BRANCH  13  15
ATOM     15  O   UNL     1       3.893   2.147  -0.257  0.00  0.00    -0.506 OA
ATOM     16  H   UNL     1       3.951   3.245  -0.295  0.00  0.00    +0.292 HD
ENDBRANCH  13  15
ENDBRANCH   5   8
BRANCH   3  17
ATOM     17  C   UNL     1       5.531  -2.196   1.732  0.00  0.00    +0.026 A 
ATOM     18  C   UNL     1       4.839  -1.478   2.688  0.00  0.00    +0.010 A 
ATOM     19  C   UNL     1       5.511  -0.938   3.769  0.00  0.00    +0.001 A 
ATOM     20  C   UNL     1       6.877  -1.117   3.894  0.00  0.00    +0.003 A 
ATOM     21  C   UNL     1       7.571  -1.835   2.939  0.00  0.00    +0.039 A 
ATOM     22  C   UNL     1       6.897  -2.380   1.859  0.00  0.00    +0.130 A 
ATOM     23  F   UNL     1       7.574  -3.087   0.927  0.00  0.00    -0.205 F 
ENDBRANCH   3  17
BRANCH   1  27
ATOM     24  C   UNL     1       8.252  -2.006  -4.816  0.00  0.00    +0.121 A 
ATOM     25  C   UNL     1       8.357  -2.931  -3.784  0.00  0.00    +0.046 A 
ATOM     26  C   UNL     1       7.477  -2.887  -2.725  0.00  0.00    +0.013 A 
ATOM     27  C   UNL     1       6.476  -1.912  -2.691  0.00  0.00    -0.004 A 
ATOM     28  C   UNL     1       6.370  -0.988  -3.734  0.00  0.00    +0.013 A 
ATOM     29  C   UNL     1       7.258  -1.035  -4.786  0.00  0.00    +0.046 A 
BRANCH  24  30
ATOM     30  O   UNL     1       9.121  -2.052  -5.857  0.00  0.00    -0.492 OA
BRANCH  30  32
ATOM     31  C   UNL     1      10.020  -1.282  -7.965  0.00  0.00    +0.048 C 
ATOM     32  C   UNL     1       8.956  -1.073  -6.885  0.00  0.00    +0.225 C 
ENDBRANCH  30  32
ENDBRANCH  24  30
ENDBRANCH   1  27
TORSDOF 6
