REMARK  Name = ZINC09275915
REMARK  8 active torsions:
REMARK  status: ('A' for Active; 'I' for Inactive)
REMARK    1  A    between atoms: C_1  and  C_2
REMARK    2  A    between atoms: C_2  and  C_3
REMARK    3  A    between atoms: N_11  and  C_12
REMARK    4  A    between atoms: C_12  and  C_14
REMARK    5  A    between atoms: C_17  and  S_20
REMARK    6  A    between atoms: S_20  and  N_23
REMARK    7  A    between atoms: N_32  and  C_33
REMARK    8  A    between atoms: C_33  and  C_34
REMARK                            x       y       z     vdW  Elec       q    Type
REMARK                         _______ _______ _______ _____ _____    ______ ____
ROOT
ATOM      1  C   UNL     1      -3.824  10.837  -0.360  0.00  0.00    +0.039 A 
ATOM      2  C   UNL     1      -2.983  11.834   0.134  0.00  0.00    +0.015 A 
ATOM      3  C   UNL     1      -3.315  13.162  -0.042  0.00  0.00    +0.029 A 
ATOM      4  C   UNL     1      -4.484  13.505  -0.698  0.00  0.00    +0.109 A 
ATOM      5  C   UNL     1      -5.324  12.520  -1.185  0.00  0.00    +0.029 A 
ATOM      6  C   UNL     1      -5.001  11.189  -1.020  0.00  0.00    +0.015 A 
ENDROOT
BRANCH   4   7
ATOM      7  S   UNL     1      -4.904  15.202  -0.912  0.00  0.00    +0.075 S 
ATOM      8  O   UNL     1      -3.687  15.933  -0.848  0.00  0.00    -0.150 OA
ATOM      9  O   UNL     1      -5.773  15.267  -2.034  0.00  0.00    -0.150 OA
BRANCH   7  10
ATOM     10  N   UNL     1      -5.798  15.655   0.406  0.00  0.00    -0.202 N 
ATOM     11  C   UNL     1      -5.245  16.206   1.647  0.00  0.00    +0.136 C 
ATOM     12  C   UNL     1      -6.462  16.463   2.551  0.00  0.00    +0.058 C 
ATOM     13  C   UNL     1      -7.649  16.023   1.724  0.00  0.00    -0.023 A 
ATOM     14  C   UNL     1      -7.189  15.574   0.496  0.00  0.00    +0.054 A 
ATOM     15  C   UNL     1      -8.110  15.106  -0.443  0.00  0.00    +0.025 A 
ATOM     16  C   UNL     1      -9.458  15.102  -0.153  0.00  0.00    +0.002 A 
ATOM     17  C   UNL     1      -9.907  15.557   1.073  0.00  0.00    +0.000 A 
ATOM     18  C   UNL     1      -9.001  16.018   2.010  0.00  0.00    +0.005 A 
ENDBRANCH   7  10
ENDBRANCH   4   7
BRANCH   1  19
ATOM     19  C   UNL     1      -3.471   9.410  -0.179  0.00  0.00    +0.269 C 
ATOM     20  O   UNL     1      -4.210   8.540  -0.607  0.00  0.00    -0.268 OA
BRANCH  19  29
ATOM     21  C   UNL     1      -0.749   3.086   1.275  0.00  0.00    -0.046 A 
ATOM     22  C   UNL     1       0.279   3.797   1.871  0.00  0.00    +0.006 A 
ATOM     23  C   UNL     1       0.281   5.172   1.884  0.00  0.00    +0.027 A 
ATOM     24  C   UNL     1      -0.770   5.896   1.300  0.00  0.00    +0.058 A 
ATOM     25  C   UNL     1      -1.800   5.150   0.709  0.00  0.00    +0.039 A 
ATOM     26  C   UNL     1      -1.798   3.775   0.692  0.00  0.00    +0.020 A 
ATOM     27  S   UNL     1      -2.908   6.395   0.099  0.00  0.00    -0.052 S 
ATOM     28  C   UNL     1      -2.025   7.795   0.616  0.00  0.00    +0.168 A 
ATOM     29  N   UNL     1      -2.342   9.075   0.454  0.00  0.00    -0.152 NA
ATOM     30  N   UNL     1      -0.930   7.268   1.228  0.00  0.00    -0.310 N 
BRANCH  21  32
ATOM     31  C   UNL     1      -0.013   1.086   0.008  0.00  0.00    +0.009 C 
ATOM     32  C   UNL     1      -0.729   1.579   1.267  0.00  0.00    +0.032 C 
ENDBRANCH  21  32
BRANCH  30  33
ATOM     33  C   UNL     1       0.080   8.154   1.810  0.00  0.00    +0.212 C 
BRANCH  33  34
ATOM     34  C   UNL     1       1.101   8.467   0.797  0.00  0.00    -0.084 C 
ATOM     35  C   UNL     1       1.916   8.716  -0.010  0.00  0.00    +0.005 C 
ENDBRANCH  33  34
ENDBRANCH  30  33
ENDBRANCH  19  29
ENDBRANCH   1  19
TORSDOF 7
