REMARK  Name = ZINC12940466
REMARK  13 active torsions:
REMARK  status: ('A' for Active; 'I' for Inactive)
REMARK    1  A    between atoms: C_1  and  N_71
REMARK    2  A    between atoms: C_2  and  C_3
REMARK    3  A    between atoms: C_2  and  N_71
REMARK    4  A    between atoms: N_5  and  C_6
REMARK    5  A    between atoms: N_5  and  C_11
REMARK    6  A    between atoms: C_6  and  C_7
REMARK    7  A    between atoms: C_7  and  C_8
REMARK    8  A    between atoms: C_8  and  O_9
REMARK    9  A    between atoms: O_9  and  C_10
REMARK   10  A    between atoms: C_12  and  N_27
REMARK   11  A    between atoms: N_13  and  C_20
REMARK   12  A    between atoms: C_20  and  C_21
REMARK   13  A    between atoms: C_28  and  N_71
REMARK                            x       y       z     vdW  Elec       q    Type
REMARK                         _______ _______ _______ _____ _____    ______ ____
ROOT
ATOM      1  C   UNL     1      -1.530   0.794   2.013  0.00  0.00    +0.203 C 
ATOM      2  O   UNL     1      -1.885   1.227   3.090  0.00  0.00    -0.277 OA
ATOM      3  N   UNL     1      -0.692   1.516   1.240  0.00  0.00    -0.266 N 
ENDROOT
BRANCH   3   4
ATOM      4  C   UNL     1      -0.143   2.721   1.728  0.00  0.00    +0.140 A 
ATOM      5  C   UNL     1      -0.957   3.799   2.009  0.00  0.00    +0.128 A 
ATOM      6  N   UNL     1      -0.393   4.959   2.487  0.00  0.00    -0.276 N 
ATOM      7  C   UNL     1       0.937   5.045   2.670  0.00  0.00    +0.331 A 
ATOM      8  O   UNL     1       1.417   6.080   3.089  0.00  0.00    -0.246 OA
ATOM      9  N   UNL     1       1.746   4.006   2.396  0.00  0.00    -0.273 N 
ATOM     10  H   UNL     1       2.732   4.096   2.540  0.00  0.00    +0.173 HD
ATOM     11  C   UNL     1       1.244   2.846   1.930  0.00  0.00    +0.277 A 
ATOM     12  O   UNL     1       1.987   1.910   1.685  0.00  0.00    -0.266 OA
BRANCH   5  13
ATOM     13  N   UNL     1      -2.315   3.713   1.818  0.00  0.00    -0.343 N 
ATOM     14  H   UNL     1      -2.698   2.924   1.405  0.00  0.00    +0.144 HD
ATOM     15  H   UNL     1      -2.891   4.443   2.097  0.00  0.00    +0.144 HD
ENDBRANCH   5  13
BRANCH   6  16
ATOM     16  C   UNL     1      -1.246   6.110   2.795  0.00  0.00    +0.163 C 
BRANCH  16  17
ATOM     17  C   UNL     1      -1.386   6.974   1.568  0.00  0.00    -0.028 A 
ATOM     18  C   UNL     1      -0.488   8.000   1.339  0.00  0.00    +0.005 A 
ATOM     19  C   UNL     1      -0.614   8.789   0.211  0.00  0.00    +0.000 A 
ATOM     20  C   UNL     1      -1.643   8.559  -0.682  0.00  0.00    +0.000 A 
ATOM     21  C   UNL     1      -2.543   7.536  -0.451  0.00  0.00    +0.000 A 
ATOM     22  C   UNL     1      -2.415   6.744   0.674  0.00  0.00    +0.005 A 
ENDBRANCH  16  17
ENDBRANCH   6  16
ENDBRANCH   3   4
BRANCH   1  23
ATOM     23  C   UNL     1      -2.024  -0.548   1.540  0.00  0.00    +0.019 C 
BRANCH  23  25
ATOM     24  C   UNL     1      -4.143  -0.332   2.691  0.00  0.00    -0.095 C 
ATOM     25  N   UNL     1      -2.902  -1.127   2.579  0.00  0.00    +0.385 N 
ATOM     26  H   UNL     1      -2.410  -1.106   3.480  0.00  0.00    -0.081 HD
BRANCH  25  27
ATOM     27  C   UNL     1      -3.228  -2.528   2.242  0.00  0.00    -0.068 C 
ATOM     28  C   UNL     1      -3.972  -2.585   0.891  0.00  0.00    -0.015 C 
ATOM     29  C   UNL     1      -3.841  -3.976   0.332  0.00  0.00    -0.002 C 
ATOM     30  C   UNL     1      -5.036  -4.875   0.702  0.00  0.00    -0.000 C 
ATOM     31  C   UNL     1      -5.490  -4.693   2.163  0.00  0.00    -0.000 C 
ATOM     32  C   UNL     1      -4.332  -4.583   3.117  0.00  0.00    -0.002 C 
ATOM     33  C   UNL     1      -4.013  -3.090   3.331  0.00  0.00    -0.015 C 
ENDBRANCH  25  27
ENDBRANCH  23  25
ENDBRANCH   1  23
BRANCH   3  34
ATOM     34  C   UNL     1      -0.351   1.048  -0.106  0.00  0.00    +0.116 C 
BRANCH  34  35
ATOM     35  C   UNL     1      -1.391   1.562  -1.103  0.00  0.00    +0.047 C 
BRANCH  35  36
ATOM     36  C   UNL     1      -1.035   1.073  -2.509  0.00  0.00    +0.161 C 
BRANCH  36  37
ATOM     37  O   UNL     1      -2.007   1.554  -3.440  0.00  0.00    -0.383 OA
ATOM     38  C   UNL     1      -1.766   1.152  -4.790  0.00  0.00    +0.193 C 
ENDBRANCH  36  37
ENDBRANCH  35  36
ENDBRANCH  34  35
ENDBRANCH   3  34
TORSDOF 11
