REMARK  Name = ZINC14357540
REMARK  12 active torsions:
REMARK  status: ('A' for Active; 'I' for Inactive)
REMARK    1  A    between atoms: C_1  and  C_2
REMARK    2  A    between atoms: C_2  and  N_3
REMARK    3  A    between atoms: C_7  and  C_9
REMARK    4  A    between atoms: C_9  and  C_11
REMARK    5  A    between atoms: C_9  and  O_12
REMARK    6  A    between atoms: O_12  and  C_13
REMARK    7  A    between atoms: C_13  and  C_15
REMARK    8  A    between atoms: C_28  and  C_29
REMARK    9  A    between atoms: C_32  and  C_35
REMARK   10  A    between atoms: C_35  and  C_36
REMARK   11  A    between atoms: C_35  and  C_37
REMARK   12  A    between atoms: C_35  and  C_38
REMARK                            x       y       z     vdW  Elec       q    Type
REMARK                         _______ _______ _______ _____ _____    ______ ____
ROOT
ATOM      1  C   UNL     1      -0.169   1.961  -2.493  0.00  0.00    +0.073 A 
ATOM      2  C   UNL     1      -1.212   2.332  -3.450  0.00  0.00    +0.015 A 
ATOM      3  C   UNL     1      -1.010   2.237  -4.830  0.00  0.00    +0.011 A 
ATOM      4  C   UNL     1      -2.012   2.595  -5.684  0.00  0.00    +0.001 A 
ATOM      5  C   UNL     1      -3.233   3.055  -5.197  0.00  0.00    +0.002 A 
ATOM      6  C   UNL     1      -3.463   3.161  -3.860  0.00  0.00    +0.028 A 
ATOM      7  C   UNL     1      -2.453   2.799  -2.947  0.00  0.00    +0.072 A 
ATOM      8  N   UNL     1      -2.648   2.892  -1.634  0.00  0.00    -0.247 NA
ATOM      9  C   UNL     1      -1.722   2.563  -0.741  0.00  0.00    +0.072 A 
ATOM     10  C   UNL     1      -0.462   2.090  -1.143  0.00  0.00    -0.007 A 
ATOM     11  C   UNL     1       0.384   1.796   0.071  0.00  0.00    +0.043 C 
ATOM     12  C   UNL     1      -0.480   2.136   1.293  0.00  0.00    +0.042 C 
ATOM     13  C   UNL     1      -1.798   2.614   0.733  0.00  0.00    -0.021 C 
ATOM     14  C   UNL     1      -2.859   3.018   1.452  0.00  0.00    +0.013 C 
ENDROOT
BRANCH  14  15
ATOM     15  C   UNL     1      -2.850   2.878   2.919  0.00  0.00    -0.025 A 
ATOM     16  C   UNL     1      -2.280   1.749   3.514  0.00  0.00    +0.008 A 
ATOM     17  C   UNL     1      -2.271   1.628   4.887  0.00  0.00    +0.005 A 
ATOM     18  C   UNL     1      -2.835   2.615   5.676  0.00  0.00    -0.042 A 
ATOM     19  C   UNL     1      -3.406   3.733   5.095  0.00  0.00    +0.005 A 
ATOM     20  C   UNL     1      -3.417   3.871   3.722  0.00  0.00    +0.008 A 
BRANCH  18  21
ATOM     21  C   UNL     1      -2.827   2.472   7.176  0.00  0.00    -0.013 C 
ATOM     22  C   UNL     1      -4.266   2.468   7.696  0.00  0.00    +0.015 C 
ATOM     23  C   UNL     1      -2.142   1.158   7.560  0.00  0.00    +0.015 C 
ATOM     24  C   UNL     1      -2.064   3.644   7.796  0.00  0.00    +0.015 C 
ENDBRANCH  18  21
ENDBRANCH  14  15
BRANCH   1  25
ATOM     25  C   UNL     1       1.147   1.466  -2.949  0.00  0.00    +0.341 C 
ATOM     26  O   UNL     1       1.322   0.276  -3.121  0.00  0.00    -0.245 OA
BRANCH  25  27
ATOM     27  O   UNL     1       2.152   2.334  -3.173  0.00  0.00    -0.449 OA
BRANCH  27  28
ATOM     28  C   UNL     1       3.417   1.777  -3.619  0.00  0.00    +0.259 C 
ATOM     29  C   UNL     1       3.438   1.718  -5.147  0.00  0.00    +0.062 C 
BRANCH  28  34
ATOM     30  N   UNL     1       8.107   2.779  -3.294  0.00  0.00    -0.299 N 
ATOM     31  C   UNL     1       6.833   3.103  -2.998  0.00  0.00    +0.306 C 
ATOM     32  O   UNL     1       6.596   4.098  -2.341  0.00  0.00    -0.252 OA
ATOM     33  N   UNL     1       5.822   2.324  -3.431  0.00  0.00    -0.237 N 
ATOM     34  C   UNL     1       4.548   2.648  -3.135  0.00  0.00    +0.261 C 
ATOM     35  O   UNL     1       4.311   3.640  -2.479  0.00  0.00    -0.271 OA
ATOM     36  H   UNL     1       8.297   1.986  -3.819  0.00  0.00    +0.150 HD
ATOM     37  H   UNL     1       6.011   1.531  -3.955  0.00  0.00    +0.159 HD
BRANCH  30  39
ATOM     38  C   UNL     1      10.539   3.039  -3.293  0.00  0.00    +0.024 C 
ATOM     39  C   UNL     1       9.207   3.626  -2.824  0.00  0.00    +0.102 C 
ENDBRANCH  30  39
ENDBRANCH  28  34
ENDBRANCH  27  28
ENDBRANCH  25  27
ENDBRANCH   1  25
TORSDOF 7
