REMARK  Name = ZINC35564251
REMARK  9 active torsions:
REMARK  status: ('A' for Active; 'I' for Inactive)
REMARK    1  A    between atoms: C_1  and  C_2
REMARK    2  A    between atoms: C_2  and  C_3
REMARK    3  A    between atoms: C_3  and  C_4
REMARK    4  A    between atoms: C_4  and  C_5
REMARK    5  A    between atoms: C_5  and  C_7
REMARK    6  A    between atoms: C_5  and  C_9
REMARK    7  A    between atoms: C_7  and  C_8
REMARK    8  A    between atoms: C_23  and  C_25
REMARK    9  A    between atoms: C_25  and  N_26
REMARK                            x       y       z     vdW  Elec       q    Type
REMARK                         _______ _______ _______ _____ _____    ______ ____
ROOT
ATOM      1  C   UNL     1       3.904  -3.783  -1.329  0.00  0.00    +0.219 C 
ATOM      2  O   UNL     1       3.708  -2.587  -1.309  0.00  0.00    -0.275 OA
ATOM      3  N   UNL     1       4.698  -4.320  -2.277  0.00  0.00    -0.298 N 
ATOM      4  C   UNL     1       4.878  -5.776  -2.366  0.00  0.00    +0.127 C 
ATOM      5  C   UNL     1       4.511  -6.230  -3.784  0.00  0.00    +0.127 C 
ATOM      6  N   UNL     1       5.212  -5.370  -4.748  0.00  0.00    -0.298 N 
ATOM      7  C   UNL     1       5.032  -3.914  -4.660  0.00  0.00    +0.127 C 
ATOM      8  C   UNL     1       5.394  -3.460  -3.245  0.00  0.00    +0.127 C 
ATOM      9  C   UNL     1       6.018  -5.915  -5.711  0.00  0.00    +0.198 A 
ATOM     10  N   UNL     1       6.078  -7.267  -5.845  0.00  0.00    -0.295 N 
ATOM     11  H   UNL     1       5.553  -7.838  -5.262  0.00  0.00    +0.172 HD
ATOM     12  C   UNL     1       6.870  -7.812  -6.793  0.00  0.00    +0.253 A 
ATOM     13  O   UNL     1       6.936  -9.023  -6.927  0.00  0.00    -0.268 OA
ATOM     14  C   UNL     1       7.618  -6.958  -7.622  0.00  0.00    +0.091 A 
ATOM     15  C   UNL     1       7.517  -5.609  -7.441  0.00  0.00    +0.034 A 
ATOM     16  N   UNL     1       6.718  -5.120  -6.496  0.00  0.00    -0.223 NA
ENDROOT
BRANCH   1  17
ATOM     17  C   UNL     1       3.261  -4.670  -0.294  0.00  0.00    +0.075 C 
BRANCH  17  18
ATOM     18  C   UNL     1       4.343  -5.268   0.608  0.00  0.00    +0.009 C 
ATOM     19  C   UNL     1       5.023  -4.148   1.399  0.00  0.00    +0.004 C 
ENDBRANCH  17  18
BRANCH  17  20
ATOM     20  C   UNL     1       2.290  -3.845   0.552  0.00  0.00    +0.013 C 
BRANCH  20  21
ATOM     21  C   UNL     1       1.537  -4.769   1.511  0.00  0.00    +0.000 C 
BRANCH  21  23
ATOM     22  C   UNL     1      -0.105  -4.856   3.393  0.00  0.00    +0.004 C 
ATOM     23  C   UNL     1       0.649  -3.932   2.434  0.00  0.00    -0.003 C 
ENDBRANCH  21  23
ENDBRANCH  20  21
ENDBRANCH  17  20
ENDBRANCH   1  17
BRANCH  15  24
ATOM     24  C   UNL     1       8.308  -4.671  -8.317  0.00  0.00    -0.022 C 
BRANCH  24  25
ATOM     25  N   UNL     1       7.386  -3.870  -9.134  0.00  0.00    +0.385 N 
ATOM     26  C   UNL     1       6.656  -4.752 -10.052  0.00  0.00    -0.059 C 
ATOM     27  C   UNL     1       5.614  -3.935 -10.823  0.00  0.00    +0.088 C 
ATOM     28  N   UNL     1       6.296  -2.808 -11.478  0.00  0.00    -0.320 N 
ATOM     29  C   UNL     1       7.182  -1.965 -10.661  0.00  0.00    +0.088 C 
ATOM     30  C   UNL     1       8.150  -2.875  -9.897  0.00  0.00    -0.059 C 
ATOM     31  C   UNL     1       6.108  -2.547 -12.830  0.00  0.00    +0.099 A 
ATOM     32  C   UNL     1       5.165  -3.275 -13.549  0.00  0.00    +0.042 A 
ATOM     33  C   UNL     1       4.988  -3.005 -14.893  0.00  0.00    +0.005 A 
ATOM     34  C   UNL     1       5.765  -2.012 -15.477  0.00  0.00    +0.018 A 
ATOM     35  C   UNL     1       6.682  -1.329 -14.705  0.00  0.00    +0.084 A 
ATOM     36  N   UNL     1       6.825  -1.605 -13.422  0.00  0.00    -0.350 N 
ATOM     37  H   UNL     1       7.475  -1.107 -12.901  0.00  0.00    +0.166 HD
ATOM     38  H   UNL     1       6.729  -3.397  -8.531  0.00  0.00    -0.081 HD
ENDBRANCH  24  25
ENDBRANCH  15  24
TORSDOF 7
