REMARK  Name = ZINC12661120
REMARK  12 active torsions:
REMARK  status: ('A' for Active; 'I' for Inactive)
REMARK    1  A    between atoms: C_1  and  N_59
REMARK    2  A    between atoms: C_8  and  O_27
REMARK    3  A    between atoms: C_10  and  C_12
REMARK    4  A    between atoms: C_12  and  C_13
REMARK    5  A    between atoms: C_13  and  C_15
REMARK    6  A    between atoms: C_13  and  O_26
REMARK    7  A    between atoms: C_15  and  C_16
REMARK    8  A    between atoms: C_16  and  C_17
REMARK    9  A    between atoms: C_20  and  O_25
REMARK   10  A    between atoms: C_21  and  O_23
REMARK   11  A    between atoms: O_23  and  C_24
REMARK   12  A    between atoms: O_27  and  C_28
REMARK                            x       y       z     vdW  Elec       q    Type
REMARK                         _______ _______ _______ _____ _____    ______ ____
ROOT
ATOM      1  C   UNL     1       7.309  -0.141  -1.042  0.00  0.00    -0.095 C 
ATOM      2  C   UNL     1       8.641  -1.133  -2.806  0.00  0.00    -0.074 C 
ATOM      3  C   UNL     1       8.855  -1.071  -4.319  0.00  0.00    +0.017 C 
ATOM      4  C   UNL     1       7.601  -1.506  -5.034  0.00  0.00    -0.040 A 
ATOM      5  C   UNL     1       7.694  -1.855  -6.373  0.00  0.00    +0.053 A 
ATOM      6  C   UNL     1       6.569  -2.254  -7.075  0.00  0.00    +0.170 A 
ATOM      7  C   UNL     1       5.337  -2.303  -6.432  0.00  0.00    +0.208 A 
ATOM      8  C   UNL     1       5.248  -1.955  -5.092  0.00  0.00    +0.167 A 
ATOM      9  C   UNL     1       6.383  -1.557  -4.392  0.00  0.00    -0.012 A 
ATOM     10  C   UNL     1       6.235  -1.193  -2.937  0.00  0.00    -0.032 C 
ATOM     11  O   UNL     1       4.393  -2.720  -7.327  0.00  0.00    -0.449 OA
ATOM     12  C   UNL     1       4.986  -2.532  -8.626  0.00  0.00    +0.467 C 
ATOM     13  O   UNL     1       6.400  -2.639  -8.374  0.00  0.00    -0.452 OA
ATOM     14  N   UNL     1       7.396  -0.401  -2.496  0.00  0.00    +0.383 N 
ATOM     15  H   UNL     1       7.400   0.496  -2.996  0.00  0.00    -0.081 HD
ENDROOT
BRANCH   8  16
ATOM     16  O   UNL     1       4.045  -2.003  -4.459  0.00  0.00    -0.491 OA
ATOM     17  C   UNL     1       3.632  -3.271  -3.947  0.00  0.00    +0.277 C 
ENDBRANCH   8  16
BRANCH  10  18
ATOM     18  C   UNL     1       4.968  -0.357  -2.753  0.00  0.00    +0.021 C 
BRANCH  18  19
ATOM     19  C   UNL     1       5.093   0.942  -3.551  0.00  0.00    +0.114 C 
BRANCH  19  20
ATOM     20  O   UNL     1       5.118   0.642  -4.948  0.00  0.00    -0.392 OA
ATOM     21  H   UNL     1       4.288   0.282  -5.288  0.00  0.00    +0.210 HD
ENDBRANCH  19  20
BRANCH  19  22
ATOM     22  C   UNL     1       3.896   1.846  -3.246  0.00  0.00    +0.036 C 
BRANCH  22  23
ATOM     23  C   UNL     1       4.083   3.193  -3.946  0.00  0.00    +0.038 C 
BRANCH  23  24
ATOM     24  C   UNL     1       2.905   4.083  -3.645  0.00  0.00    -0.044 A 
ATOM     25  C   UNL     1       1.798   4.067  -4.475  0.00  0.00    +0.007 A 
ATOM     26  C   UNL     1       0.715   4.882  -4.203  0.00  0.00    +0.049 A 
ATOM     27  C   UNL     1       0.737   5.718  -3.098  0.00  0.00    +0.158 A 
ATOM     28  C   UNL     1       1.847   5.730  -2.260  0.00  0.00    +0.162 A 
ATOM     29  C   UNL     1       2.932   4.915  -2.541  0.00  0.00    +0.053 A 
BRANCH  28  30
ATOM     30  O   UNL     1       1.871   6.544  -1.171  0.00  0.00    -0.491 OA
ATOM     31  C   UNL     1       3.046   6.508  -0.359  0.00  0.00    +0.277 C 
ENDBRANCH  28  30
BRANCH  27  32
ATOM     32  O   UNL     1      -0.328   6.520  -2.830  0.00  0.00    -0.503 OA
ATOM     33  H   UNL     1      -0.995   6.111  -2.261  0.00  0.00    +0.292 HD
ENDBRANCH  27  32
ENDBRANCH  23  24
ENDBRANCH  22  23
ENDBRANCH  19  22
ENDBRANCH  18  19
ENDBRANCH  10  18
TORSDOF 9
