REMARK  Name = ZINC31918934
REMARK  7 active torsions:
REMARK  status: ('A' for Active; 'I' for Inactive)
REMARK    1  A    between atoms: C_1  and  C_2
REMARK    2  A    between atoms: C_2  and  C_3
REMARK    3  A    between atoms: C_10  and  C_12
REMARK    4  A    between atoms: C_12  and  C_13
REMARK    5  A    between atoms: C_13  and  C_14
REMARK    6  A    between atoms: C_17  and  N_21
REMARK    7  A    between atoms: C_18  and  N_20
REMARK                            x       y       z     vdW  Elec       q    Type
REMARK                         _______ _______ _______ _____ _____    ______ ____
ROOT
ATOM      1  C   UNL     1      -1.823  -2.796   3.235  0.00  0.00    -0.045 A 
ATOM      2  C   UNL     1      -2.855  -3.277   2.451  0.00  0.00    +0.005 A 
ATOM      3  C   UNL     1      -2.983  -4.636   2.228  0.00  0.00    +0.025 A 
ATOM      4  C   UNL     1      -2.081  -5.520   2.800  0.00  0.00    +0.051 A 
ATOM      5  C   UNL     1      -1.044  -5.035   3.596  0.00  0.00    +0.046 A 
ATOM      6  C   UNL     1      -0.920  -3.671   3.810  0.00  0.00    +0.028 A 
ENDROOT
BRANCH   4   7
ATOM      7  N   UNL     1      -2.212  -6.897   2.580  0.00  0.00    -0.328 N 
ATOM      8  C   UNL     1      -3.423  -7.194   1.773  0.00  0.00    +0.105 C 
ATOM      9  C   UNL     1      -3.130  -8.603   1.198  0.00  0.00    +0.020 C 
ATOM     10  C   UNL     1      -1.614  -8.546   0.901  0.00  0.00    +0.020 C 
ATOM     11  C   UNL     1      -1.070  -7.420   1.799  0.00  0.00    +0.105 C 
ENDBRANCH   4   7
BRANCH   5  12
ATOM     12  N   UNL     1      -0.131  -5.923   4.178  0.00  0.00    -0.357 N 
ATOM     13  H   UNL     1       0.687  -5.538   4.805  0.00  0.00    +0.142 HD
ATOM     14  H   UNL     1      -0.231  -7.005   4.007  0.00  0.00    +0.142 HD
ENDBRANCH   5  12
BRANCH   1  15
ATOM     15  C   UNL     1      -1.686  -1.313   3.469  0.00  0.00    +0.044 C 
BRANCH  15  16
ATOM     16  C   UNL     1      -0.796  -0.706   2.383  0.00  0.00    +0.100 C 
BRANCH  16  23
ATOM     17  C   UNL     1       0.317   2.951   2.053  0.00  0.00    +0.076 C 
ATOM     18  C   UNL     1      -0.090   3.765   0.821  0.00  0.00    +0.022 C 
ATOM     19  C   UNL     1       0.653   3.232  -0.406  0.00  0.00    +0.003 C 
ATOM     20  C   UNL     1       0.266   1.770  -0.643  0.00  0.00    +0.019 C 
ATOM     21  C   UNL     1       0.677   0.933   0.572  0.00  0.00    +0.108 C 
ATOM     22  N   UNL     1       0.085   1.526   1.780  0.00  0.00    -0.298 N 
ATOM     23  C   UNL     1      -0.659   0.777   2.617  0.00  0.00    +0.216 C 
ATOM     24  O   UNL     1      -1.219   1.296   3.560  0.00  0.00    -0.276 OA
BRANCH  17  26
ATOM     25  C   UNL     1      -0.257   4.865   3.552  0.00  0.00    +0.006 C 
ATOM     26  C   UNL     1      -0.521   3.388   3.257  0.00  0.00    +0.019 C 
ENDBRANCH  17  26
ENDBRANCH  16  23
ENDBRANCH  15  16
ENDBRANCH   1  15
TORSDOF 6
