REMARK  Name = ZINC00046367
REMARK  5 active torsions:
REMARK  status: ('A' for Active; 'I' for Inactive)
REMARK    1  A    between atoms: C_1  and  O_2
REMARK    2  A    between atoms: O_2  and  C_3
REMARK    3  A    between atoms: C_5  and  C_10
REMARK    4  A    between atoms: C_8  and  O_9
REMARK    5  A    between atoms: N_11  and  C_12
REMARK                            x       y       z     vdW  Elec       q    Type
REMARK                         _______ _______ _______ _____ _____    ______ ____
ROOT
ATOM      1  C   UNL     1       0.626  -0.619   1.042  0.00  0.00    +0.162 A 
ATOM      2  C   UNL     1       1.200   0.136   2.047  0.00  0.00    +0.058 A 
ATOM      3  C   UNL     1       1.841  -0.500   3.116  0.00  0.00    -0.003 A 
ATOM      4  C   UNL     1       1.897  -1.897   3.161  0.00  0.00    +0.013 A 
ATOM      5  C   UNL     1       1.323  -2.642   2.155  0.00  0.00    +0.050 A 
ATOM      6  C   UNL     1       0.682  -2.011   1.097  0.00  0.00    +0.158 A 
ENDROOT
BRANCH   1   8
ATOM      7  C   UNL     1      -0.017   1.425   0.010  0.00  0.00    +0.277 C 
ATOM      8  O   UNL     1       0.002  -0.004   0.002  0.00  0.00    -0.491 OA
ENDBRANCH   1   8
BRANCH   6   9
ATOM      9  O   UNL     1       0.112  -2.751   0.111  0.00  0.00    -0.503 OA
ATOM     10  H   UNL     1       0.708  -2.952  -0.624  0.00  0.00    +0.292 HD
ENDBRANCH   6   9
BRANCH   3  11
ATOM     11  C   UNL     1       2.454   0.298   4.188  0.00  0.00    +0.119 C 
ATOM     12  N   UNL     1       3.050  -0.296   5.183  0.00  0.00    -0.255 NA
BRANCH  12  13
ATOM     13  C   UNL     1       3.621   0.447   6.181  0.00  0.00    +0.065 A 
ATOM     14  C   UNL     1       4.399   1.563   5.867  0.00  0.00    +0.029 A 
ATOM     15  C   UNL     1       4.971   2.308   6.877  0.00  0.00    +0.019 A 
ATOM     16  C   UNL     1       4.777   1.950   8.201  0.00  0.00    +0.036 A 
ATOM     17  C   UNL     1       4.006   0.844   8.520  0.00  0.00    +0.057 A 
ATOM     18  C   UNL     1       3.423   0.094   7.518  0.00  0.00    +0.048 A 
ATOM     19 CL   UNL     1       3.769   0.403  10.182  0.00  0.00    -0.082 Cl
ATOM     20 BR   UNL     1       5.566   2.977   9.579  0.00  0.00    -0.049 Br
ENDBRANCH  12  13
ENDBRANCH   3  11
TORSDOF 4
