REMARK  Name = ZINC62723083
REMARK  4 active torsions:
REMARK  status: ('A' for Active; 'I' for Inactive)
REMARK    1  A    between atoms: C_3  and  O_11
REMARK    2  A    between atoms: C_6  and  N_7
REMARK    3  A    between atoms: O_11  and  C_12
REMARK    4  A    between atoms: C_15  and  C_19
REMARK                            x       y       z     vdW  Elec       q    Type
REMARK                         _______ _______ _______ _____ _____    ______ ____
ROOT
ATOM      1  O   UNL     1       3.548   2.107  -0.021  0.00  0.00    -0.447 OA
ENDROOT
BRANCH   1   2
ATOM      2  C   UNL     1       3.482   3.466  -0.013  0.00  0.00    +0.199 A 
ATOM      3  C   UNL     1       3.431   4.167  -1.211  0.00  0.00    +0.169 A 
ATOM      4  C   UNL     1       3.364   5.548  -1.200  0.00  0.00    +0.047 A 
ATOM      5  C   UNL     1       3.349   6.232   0.002  0.00  0.00    -0.027 A 
ATOM      6  C   UNL     1       3.399   5.537   1.196  0.00  0.00    +0.047 A 
ATOM      7  C   UNL     1       3.460   4.155   1.192  0.00  0.00    +0.169 A 
ATOM      8  F   UNL     1       3.504   3.476   2.360  0.00  0.00    -0.202 F 
ATOM      9  F   UNL     1       3.447   3.500  -2.386  0.00  0.00    -0.202 F 
BRANCH   5  10
ATOM     10  C   UNL     1       3.277   7.737   0.010  0.00  0.00    +0.143 C 
ATOM     11 CL   UNL     1       1.550   8.256   0.038  0.00  0.00    -0.120 Cl
ENDBRANCH   5  10
ENDBRANCH   1   2
BRANCH   1  14
ATOM     12  C   UNL     1      -0.017   1.378   0.010  0.00  0.00    +0.036 A 
ATOM     13  C   UNL     1       1.169   2.087   0.002  0.00  0.00    +0.051 A 
ATOM     14  C   UNL     1       2.380   1.412  -0.013  0.00  0.00    +0.164 A 
ATOM     15  C   UNL     1       2.397   0.022  -0.021  0.00  0.00    +0.168 A 
ATOM     16  C   UNL     1       1.208  -0.682  -0.013  0.00  0.00    +0.074 A 
ATOM     17  C   UNL     1       0.002  -0.004   0.002  0.00  0.00    +0.129 A 
ATOM     18  F   UNL     1       3.575  -0.640  -0.036  0.00  0.00    -0.202 F 
BRANCH  17  19
ATOM     19  N   UNL     1      -1.270  -0.760   0.010  0.00  0.00    +0.057 N 
ATOM     20  O   UNL     1      -2.325  -0.169   0.023  0.00  0.00    -0.126 OA
ATOM     21  O   UNL     1      -1.256  -1.969   0.004  0.00  0.00    -0.126 OA
ENDBRANCH  17  19
ENDBRANCH   1  14
TORSDOF 4
