REMARK  Name = ZINC13499519
REMARK  16 active torsions:
REMARK  status: ('A' for Active; 'I' for Inactive)
REMARK    1  A    between atoms: C_1  and  C_2
REMARK    2  A    between atoms: C_2  and  C_3
REMARK    3  A    between atoms: C_3  and  C_4
REMARK    4  A    between atoms: C_4  and  C_6
REMARK    5  A    between atoms: C_4  and  N_72
REMARK    6  A    between atoms: N_10  and  C_11
REMARK    7  A    between atoms: C_11  and  C_12
REMARK    8  A    between atoms: C_12  and  C_13
REMARK    9  A    between atoms: C_19  and  C_20
REMARK   10  A    between atoms: C_19  and  N_72
REMARK   11  A    between atoms: C_20  and  C_21
REMARK   12  A    between atoms: C_21  and  O_22
REMARK   13  A    between atoms: C_23  and  C_24
REMARK   14  A    between atoms: C_23  and  N_72
REMARK   15  A    between atoms: C_28  and  C_37
REMARK   16  A    between atoms: C_29  and  C_36
REMARK                            x       y       z     vdW  Elec       q    Type
REMARK                         _______ _______ _______ _____ _____    ______ ____
ROOT
ATOM      1  N   UNL     1      -5.134   4.008  -1.753  0.00  0.00    +0.389 N 
ATOM      2  H   UNL     1      -4.952   3.000  -1.808  0.00  0.00    -0.080 HD
ENDROOT
BRANCH   1   3
ATOM      3  C   UNL     1      -6.594   4.236  -1.809  0.00  0.00    +0.003 C 
BRANCH   3   4
ATOM      4  C   UNL     1      -6.893   5.695  -2.035  0.00  0.00    +0.138 A 
ATOM      5  N   UNL     1      -6.412   6.453  -2.991  0.00  0.00    -0.115 NA
ATOM      6  N   UNL     1      -6.905   7.635  -2.846  0.00  0.00    -0.023 NA
ATOM      7  N   UNL     1      -7.681   7.652  -1.819  0.00  0.00    -0.044 NA
ATOM      8  N   UNL     1      -7.700   6.475  -1.292  0.00  0.00    -0.231 N 
BRANCH   8   9
ATOM      9  C   UNL     1      -8.457   6.064  -0.107  0.00  0.00    +0.152 C 
BRANCH   9  10
ATOM     10  C   UNL     1      -7.704   6.494   1.154  0.00  0.00    +0.058 C 
BRANCH  10  11
ATOM     11  C   UNL     1      -8.550   6.204   2.367  0.00  0.00    -0.046 A 
ATOM     12  C   UNL     1      -9.509   7.112   2.774  0.00  0.00    +0.004 A 
ATOM     13  C   UNL     1     -10.289   6.844   3.883  0.00  0.00    +0.000 A 
ATOM     14  C   UNL     1     -10.101   5.673   4.593  0.00  0.00    +0.000 A 
ATOM     15  C   UNL     1      -9.138   4.767   4.189  0.00  0.00    +0.000 A 
ATOM     16  C   UNL     1      -8.363   5.033   3.076  0.00  0.00    +0.004 A 
ENDBRANCH  10  11
ENDBRANCH   9  10
ENDBRANCH   8   9
ENDBRANCH   3   4
BRANCH   3  17
ATOM     17  C   UNL     1      -7.176   3.412  -2.959  0.00  0.00    -0.008 C 
BRANCH  17  19
ATOM     18  C   UNL     1      -7.366   1.115  -3.925  0.00  0.00    +0.004 C 
ATOM     19  C   UNL     1      -6.890   1.928  -2.719  0.00  0.00    -0.005 C 
ENDBRANCH  17  19
ENDBRANCH   3  17
ENDBRANCH   1   3
BRANCH   1  20
ATOM     20  C   UNL     1      -4.475   4.678  -2.893  0.00  0.00    -0.075 C 
BRANCH  20  21
ATOM     21  C   UNL     1      -3.060   4.116  -3.042  0.00  0.00    +0.009 C 
BRANCH  21  22
ATOM     22  C   UNL     1      -2.334   4.852  -4.170  0.00  0.00    +0.154 C 
BRANCH  22  23
ATOM     23  O   UNL     1      -1.012   4.326  -4.309  0.00  0.00    -0.395 OA
ATOM     24  H   UNL     1      -0.493   4.747  -5.008  0.00  0.00    +0.209 HD
ENDBRANCH  22  23
ENDBRANCH  21  22
ENDBRANCH  20  21
ENDBRANCH   1  20
BRANCH   1  25
ATOM     25  C   UNL     1      -4.591   4.526  -0.480  0.00  0.00    -0.037 C 
BRANCH  25  26
ATOM     26  C   UNL     1      -4.649   3.427   0.549  0.00  0.00    +0.001 A 
ATOM     27  C   UNL     1      -3.552   2.664   0.785  0.00  0.00    +0.017 A 
ATOM     28  C   UNL     1      -3.643   1.601   1.788  0.00  0.00    -0.001 A 
ATOM     29  C   UNL     1      -2.551   0.772   2.063  0.00  0.00    +0.013 A 
ATOM     30  C   UNL     1      -2.667  -0.212   3.004  0.00  0.00    -0.047 A 
ATOM     31  C   UNL     1      -3.861  -0.395   3.690  0.00  0.00    -0.046 A 
ATOM     32  C   UNL     1      -4.949   0.410   3.435  0.00  0.00    +0.030 A 
ATOM     33  C   UNL     1      -4.856   1.415   2.477  0.00  0.00    +0.049 A 
ATOM     34  N   UNL     1      -5.931   2.231   2.198  0.00  0.00    -0.322 N 
ATOM     35  H   UNL     1      -6.765   2.104   2.676  0.00  0.00    +0.169 HD
ATOM     36  C   UNL     1      -5.840   3.202   1.272  0.00  0.00    +0.251 A 
ATOM     37  O   UNL     1      -6.811   3.905   1.051  0.00  0.00    -0.268 OA
ATOM     38  C   UNL     1      -3.966  -1.487   4.723  0.00  0.00    +0.044 C 
ATOM     39  C   UNL     1      -1.491  -1.105   3.300  0.00  0.00    +0.044 C 
ENDBRANCH  25  26
ENDBRANCH   1  25
TORSDOF 13
