REMARK  Name = ZINC04916691
REMARK  7 active torsions:
REMARK  status: ('A' for Active; 'I' for Inactive)
REMARK    1  A    between atoms: C_1  and  C_2
REMARK    2  A    between atoms: C_5  and  C_8
REMARK    3  A    between atoms: N_9  and  O_10
REMARK    4  A    between atoms: O_10  and  C_11
REMARK    5  A    between atoms: C_11  and  C_13
REMARK    6  A    between atoms: C_13  and  C_14
REMARK    7  A    between atoms: C_17  and  C_20
REMARK                            x       y       z     vdW  Elec       q    Type
REMARK                         _______ _______ _______ _____ _____    ______ ____
ROOT
ATOM      1  C   UNL     1       0.105  -6.878   2.317  0.00  0.00    +0.340 C 
ATOM      2  O   UNL     1       0.101  -6.171   3.301  0.00  0.00    -0.248 OA
ENDROOT
BRANCH   1   3
ATOM      3  O   UNL     1       0.092  -6.326   1.095  0.00  0.00    -0.315 OA
BRANCH   3   5
ATOM      4  C   UNL     1       0.059  -4.253  -0.021  0.00  0.00    +0.163 C 
ATOM      5  N   UNL     1       0.073  -4.910   1.102  0.00  0.00    -0.059 NA
ATOM      6  N   UNL     1       0.062  -4.938  -1.223  0.00  0.00    -0.340 N 
ATOM      7  H   UNL     1       0.052  -4.448  -2.060  0.00  0.00    +0.144 HD
ATOM      8  H   UNL     1       0.075  -5.908  -1.228  0.00  0.00    +0.144 HD
BRANCH   4  13
ATOM      9  C   UNL     1      -0.018   1.503   0.010  0.00  0.00    +0.044 C 
ATOM     10  C   UNL     1       0.002  -0.004   0.002  0.00  0.00    -0.050 A 
ATOM     11  C   UNL     1       0.006  -0.686  -1.202  0.00  0.00    +0.004 A 
ATOM     12  C   UNL     1       0.024  -2.066  -1.216  0.00  0.00    +0.011 A 
ATOM     13  C   UNL     1       0.040  -2.773  -0.013  0.00  0.00    +0.018 A 
ATOM     14  C   UNL     1       0.036  -2.079   1.197  0.00  0.00    +0.011 A 
ATOM     15  C   UNL     1       0.023  -0.699   1.198  0.00  0.00    +0.004 A 
ENDBRANCH   4  13
ENDBRANCH   3   5
ENDBRANCH   1   3
BRANCH   1  16
ATOM     16  C   UNL     1       0.126  -8.377   2.466  0.00  0.00    +0.158 C 
BRANCH  16  17
ATOM     17  C   UNL     1       0.138  -8.736   3.929  0.00  0.00    -0.037 A 
ATOM     18  C   UNL     1       1.343  -8.879   4.594  0.00  0.00    +0.005 A 
ATOM     19  C   UNL     1       1.359  -9.208   5.934  0.00  0.00    +0.009 A 
ATOM     20  C   UNL     1       0.160  -9.396   6.618  0.00  0.00    -0.018 A 
ATOM     21  C   UNL     1      -1.050  -9.251   5.944  0.00  0.00    +0.009 A 
ATOM     22  C   UNL     1      -1.056  -8.916   4.605  0.00  0.00    +0.005 A 
BRANCH  20  23
ATOM     23  C   UNL     1       0.172  -9.750   8.059  0.00  0.00    -0.018 A 
ATOM     24  C   UNL     1       1.382  -9.889   8.735  0.00  0.00    +0.008 A 
ATOM     25  C   UNL     1       1.387 -10.218  10.075  0.00  0.00    +0.001 A 
ATOM     26  C   UNL     1       0.194 -10.410  10.748  0.00  0.00    +0.000 A 
ATOM     27  C   UNL     1      -1.011 -10.273  10.082  0.00  0.00    +0.001 A 
ATOM     28  C   UNL     1      -1.028  -9.938   8.743  0.00  0.00    +0.008 A 
ENDBRANCH  20  23
ENDBRANCH  16  17
ENDBRANCH   1  16
TORSDOF 6
