REMARK  Name = ZINC21039533
REMARK  8 active torsions:
REMARK  status: ('A' for Active; 'I' for Inactive)
REMARK    1  A    between atoms: C_1  and  O_2
REMARK    2  A    between atoms: O_2  and  C_3
REMARK    3  A    between atoms: C_6  and  C_9
REMARK    4  A    between atoms: N_10  and  N_11
REMARK    5  A    between atoms: C_14  and  S_18
REMARK    6  A    between atoms: S_18  and  C_19
REMARK    7  A    between atoms: C_19  and  C_20
REMARK    8  A    between atoms: N_22  and  C_23
REMARK                            x       y       z     vdW  Elec       q    Type
REMARK                         _______ _______ _______ _____ _____    ______ ____
ROOT
ATOM      1  C   UNL     1      -9.874  -8.512   0.061  0.00  0.00    +0.173 C 
ENDROOT
BRANCH   1   2
ATOM      2  C   UNL     1     -10.954  -9.562   0.055  0.00  0.00    +0.228 C 
ATOM      3  O   UNL     1     -10.657 -10.738   0.046  0.00  0.00    -0.275 OA
ATOM      4  N   UNL     1     -12.251  -9.195   0.060  0.00  0.00    -0.284 N 
ATOM      5  H   UNL     1     -12.490  -8.258   0.135  0.00  0.00    +0.155 HD
BRANCH   4   6
ATOM      6  C   UNL     1     -13.247 -10.160  -0.042  0.00  0.00    +0.045 A 
ATOM      7  C   UNL     1     -13.075 -11.412   0.549  0.00  0.00    +0.024 A 
ATOM      8  C   UNL     1     -14.061 -12.371   0.449  0.00  0.00    +0.003 A 
ATOM      9  C   UNL     1     -15.236 -12.108  -0.239  0.00  0.00    +0.012 A 
ATOM     10  C   UNL     1     -15.429 -10.868  -0.835  0.00  0.00    +0.035 A 
ATOM     11  C   UNL     1     -14.430  -9.880  -0.734  0.00  0.00    +0.054 A 
ATOM     12  C   UNL     1     -14.638  -8.562  -1.362  0.00  0.00    +0.196 C 
ATOM     13  O   UNL     1     -13.706  -7.795  -1.506  0.00  0.00    -0.287 OA
ATOM     14  C   UNL     1     -15.995  -8.183  -1.814  0.00  0.00    +0.033 A 
ATOM     15  C   UNL     1     -16.290  -6.864  -2.142  0.00  0.00    +0.012 A 
ATOM     16  C   UNL     1     -17.565  -6.528  -2.564  0.00  0.00    +0.001 A 
ATOM     17  C   UNL     1     -18.549  -7.495  -2.661  0.00  0.00    +0.001 A 
ATOM     18  C   UNL     1     -18.272  -8.812  -2.338  0.00  0.00    +0.012 A 
ATOM     19  C   UNL     1     -16.996  -9.167  -1.913  0.00  0.00    +0.033 A 
ATOM     20  C   UNL     1     -16.677 -10.573  -1.572  0.00  0.00    +0.195 C 
ATOM     21  O   UNL     1     -17.436 -11.471  -1.880  0.00  0.00    -0.287 OA
ENDBRANCH   4   6
ENDBRANCH   1   2
BRANCH   1  22
ATOM     22  S   UNL     1      -8.248  -9.317   0.052  0.00  0.00    -0.077 S 
BRANCH  22  26
ATOM     23  N   UNL     1      -6.246  -4.566   0.084  0.00  0.00    -0.204 N 
ATOM     24  C   UNL     1      -6.300  -5.960   0.074  0.00  0.00    +0.255 A 
ATOM     25  N   UNL     1      -7.418  -6.694   0.070  0.00  0.00    -0.187 NA
ATOM     26  C   UNL     1      -7.108  -7.973   0.060  0.00  0.00    +0.186 A 
ATOM     27  N   UNL     1      -5.761  -8.075   0.057  0.00  0.00    -0.252 N 
ATOM     28  H   UNL     1      -5.241  -8.894   0.050  0.00  0.00    +0.191 HD
ATOM     29  N   UNL     1      -5.263  -6.763   0.060  0.00  0.00    -0.134 NA
ATOM     30  H   UNL     1      -7.067  -4.049   0.094  0.00  0.00    +0.177 HD
BRANCH  23  32
ATOM     31  C   UNL     1      -4.956  -2.616   0.091  0.00  0.00    +0.138 C 
ATOM     32  N   UNL     1      -5.007  -3.913   0.081  0.00  0.00    -0.188 NA
BRANCH  31  36
ATOM     33  C   UNL     1      -1.200  -0.637   0.083  0.00  0.00    +0.120 A 
ATOM     34  C   UNL     1      -2.374   0.105   0.095  0.00  0.00    +0.046 A 
ATOM     35  C   UNL     1      -3.595  -0.533   0.098  0.00  0.00    +0.013 A 
ATOM     36  C   UNL     1      -3.652  -1.929   0.088  0.00  0.00    -0.005 A 
ATOM     37  C   UNL     1      -2.468  -2.672   0.075  0.00  0.00    +0.013 A 
ATOM     38  C   UNL     1      -1.251  -2.025   0.067  0.00  0.00    +0.046 A 
BRANCH  33  40
ATOM     39  C   UNL     1      -0.017   1.425   0.098  0.00  0.00    +0.277 C 
ATOM     40  O   UNL     1       0.002  -0.004   0.081  0.00  0.00    -0.495 OA
ENDBRANCH  33  40
ENDBRANCH  31  36
ENDBRANCH  23  32
ENDBRANCH  22  26
ENDBRANCH   1  22
TORSDOF 7
