REMARK  Name = ZINC00862711
REMARK  2 active torsions:
REMARK  status: ('A' for Active; 'I' for Inactive)
REMARK    1  A    between atoms: C_7  and  N_11
REMARK    2  A    between atoms: C_8  and  C_9
REMARK                            x       y       z     vdW  Elec       q    Type
REMARK                         _______ _______ _______ _____ _____    ______ ____
ROOT
ATOM      1  C   UNL     1      -0.079   1.440  -0.021  0.00  0.00    +0.001 C 
ATOM      2  C   UNL     1       1.313   2.050  -0.162  0.00  0.00    +0.005 C 
ATOM      3  C   UNL     1       1.991   1.541  -1.431  0.00  0.00    +0.037 C 
ATOM      4  C   UNL     1       2.764   0.266  -1.125  0.00  0.00    -0.018 A 
ATOM      5  C   UNL     1       2.430  -0.572  -0.119  0.00  0.00    -0.004 A 
ATOM      6  S   UNL     1       3.617  -1.883  -0.212  0.00  0.00    -0.076 S 
ATOM      7  C   UNL     1       4.532  -1.349  -1.513  0.00  0.00    +0.099 A 
ATOM      8  C   UNL     1       3.926  -0.164  -1.888  0.00  0.00    +0.084 A 
ATOM      9  C   UNL     1       1.315  -0.416   0.867  0.00  0.00    +0.043 C 
ATOM     10  C   UNL     1       0.021  -0.076   0.115  0.00  0.00    +0.005 C 
ENDROOT
BRANCH   7  11
ATOM     11  N   UNL     1       5.646  -1.958  -2.084  0.00  0.00    -0.202 N 
ATOM     12  C   UNL     1       5.567  -2.823  -3.129  0.00  0.00    +0.231 C 
ATOM     13  O   UNL     1       4.565  -3.343  -3.569  0.00  0.00    -0.274 OA
ATOM     14  C   UNL     1       6.968  -3.003  -3.630  0.00  0.00    +0.092 C 
ATOM     15  C   UNL     1       7.368  -4.360  -4.170  0.00  0.00    +0.042 C 
ATOM     16  C   UNL     1       8.879  -4.367  -4.268  0.00  0.00    -0.011 C 
ATOM     17  C   UNL     1       9.659  -3.536  -3.641  0.00  0.00    +0.015 C 
ATOM     18  C   UNL     1       9.173  -2.453  -2.701  0.00  0.00    +0.060 C 
ATOM     19  C   UNL     1       7.761  -2.798  -2.303  0.00  0.00    +0.093 C 
ATOM     20  C   UNL     1       6.916  -1.743  -1.654  0.00  0.00    +0.231 C 
ATOM     21  O   UNL     1       7.289  -0.874  -0.896  0.00  0.00    -0.274 OA
ATOM     22 CL   UNL     1      11.369  -3.677  -3.900  0.00  0.00    -0.089 Cl
ENDBRANCH   7  11
BRANCH   8  23
ATOM     23  C   UNL     1       4.424   0.611  -2.984  0.00  0.00    +0.102 C 
ATOM     24  N   UNL     1       4.819   1.226  -3.854  0.00  0.00    -0.191 NA
ENDBRANCH   8  23
TORSDOF 2
