REMARK  Name = ZINC04279745
REMARK  6 active torsions:
REMARK  status: ('A' for Active; 'I' for Inactive)
REMARK    1  A    between atoms: C_3  and  C_6
REMARK    2  A    between atoms: C_6  and  C_8
REMARK    3  A    between atoms: C_10  and  C_22
REMARK    4  A    between atoms: C_16  and  C_17
REMARK    5  A    between atoms: C_16  and  O_21
REMARK    6  A    between atoms: C_25  and  O_28
REMARK                            x       y       z     vdW  Elec       q    Type
REMARK                         _______ _______ _______ _____ _____    ______ ____
ROOT
ATOM      1  C   UNL     1       6.155   2.271   0.337  0.00  0.00    +0.145 C 
ATOM      2  C   UNL     1       5.103   3.323  -0.029  0.00  0.00    +0.120 C 
ATOM      3  N   UNL     1       5.147   4.409   0.952  0.00  0.00    -0.292 N 
ATOM      4  C   UNL     1       5.532   4.190   2.218  0.00  0.00    +0.302 C 
ATOM      5  O   UNL     1       5.542   5.124   2.996  0.00  0.00    -0.253 OA
ATOM      6  N   UNL     1       5.907   2.980   2.661  0.00  0.00    -0.264 N 
ATOM      7  C   UNL     1       5.905   1.812   1.778  0.00  0.00    +0.243 C 
ATOM      8  H   UNL     1       4.894   5.305   0.681  0.00  0.00    +0.151 HD
ATOM      9  H   UNL     1       6.184   2.877   3.585  0.00  0.00    +0.153 HD
ENDROOT
BRANCH   2  10
ATOM     10  C   UNL     1       3.735   2.692  -0.019  0.00  0.00    -0.026 A 
ATOM     11  C   UNL     1       2.923   2.820   1.093  0.00  0.00    +0.009 A 
ATOM     12  C   UNL     1       1.668   2.242   1.104  0.00  0.00    +0.046 A 
ATOM     13  C   UNL     1       1.223   1.532  -0.001  0.00  0.00    +0.117 A 
ATOM     14  C   UNL     1       2.041   1.400  -1.114  0.00  0.00    +0.046 A 
ATOM     15  C   UNL     1       3.293   1.986  -1.123  0.00  0.00    +0.009 A 
BRANCH  13  16
ATOM     16  O   UNL     1      -0.011   0.963   0.007  0.00  0.00    -0.507 OA
ATOM     17  H   UNL     1      -0.712   1.539  -0.327  0.00  0.00    +0.292 HD
ENDBRANCH  13  16
ENDBRANCH   2  10
BRANCH   7  18
ATOM     18  C   UNL     1       7.012   0.846   2.206  0.00  0.00    +0.436 C 
ATOM     19  F   UNL     1       6.787   0.434   3.524  0.00  0.00    -0.166 F 
ATOM     20  F   UNL     1       7.009  -0.269   1.361  0.00  0.00    -0.166 F 
ATOM     21  F   UNL     1       8.251   1.490   2.124  0.00  0.00    -0.166 F 
ENDBRANCH   7  18
BRANCH   1  22
ATOM     22  C   UNL     1       7.532   2.874   0.229  0.00  0.00    +0.179 C 
ATOM     23  O   UNL     1       7.694   4.060   0.435  0.00  0.00    -0.291 OA
BRANCH  22  26
ATOM     24  C   UNL     1      10.845   1.412  -0.601  0.00  0.00    +0.008 A 
ATOM     25  C   UNL     1       9.971   2.413  -0.267  0.00  0.00    +0.019 A 
ATOM     26  C   UNL     1       8.635   2.060  -0.111  0.00  0.00    +0.055 A 
ATOM     27  S   UNL     1       8.676   0.311  -0.461  0.00  0.00    -0.094 S 
ATOM     28  C   UNL     1      10.373   0.147  -0.772  0.00  0.00    +0.046 A 
ENDBRANCH  22  26
ENDBRANCH   1  22
BRANCH   7  29
ATOM     29  O   UNL     1       4.639   1.155   1.857  0.00  0.00    -0.364 OA
ATOM     30  H   UNL     1       4.413   0.842   2.744  0.00  0.00    +0.212 HD
ENDBRANCH   7  29
TORSDOF 6
