REMARK  Name = ZINC33614709
REMARK  9 active torsions:
REMARK  status: ('A' for Active; 'I' for Inactive)
REMARK    1  A    between atoms: C_1  and  C_2
REMARK    2  A    between atoms: C_4  and  O_12
REMARK    3  A    between atoms: C_5  and  C_9
REMARK    4  A    between atoms: C_9  and  C_10
REMARK    5  A    between atoms: C_9  and  C_11
REMARK    6  A    between atoms: O_12  and  C_13
REMARK    7  A    between atoms: C_13  and  C_14
REMARK    8  A    between atoms: N_16  and  N_17
REMARK    9  A    between atoms: C_18  and  C_19
REMARK                            x       y       z     vdW  Elec       q    Type
REMARK                         _______ _______ _______ _____ _____    ______ ____
ROOT
ATOM      1  C   UNL     1       6.043  -1.927  -0.366  0.00  0.00    +0.326 C 
ENDROOT
BRANCH   1   2
ATOM      2  C   UNL     1       4.751  -2.702  -0.359  0.00  0.00    +0.270 C 
ATOM      3  O   UNL     1       4.760  -3.900  -0.548  0.00  0.00    -0.270 OA
ATOM      4  N   UNL     1       3.584  -2.063  -0.141  0.00  0.00    -0.204 N 
ATOM      5  H   UNL     1       3.575  -0.976   0.030  0.00  0.00    +0.177 HD
BRANCH   4   6
ATOM      6  N   UNL     1       2.382  -2.783  -0.134  0.00  0.00    -0.188 NA
ATOM      7  C   UNL     1       1.250  -2.154  -0.051  0.00  0.00    +0.138 C 
BRANCH   7   8
ATOM      8  C   UNL     1       1.145  -0.759  -0.519  0.00  0.00    -0.003 A 
ATOM      9  C   UNL     1       2.149  -0.211  -1.321  0.00  0.00    +0.009 A 
ATOM     10  C   UNL     1       2.045   1.094  -1.756  0.00  0.00    +0.003 A 
ATOM     11  C   UNL     1       0.950   1.861  -1.400  0.00  0.00    +0.038 A 
ATOM     12  C   UNL     1      -0.050   1.325  -0.605  0.00  0.00    +0.124 A 
ATOM     13  C   UNL     1       0.042   0.019  -0.162  0.00  0.00    +0.047 A 
ATOM     14  F   UNL     1      -1.119   2.078  -0.266  0.00  0.00    -0.205 F 
ENDBRANCH   7   8
ENDBRANCH   4   6
ENDBRANCH   1   2
BRANCH   1  15
ATOM     15  O   UNL     1       7.132  -2.819  -0.616  0.00  0.00    -0.482 OA
BRANCH  15  19
ATOM     16  C   UNL     1      10.002   1.114  -0.285  0.00  0.00    +0.045 C 
ATOM     17  C   UNL     1       9.816  -0.366  -0.499  0.00  0.00    -0.029 A 
ATOM     18  C   UNL     1       8.549  -0.915  -0.458  0.00  0.00    +0.050 A 
ATOM     19  C   UNL     1       8.377  -2.277  -0.655  0.00  0.00    +0.125 A 
ATOM     20  C   UNL     1       9.480  -3.087  -0.887  0.00  0.00    -0.002 A 
ATOM     21  C   UNL     1      10.745  -2.534  -0.931  0.00  0.00    +0.027 A 
ATOM     22  C   UNL     1      10.914  -1.174  -0.735  0.00  0.00    +0.044 A 
ATOM     23 CL   UNL     1      12.505  -0.482  -0.784  0.00  0.00    -0.083 Cl
BRANCH  20  24
ATOM     24  C   UNL     1       9.298  -4.568  -1.095  0.00  0.00    +0.016 C 
ATOM     25  C   UNL     1       9.828  -4.958  -2.476  0.00  0.00    +0.012 C 
ATOM     26  C   UNL     1      10.069  -5.333  -0.018  0.00  0.00    +0.012 C 
ENDBRANCH  20  24
ENDBRANCH  15  19
ENDBRANCH   1  15
TORSDOF 6
