REMARK  Name = ZINC26474655
REMARK  9 active torsions:
REMARK  status: ('A' for Active; 'I' for Inactive)
REMARK    1  A    between atoms: C_1  and  C_2
REMARK    2  A    between atoms: C_2  and  C_4
REMARK    3  A    between atoms: C_2  and  N_11
REMARK    4  A    between atoms: N_6  and  C_7
REMARK    5  A    between atoms: C_7  and  C_8
REMARK    6  A    between atoms: C_7  and  C_9
REMARK    7  A    between atoms: C_7  and  C_10
REMARK    8  A    between atoms: N_14  and  S_17
REMARK    9  A    between atoms: S_17  and  C_20
REMARK                            x       y       z     vdW  Elec       q    Type
REMARK                         _______ _______ _______ _____ _____    ______ ____
ROOT
ATOM      1  N   UNL     1       1.915   4.123   4.574  0.00  0.00    +0.389 N 
ATOM      2  C   UNL     1       3.244   3.510   4.453  0.00  0.00    -0.060 C 
ATOM      3  C   UNL     1       4.045   4.242   3.371  0.00  0.00    +0.091 C 
ATOM      4  N   UNL     1       3.252   4.258   2.133  0.00  0.00    -0.180 NA
ATOM      5  C   UNL     1       1.863   4.737   2.201  0.00  0.00    +0.091 C 
ATOM      6  C   UNL     1       1.147   3.979   3.330  0.00  0.00    -0.060 C 
ATOM      7  H   UNL     1       2.058   5.198   4.757  0.00  0.00    -0.081 HD
ENDROOT
BRANCH   4   8
ATOM      8  S   UNL     1       3.907   3.754   0.698  0.00  0.00    +0.061 S 
ATOM      9  O   UNL     1       5.315   3.903   0.820  0.00  0.00    -0.153 OA
ATOM     10  O   UNL     1       3.161   4.386  -0.333  0.00  0.00    -0.153 OA
BRANCH   8  11
ATOM     11  C   UNL     1       3.594   2.026   0.560  0.00  0.00    +0.106 A 
ATOM     12  C   UNL     1       4.505   1.113   1.059  0.00  0.00    +0.029 A 
ATOM     13  C   UNL     1       4.254  -0.238   0.945  0.00  0.00    +0.006 A 
ATOM     14  C   UNL     1       3.092  -0.691   0.331  0.00  0.00    -0.044 A 
ATOM     15  C   UNL     1       2.183   0.217  -0.162  0.00  0.00    -0.042 A 
ATOM     16  C   UNL     1       2.438   1.578  -0.047  0.00  0.00    +0.032 A 
ATOM     17  C   UNL     1       0.900  -0.201  -0.830  0.00  0.00    +0.035 C 
ATOM     18  C   UNL     1       0.970  -1.665  -1.259  0.00  0.00    +0.005 C 
ATOM     19  C   UNL     1       1.421  -2.501  -0.055  0.00  0.00    +0.005 C 
ATOM     20  C   UNL     1       2.886  -2.180   0.233  0.00  0.00    +0.035 C 
ENDBRANCH   8  11
ENDBRANCH   4   8
BRANCH   1  22
ATOM     21  C   UNL     1      -0.249   4.113   5.720  0.00  0.00    -0.004 C 
ATOM     22  C   UNL     1       1.179   3.563   5.715  0.00  0.00    +0.016 C 
BRANCH  22  23
ATOM     23  C   UNL     1       1.139   2.061   5.600  0.00  0.00    +0.200 C 
ATOM     24  O   UNL     1       1.186   1.536   4.508  0.00  0.00    -0.278 OA
ATOM     25  N   UNL     1       1.050   1.302   6.710  0.00  0.00    -0.312 N 
ATOM     26  H   UNL     1       1.007   1.779   7.700  0.00  0.00    +0.149 HD
BRANCH  25  27
ATOM     27  C   UNL     1       1.012  -0.158   6.597  0.00  0.00    +0.026 C 
ATOM     28  C   UNL     1       2.288  -0.651   5.913  0.00  0.00    +0.031 C 
ATOM     29  C   UNL     1       0.911  -0.775   7.994  0.00  0.00    +0.031 C 
ATOM     30  C   UNL     1      -0.205  -0.574   5.767  0.00  0.00    +0.031 C 
ENDBRANCH  25  27
ENDBRANCH  22  23
ENDBRANCH   1  22
TORSDOF 5
