REMARK  Name = ZINC02439328
REMARK  7 active torsions:
REMARK  status: ('A' for Active; 'I' for Inactive)
REMARK    1  A    between atoms: C_1  and  O_2
REMARK    2  A    between atoms: O_2  and  C_3
REMARK    3  A    between atoms: C_7  and  C_9
REMARK    4  A    between atoms: N_10  and  N_11
REMARK    5  A    between atoms: C_12  and  N_34
REMARK    6  A    between atoms: C_13  and  S_24
REMARK    7  A    between atoms: S_24  and  C_27
REMARK                            x       y       z     vdW  Elec       q    Type
REMARK                         _______ _______ _______ _____ _____    ______ ____
ROOT
ATOM      1  N   UNL     1      -1.233   7.354   0.052  0.00  0.00    -0.197 N 
ATOM      2  C   UNL     1      -1.241   8.146   1.176  0.00  0.00    +0.148 A 
ATOM      3  C   UNL     1      -1.262   9.457   0.837  0.00  0.00    +0.162 A 
ATOM      4  C   UNL     1      -1.277   9.545  -0.577  0.00  0.00    +0.137 A 
ATOM      5  C   UNL     1      -1.258   8.161  -1.068  0.00  0.00    +0.184 A 
ATOM      6  N   UNL     1      -1.266   7.929  -2.361  0.00  0.00    -0.224 NA
ATOM      7  C   UNL     1      -1.294   8.955  -3.222  0.00  0.00    +0.092 A 
ATOM      8  C   UNL     1      -1.303   8.716  -4.609  0.00  0.00    +0.030 A 
ATOM      9  C   UNL     1      -1.331   9.763  -5.477  0.00  0.00    +0.002 A 
ATOM     10  C   UNL     1      -1.348  11.078  -5.014  0.00  0.00    +0.002 A 
ATOM     11  C   UNL     1      -1.339  11.349  -3.681  0.00  0.00    +0.030 A 
ATOM     12  C   UNL     1      -1.312  10.292  -2.751  0.00  0.00    +0.090 A 
ATOM     13  N   UNL     1      -1.303  10.549  -1.438  0.00  0.00    -0.240 NA
ENDROOT
BRANCH   3  14
ATOM     14  S   UNL     1      -1.274  10.815   1.958  0.00  0.00    +0.030 S 
ATOM     15  O   UNL     1      -0.703  10.345   3.172  0.00  0.00    -0.164 OA
ATOM     16  O   UNL     1      -0.749  11.931   1.251  0.00  0.00    -0.164 OA
BRANCH  14  17
ATOM     17  C   UNL     1      -2.961  11.188   2.306  0.00  0.00    +0.094 A 
ATOM     18  C   UNL     1      -3.642  12.101   1.523  0.00  0.00    +0.029 A 
ATOM     19  C   UNL     1      -4.967  12.390   1.792  0.00  0.00    +0.022 A 
ATOM     20  C   UNL     1      -5.607  11.774   2.853  0.00  0.00    +0.041 A 
ATOM     21  C   UNL     1      -4.923  10.865   3.640  0.00  0.00    +0.022 A 
ATOM     22  C   UNL     1      -3.600  10.573   3.366  0.00  0.00    +0.029 A 
ATOM     23 CL   UNL     1      -7.269  12.141   3.195  0.00  0.00    -0.084 Cl
ENDBRANCH  14  17
ENDBRANCH   3  14
BRANCH   2  24
ATOM     24  N   UNL     1      -1.226   7.670   2.475  0.00  0.00    -0.341 N 
ATOM     25  H   UNL     1      -1.209   6.714   2.641  0.00  0.00    +0.144 HD
ATOM     26  H   UNL     1      -1.233   8.291   3.220  0.00  0.00    +0.144 HD
ENDBRANCH   2  24
BRANCH   1  28
ATOM     27  C   UNL     1      -0.076   5.323   0.031  0.00  0.00    +0.141 C 
ATOM     28  N   UNL     1      -1.210   5.953   0.045  0.00  0.00    -0.171 NA
BRANCH  27  33
ATOM     29  C   UNL     1       1.182   1.784   0.000  0.00  0.00    +0.121 A 
ATOM     30  C   UNL     1      -0.013   1.076   0.008  0.00  0.00    +0.045 A 
ATOM     31  C   UNL     1      -1.221   1.748   0.017  0.00  0.00    +0.004 A 
ATOM     32  C   UNL     1      -1.248   3.127   0.031  0.00  0.00    +0.010 A 
ATOM     33  C   UNL     1      -0.051   3.849   0.023  0.00  0.00    -0.002 A 
ATOM     34  C   UNL     1       1.168   3.168   0.008  0.00  0.00    +0.055 A 
BRANCH  29  36
ATOM     35  C   UNL     1       2.307  -0.311  -0.022  0.00  0.00    +0.277 C 
ATOM     36  O   UNL     1       2.366   1.117  -0.015  0.00  0.00    -0.495 OA
ENDBRANCH  29  36
ENDBRANCH  27  33
ENDBRANCH   1  28
TORSDOF 6
