REMARK  Name = ZINC54805733
REMARK  10 active torsions:
REMARK  status: ('A' for Active; 'I' for Inactive)
REMARK    1  A    between atoms: C_1  and  C_2
REMARK    2  A    between atoms: N_7  and  C_9
REMARK    3  A    between atoms: C_9  and  C_10
REMARK    4  A    between atoms: C_9  and  C_11
REMARK    5  A    between atoms: C_9  and  C_12
REMARK    6  A    between atoms: C_12  and  N_13
REMARK    7  A    between atoms: N_16  and  C_17
REMARK    8  A    between atoms: N_16  and  C_18
REMARK    9  A    between atoms: C_18  and  C_19
REMARK   10  A    between atoms: C_22  and  C_25
REMARK                            x       y       z     vdW  Elec       q    Type
REMARK                         _______ _______ _______ _____ _____    ______ ____
ROOT
ATOM      1  N   UNL     1       2.186  -4.461   1.142  0.00  0.00    -0.301 N 
ATOM      2  C   UNL     1       2.321  -5.782   0.914  0.00  0.00    +0.302 C 
ATOM      3  O   UNL     1       1.924  -6.584   1.738  0.00  0.00    -0.253 OA
ATOM      4  N   UNL     1       2.894  -6.215  -0.226  0.00  0.00    -0.284 N 
ATOM      5  C   UNL     1       3.372  -5.248  -1.218  0.00  0.00    +0.134 C 
ATOM      6  H   UNL     1       2.502  -3.821   0.485  0.00  0.00    +0.150 HD
ENDROOT
BRANCH   1   7
ATOM      7  C   UNL     1       1.562  -3.991   2.382  0.00  0.00    +0.093 C 
BRANCH   7   8
ATOM      8  C   UNL     1       1.534  -2.461   2.390  0.00  0.00    -0.055 C 
ATOM      9  C   UNL     1       2.963  -1.924   2.303  0.00  0.00    -0.008 C 
ATOM     10  C   UNL     1       0.882  -1.970   3.685  0.00  0.00    -0.008 C 
BRANCH   8  16
ATOM     11  C   UNL     1      -0.019   1.526   0.010  0.00  0.00    +0.005 C 
ATOM     12  C   UNL     1       0.002  -0.004   0.002  0.00  0.00    -0.031 C 
ATOM     13  C   UNL     1      -1.434  -0.535   0.015  0.00  0.00    -0.001 C 
ATOM     14  C   UNL     1      -1.402  -2.064   0.086  0.00  0.00    -0.018 C 
ATOM     15  C   UNL     1      -0.613  -2.496   1.324  0.00  0.00    -0.078 C 
ATOM     16  N   UNL     1       0.758  -1.980   1.239  0.00  0.00    +0.384 N 
ATOM     17  C   UNL     1       0.740  -0.512   1.242  0.00  0.00    -0.075 C 
ATOM     18  H   UNL     1       1.188  -2.307   0.386  0.00  0.00    -0.081 HD
ENDBRANCH   8  16
ENDBRANCH   7   8
ENDBRANCH   1   7
BRANCH   4  19
ATOM     19  C   UNL     1       3.041  -7.651  -0.473  0.00  0.00    +0.144 C 
BRANCH  19  20
ATOM     20  C   UNL     1       1.819  -8.164  -1.191  0.00  0.00    -0.030 A 
ATOM     21  C   UNL     1       0.737  -8.628  -0.463  0.00  0.00    +0.006 A 
ATOM     22  C   UNL     1      -0.385  -9.099  -1.113  0.00  0.00    +0.019 A 
ATOM     23  C   UNL     1      -0.427  -9.107  -2.509  0.00  0.00    +0.052 A 
ATOM     24  C   UNL     1       0.667  -8.636  -3.237  0.00  0.00    +0.019 A 
ATOM     25  C   UNL     1       1.781  -8.164  -2.574  0.00  0.00    +0.006 A 
BRANCH  23  26
ATOM     26  C   UNL     1      -1.589  -9.595  -3.190  0.00  0.00    +0.099 C 
ATOM     27  N   UNL     1      -2.510  -9.982  -3.731  0.00  0.00    -0.191 NA
ENDBRANCH  23  26
ENDBRANCH  19  20
ENDBRANCH   4  19
TORSDOF 6
