REMARK  Name = ZINC13220570
REMARK  13 active torsions:
REMARK  status: ('A' for Active; 'I' for Inactive)
REMARK    1  A    between atoms: C_1  and  C_2
REMARK    2  A    between atoms: C_2  and  N_3
REMARK    3  A    between atoms: C_7  and  C_31
REMARK    4  A    between atoms: C_11  and  C_12
REMARK    5  A    between atoms: C_12  and  S_13
REMARK    6  A    between atoms: S_13  and  C_14
REMARK    7  A    between atoms: C_17  and  C_20
REMARK    8  A    between atoms: N_18  and  N_19
REMARK    9  A    between atoms: C_20  and  O_21
REMARK   10  A    between atoms: O_21  and  C_22
REMARK   11  A    between atoms: C_25  and  C_28
REMARK   12  A    between atoms: C_28  and  C_29
REMARK   13  A    between atoms: C_28  and  C_30
REMARK                            x       y       z     vdW  Elec       q    Type
REMARK                         _______ _______ _______ _____ _____    ______ ____
ROOT
ATOM      1  C   UNL     1      -0.282   1.804  -2.288  0.00  0.00    +0.209 A 
ATOM      2  N   UNL     1      -1.313   2.232  -2.980  0.00  0.00    -0.121 NA
ATOM      3  N   UNL     1      -2.369   2.211  -2.248  0.00  0.00    -0.128 NA
ATOM      4  C   UNL     1      -2.079   1.768  -1.057  0.00  0.00    +0.189 A 
ATOM      5  N   UNL     1      -0.741   1.490  -1.041  0.00  0.00    -0.225 N 
ENDROOT
BRANCH   5   6
ATOM      6  N   UNL     1      -0.012   1.005   0.008  0.00  0.00    -0.295 N 
ATOM      7  H   UNL     1       0.002  -0.004   0.002  0.00  0.00    +0.163 HD
ATOM      8  H   UNL     1       0.925   1.379   0.001  0.00  0.00    +0.163 HD
ENDBRANCH   5   6
BRANCH   1   9
ATOM      9  S   UNL     1       1.377   1.661  -2.862  0.00  0.00    -0.077 S 
BRANCH   9  10
ATOM     10  C   UNL     1       1.175   2.253  -4.560  0.00  0.00    +0.151 C 
BRANCH  10  19
ATOM     11  N   UNL     1       2.987   1.156  -5.970  0.00  0.00    -0.327 N 
ATOM     12  C   UNL     1       4.225   1.513  -6.459  0.00  0.00    +0.069 A 
ATOM     13  C   UNL     1       5.179   0.862  -7.234  0.00  0.00    +0.029 A 
ATOM     14  C   UNL     1       6.341   1.496  -7.566  0.00  0.00    +0.017 A 
ATOM     15  C   UNL     1       6.584   2.807  -7.131  0.00  0.00    +0.065 A 
ATOM     16  C   UNL     1       5.640   3.474  -6.355  0.00  0.00    +0.045 A 
ATOM     17  C   UNL     1       4.453   2.828  -6.014  0.00  0.00    +0.090 A 
ATOM     18  N   UNL     1       3.360   3.198  -5.296  0.00  0.00    -0.231 NA
ATOM     19  C   UNL     1       2.506   2.217  -5.266  0.00  0.00    +0.121 A 
BRANCH  15  20
ATOM     20  C   UNL     1       7.844   3.481  -7.497  0.00  0.00    +0.387 C 
ATOM     21  O   UNL     1       8.057   4.617  -7.121  0.00  0.00    -0.241 OA
ATOM     22  O   UNL     1       8.759   2.838  -8.248  0.00  0.00    -0.241 OA
ENDBRANCH  15  20
BRANCH  11  24
ATOM     23  C   UNL     1       1.457  -0.064  -7.437  0.00  0.00    +0.027 C 
ATOM     24  C   UNL     1       2.313  -0.129  -6.170  0.00  0.00    +0.120 C 
ENDBRANCH  11  24
ENDBRANCH  10  19
ENDBRANCH   9  10
ENDBRANCH   1   9
BRANCH   4  25
ATOM     25  C   UNL     1      -3.042   1.594   0.090  0.00  0.00    +0.306 C 
BRANCH  25  26
ATOM     26  O   UNL     1      -3.090   2.798   0.858  0.00  0.00    -0.484 OA
BRANCH  26  27
ATOM     27  C   UNL     1      -3.916   2.809   1.937  0.00  0.00    +0.121 A 
ATOM     28  C   UNL     1      -4.670   1.686   2.246  0.00  0.00    +0.046 A 
ATOM     29  C   UNL     1      -5.504   1.697   3.347  0.00  0.00    +0.007 A 
ATOM     30  C   UNL     1      -5.598   2.831   4.133  0.00  0.00    -0.045 A 
ATOM     31  C   UNL     1      -4.852   3.953   3.824  0.00  0.00    +0.007 A 
ATOM     32  C   UNL     1      -4.011   3.945   2.728  0.00  0.00    +0.046 A 
BRANCH  30  33
ATOM     33  C   UNL     1      -6.514   2.842   5.330  0.00  0.00    +0.013 C 
ATOM     34  C   UNL     1      -7.952   2.589   4.873  0.00  0.00    +0.012 C 
ATOM     35  C   UNL     1      -6.089   1.746   6.309  0.00  0.00    +0.012 C 
ENDBRANCH  30  33
ENDBRANCH  26  27
ENDBRANCH  25  26
ENDBRANCH   4  25
TORSDOF 10
