REMARK  Name = ZINC11753749
REMARK  14 active torsions:
REMARK  status: ('A' for Active; 'I' for Inactive)
REMARK    1  A    between atoms: C_1  and  N_54
REMARK    2  A    between atoms: C_2  and  N_54
REMARK    3  A    between atoms: C_3  and  C_4
REMARK    4  A    between atoms: C_3  and  N_54
REMARK    5  A    between atoms: C_4  and  C_6
REMARK    6  A    between atoms: C_4  and  O_27
REMARK    7  A    between atoms: C_6  and  O_7
REMARK    8  A    between atoms: O_7  and  C_8
REMARK    9  A    between atoms: C_11  and  C_14
REMARK   10  A    between atoms: C_14  and  N_56
REMARK   11  A    between atoms: C_15  and  N_56
REMARK   12  A    between atoms: C_16  and  C_17
REMARK   13  A    between atoms: C_16  and  N_56
REMARK   14  A    between atoms: C_22  and  C_23
REMARK                            x       y       z     vdW  Elec       q    Type
REMARK                         _______ _______ _______ _____ _____    ______ ____
ROOT
ATOM      1  C   UNL     1      -4.738   3.516  -4.997  0.00  0.00    +0.121 A 
ATOM      2  C   UNL     1      -5.571   2.470  -4.628  0.00  0.00    +0.046 A 
ATOM      3  C   UNL     1      -5.462   1.912  -3.369  0.00  0.00    +0.005 A 
ATOM      4  C   UNL     1      -4.524   2.396  -2.476  0.00  0.00    -0.064 A 
ATOM      5  C   UNL     1      -3.697   3.443  -2.839  0.00  0.00    +0.005 A 
ATOM      6  C   UNL     1      -3.797   4.000  -4.099  0.00  0.00    +0.046 A 
ENDROOT
BRANCH   1   7
ATOM      7  O   UNL     1      -4.842   4.066  -6.235  0.00  0.00    -0.489 OA
BRANCH   7   8
ATOM      8  C   UNL     1      -3.952   5.140  -6.545  0.00  0.00    +0.258 C 
BRANCH   8   9
ATOM      9  C   UNL     1      -4.217   5.626  -7.972  0.00  0.00    +0.135 C 
BRANCH   9  10
ATOM     10  O   UNL     1      -5.529   6.188  -8.048  0.00  0.00    -0.390 OA
ATOM     11  H   UNL     1      -5.668   6.942  -7.459  0.00  0.00    +0.210 HD
ENDBRANCH   9  10
BRANCH   9  12
ATOM     12  C   UNL     1      -3.184   6.690  -8.348  0.00  0.00    -0.045 C 
BRANCH  12  15
ATOM     13  C   UNL     1      -2.708   8.387 -10.009  0.00  0.00    -0.096 C 
ATOM     14  C   UNL     1      -3.025   6.084 -10.687  0.00  0.00    -0.096 C 
ATOM     15  N   UNL     1      -3.443   7.134  -9.734  0.00  0.00    +0.378 N 
ATOM     16  H   UNL     1      -4.449   7.305  -9.847  0.00  0.00    -0.083 HD
ENDBRANCH  12  15
ENDBRANCH   9  12
ENDBRANCH   8   9
ENDBRANCH   7   8
ENDBRANCH   1   7
BRANCH   4  17
ATOM     17  C   UNL     1      -4.408   1.786  -1.103  0.00  0.00    -0.043 C 
BRANCH  17  19
ATOM     18  C   UNL     1      -3.938  -0.425  -1.971  0.00  0.00    -0.095 C 
ATOM     19  N   UNL     1      -3.418   0.690  -1.151  0.00  0.00    +0.383 N 
ATOM     20  H   UNL     1      -2.552   1.041  -1.576  0.00  0.00    -0.081 HD
BRANCH  19  21
ATOM     21  C   UNL     1      -3.123   0.215   0.218  0.00  0.00    -0.042 C 
BRANCH  21  22
ATOM     22  C   UNL     1      -1.960  -0.741   0.161  0.00  0.00    -0.052 A 
ATOM     23  C   UNL     1      -2.183  -2.105   0.208  0.00  0.00    +0.002 A 
ATOM     24  C   UNL     1      -1.115  -2.982   0.155  0.00  0.00    +0.000 A 
ATOM     25  C   UNL     1       0.175  -2.495   0.055  0.00  0.00    +0.001 A 
ATOM     26  C   UNL     1       0.397  -1.132   0.004  0.00  0.00    +0.012 A 
ATOM     27  C   UNL     1      -0.670  -0.255   0.062  0.00  0.00    +0.056 A 
BRANCH  27  28
ATOM     28  C   UNL     1      -0.427   1.232   0.011  0.00  0.00    +0.418 C 
ATOM     29  F   UNL     1       0.947   1.477  -0.088  0.00  0.00    -0.166 F 
ATOM     30  F   UNL     1      -1.079   1.773  -1.103  0.00  0.00    -0.166 F 
ATOM     31  F   UNL     1      -0.924   1.826   1.175  0.00  0.00    -0.166 F 
ENDBRANCH  27  28
ENDBRANCH  21  22
ENDBRANCH  19  21
ENDBRANCH  17  19
ENDBRANCH   4  17
TORSDOF 11
