REMARK  Name = ZINC20891235
REMARK  2 active torsions:
REMARK  status: ('A' for Active; 'I' for Inactive)
REMARK    1  A    between atoms: C_1  and  C_2
REMARK    2  A    between atoms: C_21  and  C_23
REMARK                            x       y       z     vdW  Elec       q    Type
REMARK                         _______ _______ _______ _____ _____    ______ ____
ROOT
ATOM      1  C   UNL     1       8.107  -4.051  -0.532  0.00  0.00    +0.068 C 
ATOM      2  C   UNL     1       6.619  -3.834  -0.432  0.00  0.00    +0.067 A 
ATOM      3  C   UNL     1       5.675  -4.795  -0.010  0.00  0.00    +0.033 A 
ATOM      4  C   UNL     1       4.453  -4.223  -0.058  0.00  0.00    +0.136 A 
ATOM      5  N   UNL     1       4.632  -2.928  -0.499  0.00  0.00    -0.193 N 
ATOM      6  N   UNL     1       5.994  -2.731  -0.727  0.00  0.00    -0.168 NA
ATOM      7  C   UNL     1       3.628  -1.985  -0.690  0.00  0.00    +0.196 A 
ATOM      8  N   UNL     1       2.329  -2.136  -0.593  0.00  0.00    -0.221 NA
ATOM      9  C   UNL     1       1.462  -1.124  -0.808  0.00  0.00    +0.081 A 
ATOM     10  C   UNL     1       0.049  -1.153  -0.737  0.00  0.00    +0.029 A 
ATOM     11  C   UNL     1      -0.687  -0.025  -0.986  0.00  0.00    +0.002 A 
ATOM     12  C   UNL     1      -0.082   1.179  -1.315  0.00  0.00    +0.001 A 
ATOM     13  C   UNL     1       1.297   1.244  -1.394  0.00  0.00    +0.017 A 
ATOM     14  C   UNL     1       2.044   0.119  -1.146  0.00  0.00    +0.041 A 
ATOM     15  S   UNL     1       3.780  -0.260  -1.129  0.00  0.00    -0.048 S 
ATOM     16  N   UNL     1       3.201  -4.707   0.234  0.00  0.00    -0.269 N 
ATOM     17  C   UNL     1       2.736  -5.827   0.698  0.00  0.00    +0.228 C 
ATOM     18  O   UNL     1       1.543  -5.831   0.921  0.00  0.00    -0.275 OA
ATOM     19  C   UNL     1       3.428  -7.099   0.998  0.00  0.00    +0.166 C 
ATOM     20  S   UNL     1       5.061  -6.857   1.710  0.00  0.00    -0.138 S 
ATOM     21  C   UNL     1       6.079  -6.178   0.397  0.00  0.00    +0.112 C 
ATOM     22  H   UNL     1       2.316  -4.075   0.072  0.00  0.00    +0.156 HD
ENDROOT
BRANCH  21  23
ATOM     23  C   UNL     1       7.512  -6.146   0.863  0.00  0.00    -0.026 A 
ATOM     24  C   UNL     1       7.833  -5.538   2.062  0.00  0.00    +0.009 A 
ATOM     25  C   UNL     1       9.145  -5.512   2.497  0.00  0.00    +0.050 A 
ATOM     26  C   UNL     1      10.143  -6.085   1.726  0.00  0.00    +0.166 A 
ATOM     27  C   UNL     1       9.820  -6.692   0.515  0.00  0.00    +0.167 A 
ATOM     28  C   UNL     1       8.502  -6.719   0.088  0.00  0.00    +0.054 A 
ATOM     29  O   UNL     1      10.964  -7.175  -0.051  0.00  0.00    -0.453 OA
ATOM     30  C   UNL     1      12.042  -6.500   0.626  0.00  0.00    +0.466 C 
ATOM     31  O   UNL     1      11.491  -6.187   1.919  0.00  0.00    -0.453 OA
ENDBRANCH  21  23
TORSDOF 1
