REMARK  Name = ZINC33423942
REMARK  9 active torsions:
REMARK  status: ('A' for Active; 'I' for Inactive)
REMARK    1  A    between atoms: C_1  and  C_2
REMARK    2  A    between atoms: C_5  and  O_19
REMARK    3  A    between atoms: C_7  and  C_18
REMARK    4  A    between atoms: C_9  and  O_17
REMARK    5  A    between atoms: C_11  and  C_15
REMARK    6  A    between atoms: C_11  and  C_16
REMARK    7  A    between atoms: O_19  and  C_20
REMARK    8  A    between atoms: C_20  and  C_22
REMARK    9  A    between atoms: C_25  and  O_28
REMARK                            x       y       z     vdW  Elec       q    Type
REMARK                         _______ _______ _______ _____ _____    ______ ____
ROOT
ATOM      1  C   UNL     1       4.278  -1.329   1.179  0.00  0.00    +0.039 C 
ATOM      2  C   UNL     1       3.268  -2.389   0.941  0.00  0.00    -0.076 C 
ATOM      3  C   UNL     1       2.012  -2.257   1.262  0.00  0.00    -0.024 C 
ATOM      4  C   UNL     1       1.491  -1.012   1.767  0.00  0.00    +0.076 C 
ATOM      5  C   UNL     1       0.025  -0.806   1.289  0.00  0.00    +0.206 C 
ATOM      6  C   UNL     1       0.002  -0.004   0.002  0.00  0.00    -0.034 C 
ATOM      7  C   UNL     1       0.063  -0.638  -1.227  0.00  0.00    +0.007 C 
ATOM      8  C   UNL     1       0.217  -2.072  -1.354  0.00  0.00    +0.143 C 
ATOM      9  C   UNL     1       1.484  -2.535  -2.091  0.00  0.00    -0.005 C 
ATOM     10  C   UNL     1       1.979  -3.803  -1.434  0.00  0.00    +0.009 C 
ATOM     11  C   UNL     1       3.538  -3.721  -1.162  0.00  0.00    +0.005 C 
ATOM     12  C   UNL     1       3.787  -3.674   0.313  0.00  0.00    +0.030 C 
ATOM     13  C   UNL     1       2.429  -1.367  -2.022  0.00  0.00    +0.014 C 
ATOM     14  C   UNL     1       1.049  -2.743  -3.569  0.00  0.00    +0.014 C 
ATOM     15  C   UNL     1      -0.018   1.487   0.010  0.00  0.00    +0.042 C 
ENDROOT
BRANCH   8  16
ATOM     16  O   UNL     1      -0.988  -2.588  -2.125  0.00  0.00    -0.387 OA
ATOM     17  H   UNL     1      -1.084  -3.662  -2.341  0.00  0.00    +0.210 HD
ENDBRANCH   8  16
BRANCH   5  18
ATOM     18  O   UNL     1      -0.716  -0.023   2.223  0.00  0.00    -0.453 OA
BRANCH  18  19
ATOM     19  C   UNL     1      -1.379  -0.688   3.189  0.00  0.00    +0.340 C 
ATOM     20  O   UNL     1      -1.327  -1.901   3.237  0.00  0.00    -0.245 OA
BRANCH  19  21
ATOM     21  C   UNL     1      -2.166   0.056   4.190  0.00  0.00    +0.059 A 
ATOM     22  C   UNL     1      -2.223   1.452   4.140  0.00  0.00    +0.018 A 
ATOM     23  C   UNL     1      -2.964   2.142   5.073  0.00  0.00    +0.046 A 
ATOM     24  C   UNL     1      -3.646   1.454   6.069  0.00  0.00    +0.117 A 
ATOM     25  C   UNL     1      -3.588   0.066   6.125  0.00  0.00    +0.046 A 
ATOM     26  C   UNL     1      -2.854  -0.632   5.194  0.00  0.00    +0.018 A 
BRANCH  24  27
ATOM     27  O   UNL     1      -4.371   2.139   6.989  0.00  0.00    -0.507 OA
ATOM     28  H   UNL     1      -4.912   1.595   7.779  0.00  0.00    +0.292 HD
ENDBRANCH  24  27
ENDBRANCH  19  21
ENDBRANCH  18  19
ENDBRANCH   5  18
TORSDOF 5
