REMARK  Name = ZINC08971531
REMARK  6 active torsions:
REMARK  status: ('A' for Active; 'I' for Inactive)
REMARK    1  A    between atoms: C_4  and  N_7
REMARK    2  A    between atoms: C_8  and  C_10
REMARK    3  A    between atoms: C_10  and  S_11
REMARK    4  A    between atoms: S_11  and  C_12
REMARK    5  A    between atoms: C_13  and  C_27
REMARK    6  A    between atoms: C_14  and  C_20
REMARK                            x       y       z     vdW  Elec       q    Type
REMARK                         _______ _______ _______ _____ _____    ______ ____
ROOT
ATOM      1  C   UNL     1       1.145   3.271   0.016  0.00  0.00    +0.082 C 
ATOM      2  C   UNL     1       0.034   3.966  -0.353  0.00  0.00    +0.065 C 
ATOM      3  C   UNL     1      -1.218   3.232  -0.759  0.00  0.00    +0.072 C 
ATOM      4  C   UNL     1      -1.339   1.942   0.049  0.00  0.00    +0.109 C 
ATOM      5  C   UNL     1      -0.023   1.210   0.038  0.00  0.00    +0.218 C 
ATOM      6  O   UNL     1      -0.009  -0.002   0.039  0.00  0.00    -0.275 OA
ATOM      7  N   UNL     1       1.138   1.892   0.022  0.00  0.00    -0.279 N 
ATOM      8  H   UNL     1       2.087   1.337   0.014  0.00  0.00    +0.155 HD
ENDROOT
BRANCH   3   9
ATOM      9  C   UNL     1      -1.149   2.895  -2.227  0.00  0.00    -0.020 A 
ATOM     10  C   UNL     1      -0.125   2.099  -2.706  0.00  0.00    +0.006 A 
ATOM     11  C   UNL     1      -0.061   1.790  -4.051  0.00  0.00    +0.000 A 
ATOM     12  C   UNL     1      -1.022   2.276  -4.919  0.00  0.00    +0.001 A 
ATOM     13  C   UNL     1      -2.046   3.071  -4.441  0.00  0.00    +0.020 A 
ATOM     14  C   UNL     1      -2.113   3.377  -3.093  0.00  0.00    +0.045 A 
ATOM     15 CL   UNL     1      -3.404   4.369  -2.491  0.00  0.00    -0.083 Cl
ENDBRANCH   3   9
BRANCH   2  16
ATOM     16  C   UNL     1       0.055   5.398  -0.356  0.00  0.00    +0.098 C 
ATOM     17  N   UNL     1       0.072   6.534  -0.358  0.00  0.00    -0.191 NA
ENDBRANCH   2  16
BRANCH   1  18
ATOM     18  S   UNL     1       2.603   4.139   0.489  0.00  0.00    -0.100 S 
BRANCH  18  19
ATOM     19  C   UNL     1       3.695   2.744   0.857  0.00  0.00    +0.171 C 
BRANCH  19  21
ATOM     20  N   UNL     1       6.021   2.396   1.623  0.00  0.00    -0.285 N 
ATOM     21  C   UNL     1       5.041   3.261   1.296  0.00  0.00    +0.227 C 
ATOM     22  O   UNL     1       5.242   4.456   1.354  0.00  0.00    -0.275 OA
ATOM     23  H   UNL     1       5.817   1.315   1.643  0.00  0.00    +0.155 HD
BRANCH  20  27
ATOM     24  C   UNL     1       9.825   3.815   2.557  0.00  0.00    +0.000 A 
ATOM     25  C   UNL     1       8.708   4.546   2.917  0.00  0.00    +0.002 A 
ATOM     26  C   UNL     1       7.446   4.079   2.609  0.00  0.00    +0.023 A 
ATOM     27  C   UNL     1       7.299   2.873   1.937  0.00  0.00    +0.033 A 
ATOM     28  C   UNL     1       8.422   2.138   1.581  0.00  0.00    +0.023 A 
ATOM     29  C   UNL     1       9.682   2.614   1.887  0.00  0.00    +0.002 A 
ENDBRANCH  20  27
ENDBRANCH  19  21
ENDBRANCH  18  19
ENDBRANCH   1  18
TORSDOF 6
