REMARK  Name = ZINC40568794
REMARK  11 active torsions:
REMARK  status: ('A' for Active; 'I' for Inactive)
REMARK    1  A    between atoms: C_1  and  C_2
REMARK    2  A    between atoms: C_2  and  C_3
REMARK    3  A    between atoms: C_3  and  C_4
REMARK    4  A    between atoms: N_10  and  C_11
REMARK    5  A    between atoms: C_11  and  C_12
REMARK    6  A    between atoms: C_12  and  O_13
REMARK    7  A    between atoms: C_14  and  C_24
REMARK    8  A    between atoms: C_16  and  C_20
REMARK    9  A    between atoms: C_17  and  N_19
REMARK   10  A    between atoms: C_20  and  O_22
REMARK   11  A    between atoms: O_22  and  C_23
REMARK                            x       y       z     vdW  Elec       q    Type
REMARK                         _______ _______ _______ _____ _____    ______ ____
ROOT
ATOM      1  C   UNL     1      -1.000  -2.020   0.113  0.00  0.00    +0.026 A 
ATOM      2  C   UNL     1      -1.358  -2.364   1.369  0.00  0.00    +0.068 A 
ATOM      3  C   UNL     1      -1.561  -3.721   1.692  0.00  0.00    +0.141 A 
ATOM      4  C   UNL     1      -1.388  -4.674   0.711  0.00  0.00    +0.071 A 
ATOM      5  C   UNL     1      -1.016  -4.271  -0.577  0.00  0.00    +0.259 A 
ATOM      6  O   UNL     1      -0.859  -5.104  -1.456  0.00  0.00    -0.267 OA
ATOM      7  N   UNL     1      -0.836  -2.965  -0.850  0.00  0.00    -0.310 N 
ATOM      8  C   UNL     1      -1.596  -6.133   1.012  0.00  0.00    +0.100 C 
ATOM      9  C   UNL     1      -1.593  -6.362   2.498  0.00  0.00    +0.105 C 
ATOM     10  C   UNL     1      -1.753  -5.332   3.368  0.00  0.00    +0.195 C 
ATOM     11  O   UNL     1      -1.920  -4.067   2.947  0.00  0.00    -0.441 OA
ENDROOT
BRANCH   8  12
ATOM     12  C   UNL     1      -2.920  -6.577   0.444  0.00  0.00    -0.034 A 
ATOM     13  C   UNL     1      -4.090  -5.973   0.865  0.00  0.00    +0.004 A 
ATOM     14  C   UNL     1      -5.304  -6.379   0.345  0.00  0.00    +0.002 A 
ATOM     15  C   UNL     1      -5.349  -7.390  -0.597  0.00  0.00    +0.020 A 
ATOM     16  C   UNL     1      -4.179  -7.995  -1.019  0.00  0.00    +0.041 A 
ATOM     17  C   UNL     1      -2.963  -7.583  -0.502  0.00  0.00    +0.024 A 
ATOM     18 CL   UNL     1      -4.235  -9.264  -2.202  0.00  0.00    -0.084 Cl
ENDBRANCH   8  12
BRANCH  10  19
ATOM     19  N   UNL     1      -1.744  -5.590   4.712  0.00  0.00    -0.329 N 
ATOM     20  H   UNL     1      -1.542  -6.483   5.033  0.00  0.00    +0.145 HD
ATOM     21  H   UNL     1      -1.939  -4.880   5.343  0.00  0.00    +0.145 HD
ENDBRANCH  10  19
BRANCH   9  22
ATOM     22  C   UNL     1      -1.422  -7.662   2.995  0.00  0.00    +0.341 C 
ATOM     23  O   UNL     1      -0.310  -8.159   3.033  0.00  0.00    -0.245 OA
BRANCH  22  24
ATOM     24  O   UNL     1      -2.490  -8.364   3.431  0.00  0.00    -0.465 OA
ATOM     25  C   UNL     1      -2.243  -9.683   3.923  0.00  0.00    +0.280 C 
ENDBRANCH  22  24
ENDBRANCH   9  22
BRANCH   1  26
ATOM     26  C   UNL     1      -0.784  -0.568  -0.227  0.00  0.00    +0.053 C 
BRANCH  26  28
ATOM     27  C   UNL     1      -1.906   1.538  -0.969  0.00  0.00    +0.004 C 
ATOM     28  C   UNL     1      -2.096   0.039  -0.728  0.00  0.00    +0.003 C 
ENDBRANCH  26  28
ENDBRANCH   1  26
BRANCH   7  29
ATOM     29  C   UNL     1      -0.452  -2.557  -2.203  0.00  0.00    +0.153 C 
BRANCH  29  30
ATOM     30  C   UNL     1       1.072  -2.468  -2.296  0.00  0.00    +0.177 C 
BRANCH  30  31
ATOM     31  O   UNL     1       1.637  -3.768  -2.115  0.00  0.00    -0.393 OA
ATOM     32  H   UNL     1       2.603  -3.788  -2.162  0.00  0.00    +0.209 HD
ENDBRANCH  30  31
ENDBRANCH  29  30
ENDBRANCH   7  29
TORSDOF 9
