REMARK  Name = ZINC05857085
REMARK  12 active torsions:
REMARK  status: ('A' for Active; 'I' for Inactive)
REMARK    1  A    between atoms: C_1  and  C_2
REMARK    2  A    between atoms: C_2  and  C_3
REMARK    3  A    between atoms: C_2  and  C_4
REMARK    4  A    between atoms: C_4  and  C_6
REMARK    5  A    between atoms: C_4  and  S_12
REMARK    6  A    between atoms: S_12  and  C_13
REMARK    7  A    between atoms: C_16  and  C_19
REMARK    8  A    between atoms: N_17  and  C_18
REMARK    9  A    between atoms: C_22  and  C_25
REMARK   10  A    between atoms: C_25  and  C_26
REMARK   11  A    between atoms: C_25  and  C_27
REMARK   12  A    between atoms: C_25  and  C_28
REMARK                            x       y       z     vdW  Elec       q    Type
REMARK                         _______ _______ _______ _____ _____    ______ ____
ROOT
ATOM      1  C   UNL     1      -4.896   0.474   0.763  0.00  0.00    +0.192 A 
ATOM      2  N   UNL     1      -5.173  -0.726   0.304  0.00  0.00    -0.122 NA
ATOM      3  N   UNL     1      -6.445  -0.910   0.287  0.00  0.00    -0.128 NA
ATOM      4  C   UNL     1      -7.058   0.165   0.724  0.00  0.00    +0.165 A 
ATOM      5  N   UNL     1      -6.085   1.085   1.042  0.00  0.00    -0.305 N 
ATOM      6  C   UNL     1      -6.284   2.437   1.569  0.00  0.00    +0.153 C 
ENDROOT
BRANCH   4   7
ATOM      7  C   UNL     1      -8.519   0.353   0.850  0.00  0.00    +0.019 A 
ATOM      8  C   UNL     1      -9.372  -0.752   0.835  0.00  0.00    +0.012 A 
ATOM      9  C   UNL     1     -10.734  -0.570   0.959  0.00  0.00    +0.005 A 
ATOM     10  C   UNL     1     -11.256   0.705   1.086  0.00  0.00    -0.042 A 
ATOM     11  C   UNL     1     -10.417   1.805   1.095  0.00  0.00    +0.005 A 
ATOM     12  C   UNL     1      -9.053   1.637   0.978  0.00  0.00    +0.012 A 
BRANCH  10  13
ATOM     13  C   UNL     1     -12.745   0.896   1.214  0.00  0.00    -0.013 C 
ATOM     14  C   UNL     1     -13.250   1.759   0.055  0.00  0.00    +0.015 C 
ATOM     15  C   UNL     1     -13.440  -0.467   1.175  0.00  0.00    +0.015 C 
ATOM     16  C   UNL     1     -13.058   1.591   2.541  0.00  0.00    +0.015 C 
ENDBRANCH  10  13
ENDBRANCH   4   7
BRANCH   1  17
ATOM     17  S   UNL     1      -3.290   1.169   0.971  0.00  0.00    -0.073 S 
BRANCH  17  18
ATOM     18  C   UNL     1      -2.278  -0.171   0.294  0.00  0.00    +0.143 C 
BRANCH  18  19
ATOM     19  C   UNL     1      -2.341  -1.362   1.215  0.00  0.00    +0.234 C 
ATOM     20  O   UNL     1      -2.682  -1.218   2.370  0.00  0.00    -0.274 OA
ATOM     21  N   UNL     1      -2.019  -2.587   0.755  0.00  0.00    -0.239 N 
ATOM     22  C   UNL     1      -2.070  -3.652   1.580  0.00  0.00    +0.303 C 
ATOM     23  O   UNL     1      -2.412  -3.508   2.737  0.00  0.00    -0.253 OA
ATOM     24  N   UNL     1      -1.743  -4.876   1.121  0.00  0.00    -0.313 N 
ATOM     25  H   UNL     1      -1.747  -2.702  -0.169  0.00  0.00    +0.159 HD
ATOM     26  H   UNL     1      -1.471  -4.991   0.197  0.00  0.00    +0.146 HD
ATOM     27  H   UNL     1      -1.780  -5.642   1.715  0.00  0.00    +0.146 HD
ENDBRANCH  18  19
BRANCH  18  29
ATOM     28  C   UNL     1      -0.744   1.422  -0.869  0.00  0.00    +0.009 C 
ATOM     29  C   UNL     1      -0.828   0.300   0.168  0.00  0.00    +0.005 C 
ATOM     30  C   UNL     1      -0.340   0.820   1.522  0.00  0.00    +0.009 C 
ENDBRANCH  18  29
ENDBRANCH  17  18
ENDBRANCH   1  17
TORSDOF 6
