REMARK  Name = ZINC34734084
REMARK  8 active torsions:
REMARK  status: ('A' for Active; 'I' for Inactive)
REMARK    1  A    between atoms: C_1  and  C_2
REMARK    2  A    between atoms: C_2  and  C_4
REMARK    3  A    between atoms: C_2  and  N_10
REMARK    4  A    between atoms: N_14  and  C_17
REMARK    5  A    between atoms: C_20  and  N_23
REMARK    6  A    between atoms: C_24  and  C_26
REMARK    7  A    between atoms: C_26  and  C_27
REMARK    8  A    between atoms: C_26  and  C_28
REMARK                            x       y       z     vdW  Elec       q    Type
REMARK                         _______ _______ _______ _____ _____    ______ ____
ROOT
ATOM      1  N   UNL     1      -1.823  -0.685  -0.137  0.00  0.00    -0.278 N 
ATOM      2  C   UNL     1      -2.072  -1.648  -1.211  0.00  0.00    +0.111 C 
ATOM      3  C   UNL     1      -3.166  -2.625  -0.766  0.00  0.00    +0.038 C 
ATOM      4  C   UNL     1      -4.404  -1.818  -0.360  0.00  0.00    +0.117 C 
ATOM      5  N   UNL     1      -4.028  -0.846   0.668  0.00  0.00    -0.255 N 
ATOM      6  C   UNL     1      -2.788  -0.340   0.728  0.00  0.00    +0.310 C 
ATOM      7  O   UNL     1      -2.529   0.469   1.599  0.00  0.00    -0.252 OA
ENDROOT
BRANCH   5   8
ATOM      8  C   UNL     1      -4.982  -0.441   1.611  0.00  0.00    +0.038 A 
ATOM      9  C   UNL     1      -6.141   0.201   1.194  0.00  0.00    +0.025 A 
ATOM     10  C   UNL     1      -7.081   0.600   2.123  0.00  0.00    +0.025 A 
ATOM     11  C   UNL     1      -6.867   0.361   3.474  0.00  0.00    +0.034 A 
ATOM     12  C   UNL     1      -5.707  -0.281   3.891  0.00  0.00    +0.025 A 
ATOM     13  C   UNL     1      -4.771  -0.685   2.961  0.00  0.00    +0.025 A 
BRANCH  11  14
ATOM     14  N   UNL     1      -7.820   0.766   4.417  0.00  0.00    -0.285 N 
ATOM     15  C   UNL     1      -9.132   0.724   4.110  0.00  0.00    +0.220 C 
ATOM     16  O   UNL     1      -9.493   0.248   3.055  0.00  0.00    -0.275 OA
ATOM     17  H   UNL     1      -7.536   1.078   5.291  0.00  0.00    +0.155 HD
BRANCH  15  18
ATOM     18  C   UNL     1     -10.150   1.269   5.079  0.00  0.00    +0.069 C 
ATOM     19  C   UNL     1     -11.553   1.100   4.492  0.00  0.00    +0.017 C 
ATOM     20  C   UNL     1     -10.055   0.506   6.401  0.00  0.00    +0.017 C 
ENDBRANCH  15  18
ENDBRANCH  11  14
ENDBRANCH   5   8
BRANCH   1  22
ATOM     21  C   UNL     1       0.556  -1.204   0.102  0.00  0.00    +0.033 C 
ATOM     22  C   UNL     1      -0.490  -0.092  -0.000  0.00  0.00    +0.105 C 
BRANCH  22  23
ATOM     23  C   UNL     1      -0.196   0.765  -1.204  0.00  0.00    -0.027 A 
ATOM     24  C   UNL     1       0.177   2.086  -1.038  0.00  0.00    +0.005 A 
ATOM     25  C   UNL     1       0.447   2.872  -2.143  0.00  0.00    +0.000 A 
ATOM     26  C   UNL     1       0.344   2.337  -3.414  0.00  0.00    +0.000 A 
ATOM     27  C   UNL     1      -0.029   1.016  -3.580  0.00  0.00    +0.000 A 
ATOM     28  C   UNL     1      -0.294   0.229  -2.475  0.00  0.00    +0.005 A 
ENDBRANCH  22  23
ENDBRANCH   1  22
TORSDOF 5
