REMARK  Name = ZINC57913008
REMARK  9 active torsions:
REMARK  status: ('A' for Active; 'I' for Inactive)
REMARK    1  A    between atoms: C_1  and  C_2
REMARK    2  A    between atoms: C_2  and  S_3
REMARK    3  A    between atoms: S_3  and  C_4
REMARK    4  A    between atoms: C_9  and  N_10
REMARK    5  A    between atoms: C_11  and  C_13
REMARK    6  A    between atoms: N_15  and  C_16
REMARK    7  A    between atoms: C_16  and  C_18
REMARK    8  A    between atoms: C_16  and  C_25
REMARK    9  A    between atoms: C_21  and  C_24
REMARK                            x       y       z     vdW  Elec       q    Type
REMARK                         _______ _______ _______ _____ _____    ______ ____
ROOT
ATOM      1  C   UNL     1       3.108  -2.751   5.606  0.00  0.00    +0.300 C 
ATOM      2  O   UNL     1       3.151  -1.542   5.713  0.00  0.00    -0.265 OA
ATOM      3  N   UNL     1       3.586  -3.532   6.595  0.00  0.00    -0.300 N 
ATOM      4  H   UNL     1       3.552  -4.498   6.510  0.00  0.00    +0.150 HD
ENDROOT
BRANCH   1   6
ATOM      5  N   UNL     1       2.046  -2.590   3.391  0.00  0.00    -0.277 N 
ATOM      6  C   UNL     1       2.525  -3.372   4.380  0.00  0.00    +0.303 C 
ATOM      7  O   UNL     1       2.481  -4.580   4.273  0.00  0.00    -0.265 OA
ATOM      8  H   UNL     1       2.139  -1.627   3.447  0.00  0.00    +0.155 HD
BRANCH   5  14
ATOM      9  C   UNL     1       0.342  -2.520   1.672  0.00  0.00    +0.029 A 
ATOM     10  C   UNL     1      -0.275  -3.098   0.571  0.00  0.00    +0.016 A 
ATOM     11  C   UNL     1       0.170  -4.315   0.090  0.00  0.00    +0.001 A 
ATOM     12  C   UNL     1       1.229  -4.961   0.702  0.00  0.00    +0.002 A 
ATOM     13  C   UNL     1       1.850  -4.394   1.798  0.00  0.00    +0.024 A 
ATOM     14  C   UNL     1       1.415  -3.170   2.285  0.00  0.00    +0.047 A 
BRANCH   9  15
ATOM     15  S   UNL     1      -0.222  -0.969   2.288  0.00  0.00    -0.124 S 
BRANCH  15  17
ATOM     16  C   UNL     1      -2.189   0.809   1.620  0.00  0.00    +0.015 C 
ATOM     17  C   UNL     1      -1.599  -0.535   1.191  0.00  0.00    +0.071 C 
ENDBRANCH  15  17
ENDBRANCH   9  15
ENDBRANCH   5  14
ENDBRANCH   1   6
BRANCH   3  18
ATOM     18  C   UNL     1       4.159  -2.923   7.798  0.00  0.00    +0.107 C 
BRANCH  18  19
ATOM     19  C   UNL     1       4.051  -3.888   8.950  0.00  0.00    -0.027 A 
ATOM     20  C   UNL     1       4.292  -5.234   8.748  0.00  0.00    +0.006 A 
ATOM     21  C   UNL     1       4.193  -6.120   9.805  0.00  0.00    +0.004 A 
ATOM     22  C   UNL     1       3.853  -5.660  11.063  0.00  0.00    -0.050 A 
ATOM     23  C   UNL     1       3.612  -4.314  11.265  0.00  0.00    +0.004 A 
ATOM     24  C   UNL     1       3.715  -3.427  10.209  0.00  0.00    +0.006 A 
ATOM     25  C   UNL     1       3.744  -6.625  12.215  0.00  0.00    +0.044 C 
ENDBRANCH  18  19
BRANCH  18  26
ATOM     26  C   UNL     1       5.631  -2.588   7.549  0.00  0.00    +0.014 C 
ATOM     27  C   UNL     1       6.095  -1.165   7.867  0.00  0.00    +0.006 C 
ATOM     28  C   UNL     1       5.952  -1.616   6.412  0.00  0.00    +0.006 C 
ENDBRANCH  18  26
ENDBRANCH   3  18
TORSDOF 7
