REMARK  Name = ZINC36311788
REMARK  12 active torsions:
REMARK  status: ('A' for Active; 'I' for Inactive)
REMARK    1  A    between atoms: C_1  and  C_2
REMARK    2  A    between atoms: C_2  and  C_3
REMARK    3  A    between atoms: C_3  and  C_4
REMARK    4  A    between atoms: C_4  and  C_5
REMARK    5  A    between atoms: C_8  and  C_11
REMARK    6  A    between atoms: N_16  and  C_19
REMARK    7  A    between atoms: C_19  and  C_21
REMARK    8  A    between atoms: C_19  and  C_26
REMARK    9  A    between atoms: N_28  and  C_29
REMARK   10  A    between atoms: C_32  and  C_35
REMARK   11  A    between atoms: C_35  and  C_36
REMARK   12  A    between atoms: C_35  and  C_37
REMARK                            x       y       z     vdW  Elec       q    Type
REMARK                         _______ _______ _______ _____ _____    ______ ____
ROOT
ATOM      1  C   UNL     1      -6.360  -1.704   0.025  0.00  0.00    +0.246 C 
ATOM      2  O   UNL     1      -5.645  -0.728  -0.088  0.00  0.00    -0.270 OA
ATOM      3  N   UNL     1      -6.735  -2.395  -1.070  0.00  0.00    -0.301 N 
ATOM      4  C   UNL     1      -6.217  -2.042  -2.401  0.00  0.00    +0.089 C 
ATOM      5  C   UNL     1      -7.401  -1.911  -3.364  0.00  0.00    -0.058 C 
ATOM      6  N   UNL     1      -8.197  -3.144  -3.331  0.00  0.00    +0.390 N 
ATOM      7  C   UNL     1      -8.789  -3.322  -1.999  0.00  0.00    -0.058 C 
ATOM      8  C   UNL     1      -7.669  -3.526  -0.967  0.00  0.00    +0.089 C 
ATOM      9  H   UNL     1      -7.603  -3.932  -3.541  0.00  0.00    -0.081 HD
ENDROOT
BRANCH   1  13
ATOM     10  C   UNL     1      -7.681  -2.937   3.869  0.00  0.00    -0.047 A 
ATOM     11  C   UNL     1      -7.559  -1.589   3.582  0.00  0.00    +0.004 A 
ATOM     12  C   UNL     1      -7.130  -1.181   2.336  0.00  0.00    +0.013 A 
ATOM     13  C   UNL     1      -6.820  -2.133   1.363  0.00  0.00    +0.037 A 
ATOM     14  C   UNL     1      -6.946  -3.491   1.658  0.00  0.00    +0.013 A 
ATOM     15  C   UNL     1      -7.370  -3.885   2.911  0.00  0.00    +0.004 A 
BRANCH  10  16
ATOM     16  C   UNL     1      -8.150  -3.374   5.233  0.00  0.00    +0.035 C 
BRANCH  16  17
ATOM     17  C   UNL     1      -6.943  -3.541   6.157  0.00  0.00    +0.004 C 
BRANCH  17  19
ATOM     18  C   UNL     1      -6.212  -4.153   8.467  0.00  0.00    +0.004 C 
ATOM     19  C   UNL     1      -7.419  -3.985   7.542  0.00  0.00    -0.003 C 
ENDBRANCH  17  19
ENDBRANCH  16  17
ENDBRANCH  10  16
ENDBRANCH   1  13
BRANCH   6  20
ATOM     20  C   UNL     1      -9.268  -3.061  -4.333  0.00  0.00    +0.023 C 
BRANCH  20  21
ATOM     21  C   UNL     1     -10.101  -4.344  -4.297  0.00  0.00    -0.016 C 
ATOM     22  C   UNL     1      -9.216  -5.559  -4.643  0.00  0.00    +0.002 C 
ATOM     23  C   UNL     1     -10.142  -6.479  -5.478  0.00  0.00    +0.000 C 
ATOM     24  C   UNL     1     -10.952  -5.468  -6.326  0.00  0.00    +0.000 C 
ATOM     25  C   UNL     1     -11.205  -4.286  -5.368  0.00  0.00    +0.002 C 
ENDBRANCH  20  21
BRANCH  20  26
ATOM     26  C   UNL     1      -8.662  -2.895  -5.703  0.00  0.00    +0.204 C 
ATOM     27  O   UNL     1      -7.564  -3.352  -5.940  0.00  0.00    -0.277 OA
ATOM     28  N   UNL     1      -9.340  -2.237  -6.665  0.00  0.00    -0.287 N 
ATOM     29  H   UNL     1     -10.191  -1.819  -6.459  0.00  0.00    +0.155 HD
BRANCH  28  30
ATOM     30  C   UNL     1      -8.816  -2.157  -7.960  0.00  0.00    +0.033 A 
ATOM     31  C   UNL     1      -8.097  -3.222  -8.487  0.00  0.00    +0.023 A 
ATOM     32  C   UNL     1      -7.582  -3.140  -9.765  0.00  0.00    +0.006 A 
ATOM     33  C   UNL     1      -7.781  -1.999 -10.521  0.00  0.00    -0.045 A 
ATOM     34  C   UNL     1      -8.496  -0.937  -9.999  0.00  0.00    +0.006 A 
ATOM     35  C   UNL     1      -9.019  -1.015  -8.723  0.00  0.00    +0.023 A 
BRANCH  33  36
ATOM     36  C   UNL     1      -7.217  -1.913 -11.916  0.00  0.00    +0.013 C 
ATOM     37  C   UNL     1      -8.357  -1.708 -12.915  0.00  0.00    +0.012 C 
ATOM     38  C   UNL     1      -6.245  -0.734 -12.001  0.00  0.00    +0.012 C 
ENDBRANCH  33  36
ENDBRANCH  28  30
ENDBRANCH  20  26
ENDBRANCH   6  20
TORSDOF 9
