REMARK  Name = ZINC39727360
REMARK  8 active torsions:
REMARK  status: ('A' for Active; 'I' for Inactive)
REMARK    1  A    between atoms: C_1  and  C_2
REMARK    2  A    between atoms: C_4  and  S_9
REMARK    3  A    between atoms: C_5  and  C_8
REMARK    4  A    between atoms: S_9  and  N_12
REMARK    5  A    between atoms: N_15  and  C_18
REMARK    6  A    between atoms: C_18  and  C_19
REMARK    7  A    between atoms: C_19  and  C_21
REMARK    8  A    between atoms: C_29  and  C_31
REMARK                            x       y       z     vdW  Elec       q    Type
REMARK                         _______ _______ _______ _____ _____    ______ ____
ROOT
ATOM      1  C   UNL     1       0.109  -3.985  -4.499  0.00  0.00    +0.164 C 
ENDROOT
BRANCH   1   5
ATOM      2  N   UNL     1      -2.300  -1.212  -2.470  0.00  0.00    -0.174 NA
ATOM      3  C   UNL     1      -1.454  -0.693  -3.556  0.00  0.00    +0.125 C 
ATOM      4  C   UNL     1      -0.333  -1.702  -3.823  0.00  0.00    +0.102 C 
ATOM      5  N   UNL     1      -0.918  -3.027  -4.070  0.00  0.00    -0.293 NA
ATOM      6  C   UNL     1      -1.638  -3.520  -2.889  0.00  0.00    +0.102 C 
ATOM      7  C   UNL     1      -2.808  -2.587  -2.580  0.00  0.00    +0.125 C 
BRANCH   2   8
ATOM      8  S   UNL     1      -2.666  -0.273  -1.156  0.00  0.00    +0.061 S 
ATOM      9  O   UNL     1      -3.870  -0.792  -0.609  0.00  0.00    -0.153 OA
ATOM     10  O   UNL     1      -2.539   1.079  -1.574  0.00  0.00    -0.153 OA
BRANCH   8  13
ATOM     11  C   UNL     1      -0.019   1.526   0.010  0.00  0.00    +0.047 C 
ATOM     12  C   UNL     1       0.002  -0.004   0.002  0.00  0.00    +0.196 C 
ATOM     13  C   UNL     1      -1.407  -0.548   0.046  0.00  0.00    +0.134 C 
ATOM     14  C   UNL     1      -1.526  -1.263   1.145  0.00  0.00    +0.061 C 
ATOM     15  N   UNL     1      -0.345  -1.271   1.865  0.00  0.00    -0.268 N 
ATOM     16  O   UNL     1       0.636  -0.500   1.190  0.00  0.00    -0.265 OA
ATOM     17  C   UNL     1      -2.784  -1.980   1.564  0.00  0.00    +0.067 C 
ATOM     18  H   UNL     1      -0.208  -1.735   2.706  0.00  0.00    +0.194 HD
ENDBRANCH   8  13
ENDBRANCH   2   8
ENDBRANCH   1   5
BRANCH   1  19
ATOM     19  C   UNL     1      -0.554  -5.252  -4.977  0.00  0.00    +0.176 C 
ATOM     20  O   UNL     1      -1.764  -5.347  -4.961  0.00  0.00    -0.291 OA
BRANCH  19  21
ATOM     21  C   UNL     1       0.233  -6.327  -5.442  0.00  0.00    +0.032 C 
ATOM     22  C   UNL     1       1.613  -6.383  -5.518  0.00  0.00    +0.007 A 
ATOM     23  C   UNL     1       2.633  -5.460  -5.187  0.00  0.00    +0.010 A 
ATOM     24  C   UNL     1       3.932  -5.786  -5.370  0.00  0.00    +0.001 A 
ATOM     25  C   UNL     1       4.332  -7.029  -5.887  0.00  0.00    +0.002 A 
ATOM     26  C   UNL     1       3.438  -7.979  -6.235  0.00  0.00    +0.026 A 
ATOM     27  C   UNL     1       2.001  -7.705  -6.067  0.00  0.00    +0.044 A 
ATOM     28  N   UNL     1       0.944  -8.425  -6.316  0.00  0.00    -0.373 N 
ATOM     29  C   UNL     1      -0.257  -7.664  -5.955  0.00  0.00    +0.144 C 
ATOM     30  H   UNL     1       0.950  -9.324  -6.678  0.00  0.00    +0.161 HD
BRANCH  29  31
ATOM     31  C   UNL     1      -1.127  -7.466  -7.170  0.00  0.00    -0.021 A 
ATOM     32  C   UNL     1      -0.548  -7.257  -8.407  0.00  0.00    +0.006 A 
ATOM     33  C   UNL     1      -1.345  -7.076  -9.522  0.00  0.00    +0.000 A 
ATOM     34  C   UNL     1      -2.722  -7.104  -9.398  0.00  0.00    +0.000 A 
ATOM     35  C   UNL     1      -3.301  -7.314  -8.161  0.00  0.00    +0.000 A 
ATOM     36  C   UNL     1      -2.503  -7.499  -7.047  0.00  0.00    +0.006 A 
ENDBRANCH  29  31
ENDBRANCH  19  21
ENDBRANCH   1  19
TORSDOF 6
