REMARK  Name = ZINC54541591
REMARK  8 active torsions:
REMARK  status: ('A' for Active; 'I' for Inactive)
REMARK    1  A    between atoms: C_1  and  C_2
REMARK    2  A    between atoms: C_6  and  N_9
REMARK    3  A    between atoms: C_7  and  C_8
REMARK    4  A    between atoms: C_11  and  N_30
REMARK    5  A    between atoms: C_12  and  N_16
REMARK    6  A    between atoms: N_19  and  C_22
REMARK    7  A    between atoms: C_26  and  C_29
REMARK    8  A    between atoms: C_27  and  C_28
REMARK                            x       y       z     vdW  Elec       q    Type
REMARK                         _______ _______ _______ _____ _____    ______ ____
ROOT
ATOM      1  N   UNL     1       2.392  -4.701   1.119  0.00  0.00    -0.298 N 
ATOM      2  C   UNL     1       1.233  -5.043   1.808  0.00  0.00    +0.149 A 
ATOM      3  C   UNL     1       1.307  -5.716   3.029  0.00  0.00    +0.106 A 
ATOM      4  C   UNL     1       0.114  -6.035   3.679  0.00  0.00    +0.147 A 
ATOM      5  N   UNL     1      -1.041  -5.687   3.115  0.00  0.00    -0.219 NA
ATOM      6  C   UNL     1      -1.066  -5.052   1.961  0.00  0.00    +0.225 A 
ATOM      7  N   UNL     1       0.037  -4.728   1.317  0.00  0.00    -0.219 NA
ATOM      8  H   UNL     1       3.255  -5.005   1.441  0.00  0.00    +0.154 HD
ENDROOT
BRANCH   1  14
ATOM      9  C   UNL     1       4.323  -3.291  -3.175  0.00  0.00    +0.044 C 
ATOM     10  C   UNL     1       3.235  -3.216  -2.135  0.00  0.00    -0.046 A 
ATOM     11  C   UNL     1       2.155  -2.372  -2.325  0.00  0.00    +0.004 A 
ATOM     12  C   UNL     1       1.155  -2.300  -1.374  0.00  0.00    +0.002 A 
ATOM     13  C   UNL     1       1.230  -3.071  -0.230  0.00  0.00    +0.023 A 
ATOM     14  C   UNL     1       2.312  -3.920  -0.037  0.00  0.00    +0.036 A 
ATOM     15  C   UNL     1       3.314  -3.993  -0.997  0.00  0.00    -0.026 A 
ATOM     16  C   UNL     1       4.487  -4.917  -0.794  0.00  0.00    +0.046 C 
ENDBRANCH   1  14
BRANCH   4  17
ATOM     17  N   UNL     1       0.130  -6.705   4.897  0.00  0.00    -0.311 N 
ATOM     18  C   UNL     1       0.279  -5.963   6.157  0.00  0.00    +0.125 C 
ATOM     19  C   UNL     1      -0.896  -6.318   7.076  0.00  0.00    +0.124 C 
ATOM     20  N   UNL     1      -1.027  -7.781   7.127  0.00  0.00    -0.327 N 
ATOM     21  C   UNL     1      -1.176  -8.523   5.867  0.00  0.00    +0.124 C 
ATOM     22  C   UNL     1      -0.006  -8.167   4.948  0.00  0.00    +0.125 C 
BRANCH  20  23
ATOM     23  C   UNL     1      -1.010  -8.454   8.351  0.00  0.00    +0.033 A 
ATOM     24  C   UNL     1      -2.197  -8.685   9.034  0.00  0.00    +0.023 A 
ATOM     25  C   UNL     1      -2.177  -9.351  10.244  0.00  0.00    +0.002 A 
ATOM     26  C   UNL     1      -0.977  -9.788  10.774  0.00  0.00    +0.004 A 
ATOM     27  C   UNL     1       0.206  -9.560  10.097  0.00  0.00    -0.046 A 
ATOM     28  C   UNL     1       0.192  -8.899   8.883  0.00  0.00    -0.027 A 
ATOM     29  C   UNL     1       1.482  -8.656   8.142  0.00  0.00    +0.046 C 
ATOM     30  C   UNL     1       1.511 -10.037  10.679  0.00  0.00    +0.044 C 
ENDBRANCH  20  23
ENDBRANCH   4  17
BRANCH   3  31
ATOM     31  N   UNL     1       2.548  -6.063   3.587  0.00  0.00    -0.353 N 
ATOM     32  H   UNL     1       3.370  -5.773   3.162  0.00  0.00    +0.143 HD
ATOM     33  H   UNL     1       2.583  -6.594   4.399  0.00  0.00    +0.143 HD
ENDBRANCH   3  31
TORSDOF 4
