REMARK  Name = ZINC09883050
REMARK  7 active torsions:
REMARK  status: ('A' for Active; 'I' for Inactive)
REMARK    1  A    between atoms: C_3  and  S_15
REMARK    2  A    between atoms: C_6  and  S_7
REMARK    3  A    between atoms: S_7  and  N_10
REMARK    4  A    between atoms: S_15  and  C_16
REMARK    5  A    between atoms: C_16  and  C_17
REMARK    6  A    between atoms: C_17  and  C_19
REMARK    7  A    between atoms: C_21  and  C_25
REMARK                            x       y       z     vdW  Elec       q    Type
REMARK                         _______ _______ _______ _____ _____    ______ ____
ROOT
ATOM      1  C   UNL     1      -2.840  -0.068   0.015  0.00  0.00    +0.155 C 
ENDROOT
BRANCH   1   2
ATOM      2  C   UNL     1      -2.538   1.408   0.021  0.00  0.00    +0.175 C 
ATOM      3  O   UNL     1      -3.446   2.213   0.028  0.00  0.00    -0.291 OA
BRANCH   2   4
ATOM      4  C   UNL     1      -1.147   1.872   0.017  0.00  0.00    +0.036 A 
ATOM      5  C   UNL     1      -0.708   3.218   0.025  0.00  0.00    +0.043 A 
ATOM      6  C   UNL     1       0.654   3.192   0.012  0.00  0.00    +0.103 A 
ATOM      7  N   UNL     1       1.064   1.875   0.002  0.00  0.00    -0.356 N 
ATOM      8  H   UNL     1       1.986   1.575  -0.008  0.00  0.00    +0.165 HD
ATOM      9  C   UNL     1      -0.013   1.076   0.008  0.00  0.00    +0.094 A 
BRANCH   6  10
ATOM     10  C   UNL     1       1.536   4.366   0.010  0.00  0.00    +0.263 C 
ATOM     11  O   UNL     1       1.058   5.485   0.019  0.00  0.00    -0.268 OA
ATOM     12  N   UNL     1       2.874   4.204  -0.003  0.00  0.00    -0.296 N 
ATOM     13  C   UNL     1       3.581   2.915  -0.009  0.00  0.00    +0.108 C 
ATOM     14  C   UNL     1       5.093   3.222   0.002  0.00  0.00    +0.020 C 
ATOM     15  C   UNL     1       5.151   4.655   0.592  0.00  0.00    +0.020 C 
ATOM     16  C   UNL     1       3.871   5.290  -0.007  0.00  0.00    +0.108 C 
ENDBRANCH   6  10
ENDBRANCH   2   4
ENDBRANCH   1   2
BRANCH   1  17
ATOM     17  S   UNL     1      -4.637  -0.318   0.021  0.00  0.00    -0.098 S 
BRANCH  17  20
ATOM     18  C   UNL     1      -6.231  -4.004   0.011  0.00  0.00    +0.032 A 
ATOM     19  C   UNL     1      -6.099  -2.627   0.022  0.00  0.00    +0.037 A 
ATOM     20  C   UNL     1      -4.824  -2.070   0.013  0.00  0.00    +0.097 A 
ATOM     21  N   UNL     1      -3.750  -2.845   0.005  0.00  0.00    -0.247 NA
ATOM     22  C   UNL     1      -3.846  -4.161  -0.000  0.00  0.00    +0.140 A 
ATOM     23  C   UNL     1      -5.080  -4.780   0.002  0.00  0.00    +0.124 A 
BRANCH  23  24
ATOM     24  S   UNL     1      -5.192  -6.539  -0.006  0.00  0.00    +0.062 S 
ATOM     25  O   UNL     1      -6.464  -6.862  -0.552  0.00  0.00    -0.153 OA
ATOM     26  O   UNL     1      -3.978  -7.021  -0.565  0.00  0.00    -0.153 OA
BRANCH  24  27
ATOM     27  N   UNL     1      -5.216  -7.035   1.574  0.00  0.00    -0.177 NA
ATOM     28  C   UNL     1      -4.037  -7.374   2.384  0.00  0.00    +0.109 C 
ATOM     29  C   UNL     1      -4.545  -7.803   3.776  0.00  0.00    +0.018 C 
ATOM     30  C   UNL     1      -6.009  -8.232   3.493  0.00  0.00    +0.018 C 
ATOM     31  C   UNL     1      -6.425  -7.216   2.399  0.00  0.00    +0.109 C 
ENDBRANCH  24  27
ENDBRANCH  23  24
ENDBRANCH  17  20
ENDBRANCH   1  17
TORSDOF 7
