REMARK  Name = ZINC39665497
REMARK  9 active torsions:
REMARK  status: ('A' for Active; 'I' for Inactive)
REMARK    1  A    between atoms: C_1  and  C_2
REMARK    2  A    between atoms: C_2  and  C_4
REMARK    3  A    between atoms: C_2  and  O_29
REMARK    4  A    between atoms: C_4  and  N_5
REMARK    5  A    between atoms: C_6  and  C_8
REMARK    6  A    between atoms: C_19  and  C_21
REMARK    7  A    between atoms: O_29  and  C_30
REMARK    8  A    between atoms: C_33  and  O_36
REMARK    9  A    between atoms: O_36  and  C_37
REMARK                            x       y       z     vdW  Elec       q    Type
REMARK                         _______ _______ _______ _____ _____    ______ ____
ROOT
ATOM      1  C   UNL     1      -2.366  -4.040   0.562  0.00  0.00    +0.100 C 
ATOM      2  C   UNL     1      -1.583  -4.291  -0.747  0.00  0.00    +0.121 C 
ATOM      3  N   UNL     1      -2.193  -5.515  -1.318  0.00  0.00    -0.296 N 
ATOM      4  C   UNL     1      -3.644  -5.362  -1.055  0.00  0.00    +0.115 C 
ATOM      5  C   UNL     1      -3.717  -4.744   0.355  0.00  0.00    -0.004 C 
ATOM      6  C   UNL     1      -3.909  -5.837   1.401  0.00  0.00    -0.010 C 
ATOM      7  C   UNL     1      -5.284  -6.484   1.210  0.00  0.00    -0.082 C 
ATOM      8  N   UNL     1      -6.330  -5.463   1.343  0.00  0.00    +0.379 N 
ATOM      9  C   UNL     1      -6.194  -4.464   0.277  0.00  0.00    -0.082 C 
ATOM     10  C   UNL     1      -4.857  -3.732   0.428  0.00  0.00    -0.010 C 
ATOM     11  C   UNL     1      -1.569  -6.537  -1.937  0.00  0.00    +0.248 C 
ATOM     12  O   UNL     1      -0.355  -6.559  -2.000  0.00  0.00    -0.270 OA
ATOM     13  H   UNL     1      -7.237  -5.901   1.278  0.00  0.00    -0.086 HD
ATOM     14  H   UNL     1      -6.243  -5.009   2.240  0.00  0.00    -0.086 HD
ENDROOT
BRANCH  11  15
ATOM     15  C   UNL     1      -2.360  -7.630  -2.538  0.00  0.00    +0.055 A 
ATOM     16  C   UNL     1      -3.586  -7.355  -3.148  0.00  0.00    +0.016 A 
ATOM     17  C   UNL     1      -4.319  -8.379  -3.708  0.00  0.00    +0.021 A 
ATOM     18  C   UNL     1      -3.844  -9.680  -3.666  0.00  0.00    +0.042 A 
ATOM     19  C   UNL     1      -2.630  -9.960  -3.063  0.00  0.00    +0.040 A 
ATOM     20  C   UNL     1      -1.882  -8.943  -2.505  0.00  0.00    +0.054 A 
ATOM     21 CL   UNL     1      -0.356  -9.294  -1.756  0.00  0.00    -0.083 Cl
ATOM     22 CL   UNL     1      -4.775 -10.963  -4.373  0.00  0.00    -0.083 Cl
ENDBRANCH  11  15
BRANCH   1  24
ATOM     23  N   UNL     1      -2.663  -2.068   2.026  0.00  0.00    -0.312 N 
ATOM     24  C   UNL     1      -2.571  -2.562   0.775  0.00  0.00    +0.218 C 
ATOM     25  O   UNL     1      -2.653  -1.817  -0.179  0.00  0.00    -0.275 OA
ATOM     26  H   UNL     1      -2.598  -2.663   2.788  0.00  0.00    +0.149 HD
BRANCH  23  27
ATOM     27  C   UNL     1      -2.862  -0.631   2.233  0.00  0.00    +0.148 C 
BRANCH  27  29
ATOM     28  C   UNL     1      -3.265   1.141   3.947  0.00  0.00    +0.053 C 
ATOM     29  C   UNL     1      -2.933  -0.337   3.732  0.00  0.00    +0.187 C 
BRANCH  29  30
ATOM     30  O   UNL     1      -1.672  -0.635   4.336  0.00  0.00    -0.488 OA
BRANCH  30  31
ATOM     31  C   UNL     1      -1.675  -0.916   5.666  0.00  0.00    +0.121 A 
ATOM     32  C   UNL     1      -0.480  -1.161   6.326  0.00  0.00    +0.049 A 
ATOM     33  C   UNL     1      -0.483  -1.446   7.678  0.00  0.00    +0.049 A 
ATOM     34  C   UNL     1      -1.681  -1.488   8.375  0.00  0.00    +0.120 A 
ATOM     35  C   UNL     1      -2.877  -1.242   7.715  0.00  0.00    +0.049 A 
ATOM     36  C   UNL     1      -2.873  -0.952   6.364  0.00  0.00    +0.049 A 
BRANCH  34  37
ATOM     37  O   UNL     1      -1.685  -1.769   9.705  0.00  0.00    -0.495 OA
ATOM     38  C   UNL     1      -2.955  -1.796  10.360  0.00  0.00    +0.277 C 
ENDBRANCH  34  37
ENDBRANCH  30  31
ENDBRANCH  29  30
ENDBRANCH  27  29
ENDBRANCH  23  27
ENDBRANCH   1  24
TORSDOF 7
