REMARK  Name = ZINC16922538
REMARK  7 active torsions:
REMARK  status: ('A' for Active; 'I' for Inactive)
REMARK    1  A    between atoms: C_4  and  O_27
REMARK    2  A    between atoms: C_5  and  C_7
REMARK    3  A    between atoms: N_11  and  C_15
REMARK    4  A    between atoms: C_15  and  C_16
REMARK    5  A    between atoms: N_18  and  C_19
REMARK    6  A    between atoms: C_22  and  C_25
REMARK    7  A    between atoms: O_27  and  C_28
REMARK                            x       y       z     vdW  Elec       q    Type
REMARK                         _______ _______ _______ _____ _____    ______ ____
ROOT
ATOM      1  C   UNL     1      -4.494  -1.577   1.317  0.00  0.00    +0.031 C 
ATOM      2  C   UNL     1      -3.921  -0.626   0.534  0.00  0.00    +0.077 C 
ATOM      3  C   UNL     1      -3.218   0.613   0.922  0.00  0.00    +0.259 C 
ATOM      4  O   UNL     1      -3.073   0.928   2.088  0.00  0.00    -0.269 OA
ATOM      5  N   UNL     1      -2.753   1.363  -0.063  0.00  0.00    -0.246 N 
ATOM      6  C   UNL     1      -2.920   1.013  -1.355  0.00  0.00    +0.121 C 
ATOM      7  S   UNL     1      -2.403   1.846  -2.758  0.00  0.00    -0.027 S 
ATOM      8  S   UNL     1      -3.810  -0.532  -1.247  0.00  0.00    -0.061 S 
ENDROOT
BRANCH   1  13
ATOM      9  C   UNL     1      -6.651  -3.460  -1.102  0.00  0.00    +0.001 A 
ATOM     10  C   UNL     1      -6.792  -4.675  -0.450  0.00  0.00    +0.004 A 
ATOM     11  C   UNL     1      -6.187  -4.887   0.774  0.00  0.00    +0.046 A 
ATOM     12  C   UNL     1      -5.430  -3.884   1.359  0.00  0.00    +0.134 A 
ATOM     13  C   UNL     1      -5.289  -2.649   0.706  0.00  0.00    +0.018 A 
ATOM     14  C   UNL     1      -5.907  -2.449  -0.535  0.00  0.00    +0.011 A 
BRANCH  12  15
ATOM     15  O   UNL     1      -4.831  -4.094   2.558  0.00  0.00    -0.434 OA
BRANCH  15  16
ATOM     16  C   UNL     1      -5.019  -5.375   3.163  0.00  0.00    +0.541 C 
ATOM     17  F   UNL     1      -6.384  -5.592   3.380  0.00  0.00    -0.166 F 
ATOM     18  F   UNL     1      -4.519  -6.369   2.314  0.00  0.00    -0.166 F 
ENDBRANCH  15  16
ENDBRANCH  12  15
ENDBRANCH   1  13
BRANCH   5  19
ATOM     19  C   UNL     1      -2.046   2.606   0.256  0.00  0.00    +0.211 C 
BRANCH  19  20
ATOM     20  C   UNL     1      -0.574   2.322   0.405  0.00  0.00    +0.235 C 
ATOM     21  O   UNL     1      -0.156   1.192   0.259  0.00  0.00    -0.274 OA
ATOM     22  N   UNL     1       0.280   3.324   0.695  0.00  0.00    -0.284 N 
ATOM     23  H   UNL     1      -0.042   4.237   0.739  0.00  0.00    +0.155 HD
BRANCH  22  24
ATOM     24  C   UNL     1       1.626   3.047   0.930  0.00  0.00    +0.033 A 
ATOM     25  C   UNL     1       1.989   1.869   1.575  0.00  0.00    +0.024 A 
ATOM     26  C   UNL     1       3.318   1.589   1.805  0.00  0.00    +0.017 A 
ATOM     27  C   UNL     1       4.301   2.497   1.399  0.00  0.00    +0.063 A 
ATOM     28  C   UNL     1       3.932   3.682   0.756  0.00  0.00    +0.017 A 
ATOM     29  C   UNL     1       2.602   3.952   0.525  0.00  0.00    +0.024 A 
BRANCH  27  30
ATOM     30  C   UNL     1       5.725   2.204   1.648  0.00  0.00    +0.387 C 
ATOM     31  O   UNL     1       6.578   2.993   1.294  0.00  0.00    -0.241 OA
ATOM     32  O   UNL     1       6.079   1.061   2.268  0.00  0.00    -0.241 OA
ENDBRANCH  27  30
ENDBRANCH  22  24
ENDBRANCH  19  20
ENDBRANCH   5  19
TORSDOF 7
