REMARK  Name = ZINC59888310
REMARK  11 active torsions:
REMARK  status: ('A' for Active; 'I' for Inactive)
REMARK    1  A    between atoms: C_1  and  C_2
REMARK    2  A    between atoms: C_2  and  C_3
REMARK    3  A    between atoms: C_2  and  C_4
REMARK    4  A    between atoms: C_4  and  C_6
REMARK    5  A    between atoms: C_4  and  N_18
REMARK    6  A    between atoms: C_12  and  C_14
REMARK    7  A    between atoms: C_14  and  C_15
REMARK    8  A    between atoms: C_14  and  C_16
REMARK    9  A    between atoms: C_14  and  C_17
REMARK   10  A    between atoms: N_18  and  S_19
REMARK   11  A    between atoms: S_19  and  C_22
REMARK                            x       y       z     vdW  Elec       q    Type
REMARK                         _______ _______ _______ _____ _____    ______ ____
ROOT
ATOM      1  C   UNL     1      -1.247  -0.827  -0.338  0.00  0.00    +0.165 C 
ENDROOT
BRANCH   1   2
ATOM      2  C   UNL     1      -1.740  -0.481  -1.719  0.00  0.00    +0.238 C 
ATOM      3  O   UNL     1      -2.006  -1.364  -2.507  0.00  0.00    -0.274 OA
ATOM      4  N   UNL     1      -1.887   0.810  -2.079  0.00  0.00    -0.262 N 
ATOM      5  C   UNL     1      -2.446   1.129  -3.311  0.00  0.00    +0.188 A 
ATOM      6  N   UNL     1      -2.894   0.324  -4.255  0.00  0.00    -0.126 NA
ATOM      7  N   UNL     1      -3.380   0.766  -5.334  0.00  0.00    -0.144 NA
ATOM      8  C   UNL     1      -3.441   2.069  -5.524  0.00  0.00    +0.109 A 
ATOM      9  S   UNL     1      -2.734   2.647  -3.987  0.00  0.00    -0.035 S 
ATOM     10  H   UNL     1      -1.603   1.516  -1.477  0.00  0.00    +0.157 HD
BRANCH   8  11
ATOM     11  C   UNL     1      -3.966   2.851  -6.700  0.00  0.00    +0.013 C 
ATOM     12  C   UNL     1      -5.444   2.522  -6.914  0.00  0.00    +0.018 C 
ATOM     13  C   UNL     1      -3.810   4.349  -6.428  0.00  0.00    +0.018 C 
ATOM     14  C   UNL     1      -3.174   2.477  -7.955  0.00  0.00    +0.018 C 
ENDBRANCH   8  11
ENDBRANCH   1   2
BRANCH   1  16
ATOM     15  C   UNL     1       0.741  -0.829   1.176  0.00  0.00    +0.009 C 
ATOM     16  C   UNL     1       0.251  -0.529  -0.242  0.00  0.00    +0.010 C 
ATOM     17  C   UNL     1       1.010  -1.406  -1.240  0.00  0.00    +0.009 C 
ENDBRANCH   1  16
BRANCH   1  18
ATOM     18  N   UNL     1      -1.479  -2.250  -0.079  0.00  0.00    -0.178 NA
ATOM     19  H   UNL     1      -0.844  -2.911  -0.395  0.00  0.00    +0.149 HD
BRANCH  18  20
ATOM     20  S   UNL     1      -2.828  -2.730   0.754  0.00  0.00    +0.062 S 
ATOM     21  O   UNL     1      -2.757  -4.146   0.859  0.00  0.00    -0.153 OA
ATOM     22  O   UNL     1      -2.924  -1.886   1.893  0.00  0.00    -0.153 OA
BRANCH  20  23
ATOM     23  C   UNL     1      -4.223  -2.370  -0.260  0.00  0.00    +0.140 A 
ATOM     24  C   UNL     1      -4.968  -3.400  -0.803  0.00  0.00    +0.031 A 
ATOM     25  C   UNL     1      -6.062  -3.117  -1.598  0.00  0.00    +0.002 A 
ATOM     26  C   UNL     1      -6.413  -1.804  -1.852  0.00  0.00    +0.003 A 
ATOM     27  C   UNL     1      -5.670  -0.773  -1.310  0.00  0.00    +0.040 A 
ATOM     28  C   UNL     1      -4.576  -1.055  -0.509  0.00  0.00    +0.150 A 
ATOM     29  F   UNL     1      -3.852  -0.047   0.025  0.00  0.00    -0.203 F 
ENDBRANCH  20  23
ENDBRANCH  18  20
ENDBRANCH   1  18
TORSDOF 6
