REMARK  Name = ZINC12895603
REMARK  4 active torsions:
REMARK  status: ('A' for Active; 'I' for Inactive)
REMARK    1  A    between atoms: N_4  and  C_6
REMARK    2  A    between atoms: C_7  and  C_15
REMARK    3  A    between atoms: N_17  and  C_18
REMARK    4  A    between atoms: C_22  and  N_24
REMARK                            x       y       z     vdW  Elec       q    Type
REMARK                         _______ _______ _______ _____ _____    ______ ____
ROOT
ATOM      1  C   UNL     1       2.889   3.963  -0.433  0.00  0.00    +0.097 A 
ATOM      2  C   UNL     1       1.598   3.473  -0.461  0.00  0.00    +0.072 A 
ATOM      3  C   UNL     1       1.372   2.100  -0.006  0.00  0.00    -0.021 A 
ATOM      4  C   UNL     1       2.481   1.452   0.391  0.00  0.00    +0.006 A 
ATOM      5  S   UNL     1       3.799   2.627   0.184  0.00  0.00    -0.074 S 
ATOM      6  C   UNL     1       2.650   0.049   0.905  0.00  0.00    +0.111 C 
ATOM      7  S   UNL     1       1.010  -0.594   1.361  0.00  0.00    -0.155 S 
ATOM      8  C   UNL     1      -0.018  -0.005  -0.021  0.00  0.00    +0.074 C 
ATOM      9  C   UNL     1      -0.033   1.518  -0.005  0.00  0.00    +0.047 C 
ENDROOT
BRANCH   1  13
ATOM     10  C   UNL     1       3.372   7.294  -1.544  0.00  0.00    +0.019 A 
ATOM     11  C   UNL     1       4.688   6.918  -1.204  0.00  0.00    +0.019 A 
ATOM     12  C   UNL     1       4.644   5.647  -0.758  0.00  0.00    +0.092 A 
ATOM     13  N   UNL     1       3.346   5.221  -0.810  0.00  0.00    -0.317 N 
ATOM     14  C   UNL     1       2.572   6.237  -1.298  0.00  0.00    +0.092 A 
ENDBRANCH   1  13
BRANCH   2  15
ATOM     15  C   UNL     1       0.485   4.303  -0.934  0.00  0.00    +0.251 C 
ATOM     16  O   UNL     1       0.178   4.297  -2.111  0.00  0.00    -0.270 OA
ATOM     17  N   UNL     1      -0.198   5.074  -0.064  0.00  0.00    -0.281 N 
ATOM     18  H   UNL     1       0.003   5.029   0.884  0.00  0.00    +0.155 HD
BRANCH  17  19
ATOM     19  C   UNL     1      -1.196   5.939  -0.528  0.00  0.00    +0.036 A 
ATOM     20  C   UNL     1      -1.396   7.165   0.091  0.00  0.00    +0.026 A 
ATOM     21  C   UNL     1      -2.377   8.020  -0.372  0.00  0.00    +0.042 A 
ATOM     22  C   UNL     1      -3.169   7.649  -1.446  0.00  0.00    +0.154 A 
ATOM     23  C   UNL     1      -2.975   6.424  -2.061  0.00  0.00    +0.163 A 
ATOM     24  C   UNL     1      -1.990   5.569  -1.605  0.00  0.00    +0.059 A 
ATOM     25  F   UNL     1      -4.132   8.484  -1.894  0.00  0.00    -0.203 F 
BRANCH  23  26
ATOM     26  N   UNL     1      -3.822   6.030  -3.209  0.00  0.00    +0.059 N 
ATOM     27  O   UNL     1      -3.651   4.952  -3.751  0.00  0.00    -0.126 OA
ATOM     28  O   UNL     1      -4.690   6.783  -3.611  0.00  0.00    -0.126 OA
ENDBRANCH  23  26
ENDBRANCH  17  19
ENDBRANCH   2  15
TORSDOF 4
