REMARK  Name = ZINC06149603
REMARK  13 active torsions:
REMARK  status: ('A' for Active; 'I' for Inactive)
REMARK    1  A    between atoms: C_1  and  C_2
REMARK    2  A    between atoms: C_2  and  C_3
REMARK    3  A    between atoms: C_3  and  C_4
REMARK    4  A    between atoms: C_3  and  C_5
REMARK    5  A    between atoms: C_3  and  N_6
REMARK    6  A    between atoms: C_7  and  C_11
REMARK    7  A    between atoms: C_11  and  C_13
REMARK    8  A    between atoms: C_11  and  N_69
REMARK    9  A    between atoms: C_19  and  C_25
REMARK   10  A    between atoms: C_26  and  C_27
REMARK   11  A    between atoms: C_26  and  N_69
REMARK   12  A    between atoms: C_34  and  C_35
REMARK   13  A    between atoms: C_34  and  N_69
REMARK                            x       y       z     vdW  Elec       q    Type
REMARK                         _______ _______ _______ _____ _____    ______ ____
ROOT
ATOM      1  C   UNL     1       0.308  -2.352   3.739  0.00  0.00    +0.040 C 
ENDROOT
BRANCH   1   2
ATOM      2  C   UNL     1       0.169  -1.653   2.412  0.00  0.00    +0.011 A 
ATOM      3  C   UNL     1       0.056  -2.381   1.273  0.00  0.00    +0.017 A 
ATOM      4  C   UNL     1      -0.078  -1.671  -0.000  0.00  0.00    -0.001 A 
ATOM      5  C   UNL     1      -0.198  -2.367  -1.208  0.00  0.00    +0.010 A 
ATOM      6  C   UNL     1      -0.321  -1.675  -2.379  0.00  0.00    +0.001 A 
ATOM      7  C   UNL     1      -0.334  -0.287  -2.381  0.00  0.00    +0.005 A 
ATOM      8  C   UNL     1      -0.212   0.420  -1.205  0.00  0.00    -0.026 A 
ATOM      9  C   UNL     1      -0.085  -0.263   0.001  0.00  0.00    +0.052 A 
ATOM     10  N   UNL     1       0.035   0.418   1.193  0.00  0.00    -0.322 N 
ATOM     11  H   UNL     1       0.030   1.418   1.192  0.00  0.00    +0.169 HD
ATOM     12  C   UNL     1       0.156  -0.242   2.358  0.00  0.00    +0.251 A 
ATOM     13  O   UNL     1       0.259   0.393   3.393  0.00  0.00    -0.268 OA
ATOM     14  C   UNL     1      -0.221   1.927  -1.223  0.00  0.00    +0.046 C 
ENDBRANCH   1   2
BRANCH   1  16
ATOM     15  N   UNL     1       2.720  -2.877   4.381  0.00  0.00    -0.225 N 
ATOM     16  C   UNL     1       1.662  -2.047   4.328  0.00  0.00    +0.143 A 
ATOM     17  N   UNL     1       2.038  -0.921   4.882  0.00  0.00    -0.115 NA
ATOM     18  N   UNL     1       3.261  -1.054   5.264  0.00  0.00    -0.023 NA
ATOM     19  N   UNL     1       3.678  -2.234   4.960  0.00  0.00    -0.043 NA
BRANCH  15  20
ATOM     20  C   UNL     1       2.775  -4.251   3.878  0.00  0.00    +0.061 C 
ATOM     21  C   UNL     1       1.787  -5.120   4.659  0.00  0.00    +0.036 C 
ATOM     22  C   UNL     1       2.404  -4.266   2.394  0.00  0.00    +0.036 C 
BRANCH  20  24
ATOM     23  C   UNL     1       4.248  -6.239   3.529  0.00  0.00    +0.006 C 
ATOM     24  C   UNL     1       4.191  -4.803   4.055  0.00  0.00    +0.026 C 
ENDBRANCH  20  24
ENDBRANCH  15  20
ENDBRANCH   1  16
BRANCH   1  25
ATOM     25  N   UNL     1      -0.737  -1.853   4.658  0.00  0.00    +0.397 N 
ATOM     26  H   UNL     1      -0.590  -0.850   4.817  0.00  0.00    -0.079 HD
BRANCH  25  27
ATOM     27  C   UNL     1      -0.651  -2.562   5.952  0.00  0.00    -0.039 C 
BRANCH  27  28
ATOM     28  C   UNL     1       0.443  -1.932   6.775  0.00  0.00    -0.046 A 
ATOM     29  C   UNL     1       1.626  -2.613   6.989  0.00  0.00    +0.003 A 
ATOM     30  C   UNL     1       2.631  -2.034   7.740  0.00  0.00    +0.000 A 
ATOM     31  C   UNL     1       2.450  -0.776   8.286  0.00  0.00    +0.001 A 
ATOM     32  C   UNL     1       1.265  -0.097   8.078  0.00  0.00    +0.020 A 
ATOM     33  C   UNL     1       0.260  -0.674   7.322  0.00  0.00    +0.042 A 
ATOM     34 CL   UNL     1      -1.229   0.178   7.061  0.00  0.00    -0.083 Cl
ENDBRANCH  27  28
ENDBRANCH  25  27
BRANCH  25  35
ATOM     35  C   UNL     1      -2.073  -2.054   4.059  0.00  0.00    -0.001 C 
BRANCH  35  36
ATOM     36  C   UNL     1      -3.075  -1.229   4.825  0.00  0.00    +0.089 A 
ATOM     37  C   UNL     1      -3.471   0.018   4.513  0.00  0.00    +0.042 A 
ATOM     38  C   UNL     1      -4.414   0.405   5.492  0.00  0.00    +0.041 A 
ATOM     39  C   UNL     1      -4.538  -0.628   6.345  0.00  0.00    +0.195 A 
ATOM     40  O   UNL     1      -3.729  -1.617   5.932  0.00  0.00    -0.470 OA
ENDBRANCH  35  36
ENDBRANCH  25  35
ENDBRANCH   1  25
TORSDOF 9
