REMARK  Name = ZINC66671512
REMARK  12 active torsions:
REMARK  status: ('A' for Active; 'I' for Inactive)
REMARK    1  A    between atoms: C_1  and  C_2
REMARK    2  A    between atoms: C_2  and  C_3
REMARK    3  A    between atoms: C_3  and  C_4
REMARK    4  A    between atoms: C_3  and  C_6
REMARK    5  A    between atoms: C_3  and  O_25
REMARK    6  A    between atoms: C_4  and  C_5
REMARK    7  A    between atoms: C_6  and  N_7
REMARK    8  A    between atoms: N_10  and  C_11
REMARK    9  A    between atoms: C_14  and  S_18
REMARK   10  A    between atoms: C_16  and  C_17
REMARK   11  A    between atoms: S_18  and  C_19
REMARK   12  A    between atoms: C_21  and  C_24
REMARK                            x       y       z     vdW  Elec       q    Type
REMARK                         _______ _______ _______ _____ _____    ______ ____
ROOT
ATOM      1  N   UNL     1       2.233   1.507   1.527  0.00  0.00    -0.296 N 
ATOM      2  C   UNL     1       3.396   2.172   1.667  0.00  0.00    +0.304 C 
ATOM      3  O   UNL     1       4.452   1.587   1.527  0.00  0.00    -0.253 OA
ATOM      4  N   UNL     1       3.389   3.487   1.964  0.00  0.00    -0.269 N 
ATOM      5  H   UNL     1       1.390   1.974   1.639  0.00  0.00    +0.150 HD
ATOM      6  H   UNL     1       2.550   3.939   2.144  0.00  0.00    +0.156 HD
ENDROOT
BRANCH   4   7
ATOM      7  C   UNL     1       4.594   4.202   2.011  0.00  0.00    +0.038 A 
ATOM      8  C   UNL     1       5.777   3.546   2.326  0.00  0.00    +0.025 A 
ATOM      9  C   UNL     1       6.964   4.249   2.373  0.00  0.00    +0.017 A 
ATOM     10  C   UNL     1       6.975   5.613   2.105  0.00  0.00    +0.015 A 
ATOM     11  C   UNL     1       5.791   6.268   1.791  0.00  0.00    +0.020 A 
ATOM     12  C   UNL     1       4.605   5.563   1.738  0.00  0.00    -0.028 A 
ATOM     13  C   UNL     1       3.322   6.272   1.391  0.00  0.00    +0.046 C 
BRANCH  10  14
ATOM     14  S   UNL     1       8.490   6.511   2.166  0.00  0.00    -0.063 S 
BRANCH  14  15
ATOM     15  C   UNL     1       9.045   6.523   0.493  0.00  0.00    +0.139 A 
ATOM     16  N   UNL     1      10.178   6.989   0.011  0.00  0.00    -0.238 NA
ATOM     17  C   UNL     1      10.447   6.922  -1.280  0.00  0.00    +0.047 A 
ATOM     18  C   UNL     1       9.509   6.357  -2.077  0.00  0.00    +0.070 A 
ATOM     19  S   UNL     1       8.258   5.937  -0.874  0.00  0.00    -0.069 S 
ATOM     20  C   UNL     1      11.741   7.453  -1.843  0.00  0.00    +0.066 C 
ENDBRANCH  14  15
ENDBRANCH  10  14
ENDBRANCH   4   7
BRANCH   1  21
ATOM     21  C   UNL     1       2.240   0.078   1.205  0.00  0.00    +0.140 C 
BRANCH  21  22
ATOM     22  C   UNL     1       0.808  -0.458   1.230  0.00  0.00    +0.081 C 
BRANCH  22  24
ATOM     23  C   UNL     1       1.464  -2.271  -0.359  0.00  0.00    +0.007 C 
ATOM     24  C   UNL     1       0.825  -1.971   0.999  0.00  0.00    +0.033 C 
ENDBRANCH  22  24
BRANCH  22  25
ATOM     25  C   UNL     1       0.174  -0.158   2.590  0.00  0.00    +0.033 C 
ATOM     26  C   UNL     1      -1.212  -0.802   2.661  0.00  0.00    +0.007 C 
ENDBRANCH  22  25
BRANCH  22  27
ATOM     27  O   UNL     1       0.045   0.173   0.200  0.00  0.00    -0.387 OA
ATOM     28  H   UNL     1      -0.009   1.135   0.283  0.00  0.00    +0.210 HD
ENDBRANCH  22  27
ENDBRANCH  21  22
ENDBRANCH   1  21
TORSDOF 8
