REMARK  Name = ZINC40043554
REMARK  11 active torsions:
REMARK  status: ('A' for Active; 'I' for Inactive)
REMARK    1  A    between atoms: C_1  and  C_2
REMARK    2  A    between atoms: C_4  and  C_39
REMARK    3  A    between atoms: N_15  and  C_29
REMARK    4  A    between atoms: C_16  and  C_18
REMARK    5  A    between atoms: C_21  and  O_24
REMARK    6  A    between atoms: O_24  and  C_25
REMARK    7  A    between atoms: C_25  and  C_26
REMARK    8  A    between atoms: C_29  and  C_30
REMARK    9  A    between atoms: C_30  and  C_31
REMARK   10  A    between atoms: C_34  and  O_37
REMARK   11  A    between atoms: O_37  and  C_38
REMARK                            x       y       z     vdW  Elec       q    Type
REMARK                         _______ _______ _______ _____ _____    ______ ____
ROOT
ATOM      1  C   UNL     1      -0.018   1.503   0.010  0.00  0.00    +0.044 C 
ATOM      2  C   UNL     1       0.002  -0.004   0.002  0.00  0.00    -0.049 A 
ATOM      3  C   UNL     1       0.006  -0.689  -1.205  0.00  0.00    +0.010 A 
ATOM      4  C   UNL     1       0.021  -2.065  -1.235  0.00  0.00    -0.007 A 
ATOM      5  C   UNL     1       0.035  -2.790  -0.043  0.00  0.00    +0.142 A 
ATOM      6  C   UNL     1       0.037  -2.086   1.172  0.00  0.00    +0.065 A 
ATOM      7  C   UNL     1       0.023  -0.692   1.183  0.00  0.00    +0.018 A 
ATOM      8  C   UNL     1       0.068  -2.849   2.446  0.00  0.00    +0.199 A 
ATOM      9  O   UNL     1      -0.097  -2.332   3.537  0.00  0.00    -0.287 OA
ATOM     10  C   UNL     1       0.314  -4.283   2.265  0.00  0.00    +0.072 A 
ATOM     11  C   UNL     1       0.294  -4.850   1.022  0.00  0.00    +0.199 A 
ATOM     12  O   UNL     1       0.043  -4.141  -0.096  0.00  0.00    -0.449 OA
ATOM     13  C   UNL     1       0.583  -6.288   1.166  0.00  0.00    +0.283 C 
ATOM     14  O   UNL     1       0.643  -7.081   0.247  0.00  0.00    -0.267 OA
ATOM     15  N   UNL     1       0.770  -6.596   2.465  0.00  0.00    -0.283 N 
ATOM     16  C   UNL     1       0.614  -5.362   3.253  0.00  0.00    +0.144 C 
ATOM     17  C   UNL     1       0.023  -2.790  -2.557  0.00  0.00    +0.047 C 
ENDROOT
BRANCH  16  18
ATOM     18  C   UNL     1       1.891  -5.051   3.990  0.00  0.00    -0.022 A 
ATOM     19  C   UNL     1       3.112  -5.281   3.384  0.00  0.00    +0.009 A 
ATOM     20  C   UNL     1       4.284  -4.997   4.058  0.00  0.00    +0.046 A 
ATOM     21  C   UNL     1       4.235  -4.481   5.344  0.00  0.00    +0.121 A 
ATOM     22  C   UNL     1       3.009  -4.251   5.951  0.00  0.00    +0.046 A 
ATOM     23  C   UNL     1       1.840  -4.532   5.271  0.00  0.00    +0.009 A 
BRANCH  21  24
ATOM     24  O   UNL     1       5.387  -4.201   6.010  0.00  0.00    -0.483 OA
BRANCH  24  25
ATOM     25  C   UNL     1       5.260  -3.672   7.331  0.00  0.00    +0.324 C 
BRANCH  25  26
ATOM     26  C   UNL     1       6.631  -3.426   7.907  0.00  0.00    +0.248 C 
ATOM     27  O   UNL     1       7.619  -3.679   7.250  0.00  0.00    -0.272 OA
ATOM     28  N   UNL     1       6.759  -2.925   9.152  0.00  0.00    -0.327 N 
ATOM     29  H   UNL     1       5.969  -2.723   9.677  0.00  0.00    +0.145 HD
ATOM     30  H   UNL     1       7.641  -2.767   9.522  0.00  0.00    +0.145 HD
ENDBRANCH  25  26
ENDBRANCH  24  25
ENDBRANCH  21  24
ENDBRANCH  16  18
BRANCH  15  31
ATOM     31  C   UNL     1       1.076  -7.926   2.999  0.00  0.00    +0.114 C 
BRANCH  31  32
ATOM     32  C   UNL     1       2.593  -8.120   3.045  0.00  0.00    +0.054 C 
BRANCH  32  33
ATOM     33  C   UNL     1       2.907  -9.488   3.595  0.00  0.00    -0.046 A 
ATOM     34  C   UNL     1       3.070  -9.664   4.956  0.00  0.00    +0.007 A 
ATOM     35  C   UNL     1       3.358 -10.917   5.463  0.00  0.00    +0.046 A 
ATOM     36  C   UNL     1       3.484 -11.999   4.603  0.00  0.00    +0.120 A 
ATOM     37  C   UNL     1       3.320 -11.819   3.237  0.00  0.00    +0.046 A 
ATOM     38  C   UNL     1       3.027 -10.566   2.737  0.00  0.00    +0.007 A 
BRANCH  36  39
ATOM     39  O   UNL     1       3.769 -13.232   5.099  0.00  0.00    -0.495 OA
ATOM     40  C   UNL     1       3.884 -14.299   4.155  0.00  0.00    +0.277 C 
ENDBRANCH  36  39
ENDBRANCH  32  33
ENDBRANCH  31  32
ENDBRANCH  15  31
TORSDOF 8
