REMARK  Name = ZINC39302171
REMARK  4 active torsions:
REMARK  status: ('A' for Active; 'I' for Inactive)
REMARK    1  A    between atoms: C_13  and  C_15
REMARK    2  A    between atoms: C_21  and  C_23
REMARK    3  A    between atoms: N_25  and  C_26
REMARK    4  A    between atoms: C_32  and  N_34
REMARK                            x       y       z     vdW  Elec       q    Type
REMARK                         _______ _______ _______ _____ _____    ______ ____
ROOT
ATOM      1  C   UNL     1      -0.032  -6.653   1.157  0.00  0.00    +0.091 C 
ATOM      2  C   UNL     1      -0.790  -6.402  -0.149  0.00  0.00    +0.040 C 
ATOM      3  C   UNL     1      -1.930  -7.369  -0.279  0.00  0.00    -0.030 C 
ATOM      4  C   UNL     1      -2.036  -8.461   0.407  0.00  0.00    -0.030 C 
ATOM      5  C   UNL     1      -1.039  -8.909   1.435  0.00  0.00    +0.040 C 
ATOM      6  C   UNL     1       0.278  -8.152   1.262  0.00  0.00    +0.091 C 
ENDROOT
BRANCH   1  19
ATOM      7  C   UNL     1       0.427   0.649   4.650  0.00  0.00    +0.005 A 
ATOM      8  C   UNL     1       1.643   1.321   4.662  0.00  0.00    +0.018 A 
ATOM      9  C   UNL     1       2.785   0.660   4.258  0.00  0.00    +0.084 A 
ATOM     10  N   UNL     1       2.735  -0.598   3.862  0.00  0.00    -0.350 N 
ATOM     11  C   UNL     1       1.596  -1.273   3.837  0.00  0.00    +0.099 A 
ATOM     12  C   UNL     1       0.406  -0.668   4.231  0.00  0.00    +0.042 A 
ATOM     13  N   UNL     1       1.589  -2.596   3.413  0.00  0.00    -0.314 N 
ATOM     14  C   UNL     1       0.365  -3.405   3.504  0.00  0.00    +0.125 C 
ATOM     15  C   UNL     1       0.045  -3.968   2.114  0.00  0.00    +0.126 C 
ATOM     16  N   UNL     1       1.261  -4.585   1.566  0.00  0.00    -0.298 N 
ATOM     17  C   UNL     1       2.485  -3.776   1.475  0.00  0.00    +0.126 C 
ATOM     18  C   UNL     1       2.804  -3.211   2.860  0.00  0.00    +0.125 C 
ATOM     19  C   UNL     1       1.254  -5.868   1.155  0.00  0.00    +0.220 C 
ATOM     20  O   UNL     1       2.283  -6.391   0.784  0.00  0.00    -0.275 OA
ATOM     21  H   UNL     1       3.552  -1.039   3.584  0.00  0.00    +0.166 HD
ENDBRANCH   1  19
BRANCH   6  22
ATOM     22  C   UNL     1       1.171  -8.402   2.450  0.00  0.00    +0.217 C 
ATOM     23  O   UNL     1       1.527  -7.475   3.147  0.00  0.00    -0.275 OA
ATOM     24  N   UNL     1       1.574  -9.655   2.738  0.00  0.00    -0.311 N 
ATOM     25  H   UNL     1       1.290 -10.396   2.180  0.00  0.00    +0.149 HD
BRANCH  24  26
ATOM     26  C   UNL     1       2.442  -9.899   3.893  0.00  0.00    +0.090 C 
ATOM     27  C   UNL     1       3.901  -9.679   3.489  0.00  0.00    +0.024 C 
ATOM     28  C   UNL     1       4.808  -9.933   4.695  0.00  0.00    +0.002 C 
ATOM     29  C   UNL     1       4.623 -11.373   5.177  0.00  0.00    +0.002 C 
ATOM     30  C   UNL     1       3.164 -11.593   5.581  0.00  0.00    +0.021 C 
ATOM     31  C   UNL     1       2.257 -11.339   4.375  0.00  0.00    +0.077 C 
BRANCH  31  32
ATOM     32  N   UNL     1       0.856 -11.550   4.763  0.00  0.00    -0.293 NA
ATOM     33  C   UNL     1       0.476 -10.658   5.868  0.00  0.00    +0.113 C 
ATOM     34  C   UNL     1      -1.004 -10.868   6.199  0.00  0.00    +0.175 C 
ATOM     35  O   UNL     1      -1.226 -12.246   6.513  0.00  0.00    -0.377 OA
ATOM     36  C   UNL     1      -0.867 -13.142   5.458  0.00  0.00    +0.175 C 
ATOM     37  C   UNL     1       0.614 -12.955   5.119  0.00  0.00    +0.113 C 
ENDBRANCH  31  32
ENDBRANCH  24  26
ENDBRANCH   6  22
TORSDOF 4
