REMARK  Name = ZINC02253237
REMARK  6 active torsions:
REMARK  status: ('A' for Active; 'I' for Inactive)
REMARK    1  A    between atoms: C_1  and  C_2
REMARK    2  A    between atoms: C_9  and  N_24
REMARK    3  A    between atoms: C_10  and  C_13
REMARK    4  A    between atoms: N_17  and  C_21
REMARK    5  A    between atoms: C_21  and  C_22
REMARK    6  A    between atoms: N_27  and  C_30
REMARK                            x       y       z     vdW  Elec       q    Type
REMARK                         _______ _______ _______ _____ _____    ______ ____
ROOT
ATOM      1  C   UNL     1      -6.737  -5.067   2.389  0.00  0.00    +0.047 C 
ATOM      2  C   UNL     1      -5.659  -4.014   2.406  0.00  0.00    -0.007 A 
ATOM      3  C   UNL     1      -5.004  -3.720   3.565  0.00  0.00    +0.008 A 
ATOM      4  C   UNL     1      -4.003  -2.739   3.564  0.00  0.00    +0.019 A 
ATOM      5  C   UNL     1      -3.691  -2.089   2.420  0.00  0.00    +0.096 A 
ATOM      6  N   UNL     1      -4.340  -2.376   1.255  0.00  0.00    -0.267 N 
ATOM      7  C   UNL     1      -5.321  -3.328   1.225  0.00  0.00    +0.145 A 
ATOM      8  N   UNL     1      -5.966  -3.623   0.096  0.00  0.00    -0.213 NA
ATOM      9  C   UNL     1      -5.688  -3.009  -1.045  0.00  0.00    +0.136 A 
ATOM     10  C   UNL     1      -4.683  -2.014  -1.074  0.00  0.00    +0.081 A 
ATOM     11  C   UNL     1      -4.000  -1.713   0.129  0.00  0.00    +0.267 A 
ATOM     12  O   UNL     1      -3.123  -0.866   0.149  0.00  0.00    -0.267 OA
ENDROOT
BRANCH  10  13
ATOM     13  C   UNL     1      -4.364  -1.340  -2.276  0.00  0.00    +0.037 C 
ATOM     14  C   UNL     1      -4.622  -0.006  -2.400  0.00  0.00    +0.077 C 
ATOM     15  C   UNL     1      -5.255   0.883  -1.485  0.00  0.00    +0.259 C 
ATOM     16  O   UNL     1      -5.661   0.488  -0.406  0.00  0.00    -0.269 OA
ATOM     17  N   UNL     1      -5.390   2.149  -1.839  0.00  0.00    -0.252 N 
ATOM     18  C   UNL     1      -4.945   2.587  -3.038  0.00  0.00    +0.121 C 
ATOM     19  S   UNL     1      -5.019   4.163  -3.701  0.00  0.00    -0.027 S 
ATOM     20  S   UNL     1      -4.257   1.102  -3.755  0.00  0.00    -0.061 S 
BRANCH  17  21
ATOM     21  C   UNL     1      -6.037   3.091  -0.922  0.00  0.00    +0.141 C 
BRANCH  21  22
ATOM     22  C   UNL     1      -4.998   3.711  -0.024  0.00  0.00    -0.015 C 
ATOM     23  C   UNL     1      -4.883   5.015   0.041  0.00  0.00    +0.005 C 
ENDBRANCH  21  22
ENDBRANCH  17  21
ENDBRANCH  10  13
BRANCH   9  24
ATOM     24  N   UNL     1      -6.373  -3.337  -2.194  0.00  0.00    -0.312 N 
ATOM     25  C   UNL     1      -7.189  -2.208  -2.662  0.00  0.00    +0.125 C 
ATOM     26  C   UNL     1      -7.869  -2.585  -3.980  0.00  0.00    +0.124 C 
ATOM     27  N   UNL     1      -8.698  -3.781  -3.776  0.00  0.00    -0.327 N 
ATOM     28  C   UNL     1      -7.882  -4.910  -3.308  0.00  0.00    +0.124 C 
ATOM     29  C   UNL     1      -7.202  -4.533  -1.990  0.00  0.00    +0.125 C 
BRANCH  27  30
ATOM     30  C   UNL     1      -9.393  -4.114  -4.942  0.00  0.00    +0.030 A 
ATOM     31  C   UNL     1      -9.249  -5.377  -5.501  0.00  0.00    +0.026 A 
ATOM     32  C   UNL     1      -9.940  -5.705  -6.651  0.00  0.00    +0.040 A 
ATOM     33  C   UNL     1     -10.768  -4.773  -7.252  0.00  0.00    +0.124 A 
ATOM     34  C   UNL     1     -10.909  -3.511  -6.700  0.00  0.00    +0.040 A 
ATOM     35  C   UNL     1     -10.224  -3.180  -5.547  0.00  0.00    +0.026 A 
ATOM     36  F   UNL     1     -11.440  -5.095  -8.380  0.00  0.00    -0.205 F 
ENDBRANCH  27  30
ENDBRANCH   9  24
TORSDOF 5
