REMARK  Name = ZINC22401782
REMARK  10 active torsions:
REMARK  status: ('A' for Active; 'I' for Inactive)
REMARK    1  A    between atoms: C_1  and  N_2
REMARK    2  A    between atoms: N_2  and  C_3
REMARK    3  A    between atoms: C_9  and  O_11
REMARK    4  A    between atoms: C_12  and  C_14
REMARK    5  A    between atoms: C_14  and  N_15
REMARK    6  A    between atoms: N_15  and  C_16
REMARK    7  A    between atoms: N_15  and  S_31
REMARK    8  A    between atoms: C_19  and  S_22
REMARK    9  A    between atoms: S_22  and  N_25
REMARK   10  A    between atoms: S_31  and  C_34
REMARK                            x       y       z     vdW  Elec       q    Type
REMARK                         _______ _______ _______ _____ _____    ______ ____
ROOT
ATOM      1  N   UNL     1      -0.673   5.726  -5.322  0.00  0.00    -0.199 N 
ENDROOT
BRANCH   1   2
ATOM      2  C   UNL     1       0.025   5.165  -6.393  0.00  0.00    +0.052 A 
ATOM      3  C   UNL     1       1.337   5.546  -6.646  0.00  0.00    +0.026 A 
ATOM      4  C   UNL     1       2.025   4.986  -7.704  0.00  0.00    +0.030 A 
ATOM      5  C   UNL     1       1.407   4.053  -8.517  0.00  0.00    +0.106 A 
ATOM      6  C   UNL     1       0.100   3.675  -8.271  0.00  0.00    +0.030 A 
ATOM      7  C   UNL     1      -0.593   4.228  -7.212  0.00  0.00    +0.026 A 
BRANCH   5   8
ATOM      8  S   UNL     1       2.288   3.346  -9.870  0.00  0.00    +0.061 S 
ATOM      9  O   UNL     1       3.670   3.459  -9.559  0.00  0.00    -0.153 OA
ATOM     10  O   UNL     1       1.669   2.097 -10.148  0.00  0.00    -0.153 OA
BRANCH   8  11
ATOM     11  N   UNL     1       2.018   4.312 -11.188  0.00  0.00    -0.172 NA
ATOM     12  C   UNL     1       0.886   4.060 -12.092  0.00  0.00    +0.137 C 
ATOM     13  C   UNL     1       0.119   5.379 -12.278  0.00  0.00    +0.177 C 
ATOM     14  O   UNL     1       1.034   6.402 -12.678  0.00  0.00    -0.377 OA
ATOM     15  C   UNL     1       2.046   6.692 -11.710  0.00  0.00    +0.177 C 
ATOM     16  C   UNL     1       2.909   5.443 -11.492  0.00  0.00    +0.137 C 
ENDBRANCH   8  11
ENDBRANCH   5   8
ENDBRANCH   1   2
BRANCH   1  17
ATOM     17  S   UNL     1      -0.872   7.368  -5.232  0.00  0.00    +0.043 S 
ATOM     18  O   UNL     1      -0.669   7.830  -6.560  0.00  0.00    -0.155 OA
ATOM     19  O   UNL     1      -2.124   7.546  -4.585  0.00  0.00    -0.155 OA
ATOM     20  C   UNL     1       0.473   7.942  -4.158  0.00  0.00    +0.218 C 
ENDBRANCH   1  17
BRANCH   1  21
ATOM     21  C   UNL     1      -1.229   4.863  -4.277  0.00  0.00    +0.227 C 
BRANCH  21  24
ATOM     22  C   UNL     1      -1.797   3.227  -2.033  0.00  0.00    +0.132 C 
ATOM     23  N   UNL     1      -0.454   3.793  -2.185  0.00  0.00    -0.298 N 
ATOM     24  C   UNL     1      -0.168   4.573  -3.247  0.00  0.00    +0.235 C 
ATOM     25  O   UNL     1       0.943   5.042  -3.373  0.00  0.00    -0.274 OA
BRANCH  23  26
ATOM     26  C   UNL     1       0.577   3.512  -1.184  0.00  0.00    +0.104 C 
ATOM     27  C   UNL     1       0.819   2.003  -1.110  0.00  0.00    +0.025 C 
ATOM     28  C   UNL     1       1.896   1.709  -0.064  0.00  0.00    +0.002 C 
ATOM     29  C   UNL     1       1.433   2.219   1.302  0.00  0.00    +0.003 C 
ATOM     30  C   UNL     1       1.191   3.728   1.228  0.00  0.00    +0.033 C 
ATOM     31  C   UNL     1       0.114   4.022   0.183  0.00  0.00    +0.135 C 
BRANCH  31  32
ATOM     32  O   UNL     1      -0.112   5.431   0.114  0.00  0.00    -0.390 OA
ATOM     33  H   UNL     1      -0.451   5.978   1.006  0.00  0.00    +0.210 HD
ENDBRANCH  31  32
ENDBRANCH  23  26
ENDBRANCH  21  24
ENDBRANCH   1  21
TORSDOF 8
