REMARK  Name = ZINC00921010
REMARK  8 active torsions:
REMARK  status: ('A' for Active; 'I' for Inactive)
REMARK    1  A    between atoms: C_1  and  C_2
REMARK    2  A    between atoms: C_2  and  C_3
REMARK    3  A    between atoms: C_2  and  C_4
REMARK    4  A    between atoms: C_2  and  C_5
REMARK    5  A    between atoms: C_12  and  N_17
REMARK    6  A    between atoms: C_13  and  C_14
REMARK    7  A    between atoms: C_18  and  C_20
REMARK    8  A    between atoms: C_23  and  N_26
REMARK                            x       y       z     vdW  Elec       q    Type
REMARK                         _______ _______ _______ _____ _____    ______ ____
ROOT
ATOM      1  C   UNL     1      -1.050 -11.318  -0.436  0.00  0.00    -0.000 C 
ATOM      2  C   UNL     1      -2.291 -11.030   0.414  0.00  0.00    +0.009 C 
ATOM      3  C   UNL     1      -2.930  -9.712  -0.027  0.00  0.00    +0.037 C 
ATOM      4  C   UNL     1      -1.861  -8.626  -0.030  0.00  0.00    -0.023 A 
ATOM      5  C   UNL     1      -0.548  -8.942  -0.045  0.00  0.00    -0.004 A 
ATOM      6  S   UNL     1       0.292  -7.384  -0.043  0.00  0.00    -0.077 S 
ATOM      7  C   UNL     1      -1.079  -6.326  -0.024  0.00  0.00    +0.085 A 
ATOM      8  C   UNL     1      -2.155  -7.203  -0.013  0.00  0.00    +0.068 A 
ATOM      9  C   UNL     1       0.050 -10.315  -0.061  0.00  0.00    +0.046 C 
ENDROOT
BRANCH   8  10
ATOM     10  C   UNL     1      -3.536  -6.712   0.011  0.00  0.00    +0.244 C 
ATOM     11  O   UNL     1      -4.126  -6.503  -1.033  0.00  0.00    -0.270 OA
ATOM     12  N   UNL     1      -4.154  -6.493   1.189  0.00  0.00    -0.325 N 
ATOM     13  H   UNL     1      -3.684  -6.660   2.021  0.00  0.00    +0.145 HD
ATOM     14  H   UNL     1      -5.067  -6.168   1.204  0.00  0.00    +0.145 HD
ENDBRANCH   8  10
BRANCH   1  16
ATOM     15  C   UNL     1      -1.665 -13.738  -0.522  0.00  0.00    +0.011 C 
ATOM     16  C   UNL     1      -0.561 -12.742  -0.164  0.00  0.00    -0.035 C 
ATOM     17  C   UNL     1       0.678 -13.026  -1.015  0.00  0.00    +0.011 C 
ATOM     18  C   UNL     1      -0.206 -12.885   1.317  0.00  0.00    +0.011 C 
ENDBRANCH   1  16
BRANCH   7  19
ATOM     19  N   UNL     1      -1.098  -4.941  -0.015  0.00  0.00    -0.275 N 
ATOM     20  C   UNL     1       0.060  -4.251  -0.023  0.00  0.00    +0.249 C 
ATOM     21  O   UNL     1       1.121  -4.844  -0.037  0.00  0.00    -0.270 OA
ATOM     22  H   UNL     1      -1.945  -4.467  -0.004  0.00  0.00    +0.156 HD
BRANCH  20  23
ATOM     23  C   UNL     1       0.040  -2.773  -0.014  0.00  0.00    +0.037 A 
ATOM     24  C   UNL     1       1.237  -2.056  -0.021  0.00  0.00    +0.015 A 
ATOM     25  C   UNL     1       1.211  -0.676  -0.013  0.00  0.00    +0.033 A 
ATOM     26  C   UNL     1       0.002  -0.004   0.002  0.00  0.00    +0.126 A 
ATOM     27  C   UNL     1      -1.188  -0.709   0.015  0.00  0.00    +0.033 A 
ATOM     28  C   UNL     1      -1.177  -2.088   0.002  0.00  0.00    +0.015 A 
BRANCH  26  29
ATOM     29  N   UNL     1      -0.018   1.476   0.010  0.00  0.00    +0.056 N 
ATOM     30  O   UNL     1       1.028   2.099   0.004  0.00  0.00    -0.126 OA
ATOM     31  O   UNL     1      -1.081   2.071   0.018  0.00  0.00    -0.126 OA
ENDBRANCH  26  29
ENDBRANCH  20  23
ENDBRANCH   7  19
TORSDOF 5
