REMARK  Name = ZINC38605390
REMARK  7 active torsions:
REMARK  status: ('A' for Active; 'I' for Inactive)
REMARK    1  A    between atoms: C_1  and  C_2
REMARK    2  A    between atoms: C_2  and  C_4
REMARK    3  A    between atoms: C_2  and  N_21
REMARK    4  A    between atoms: N_6  and  C_7
REMARK    5  A    between atoms: C_15  and  C_17
REMARK    6  A    between atoms: C_17  and  O_19
REMARK    7  A    between atoms: O_19  and  C_20
REMARK                            x       y       z     vdW  Elec       q    Type
REMARK                         _______ _______ _______ _____ _____    ______ ____
ROOT
ATOM      1  C   UNL     1       0.666  -0.335  -1.311  0.00  0.00    +0.203 C 
ATOM      2  O   UNL     1       1.760  -0.835  -1.157  0.00  0.00    -0.277 OA
ATOM      3  N   UNL     1       0.160  -0.190  -2.552  0.00  0.00    -0.288 N 
ATOM      4  H   UNL     1      -0.735   0.163  -2.673  0.00  0.00    +0.155 HD
ENDROOT
BRANCH   3   5
ATOM      5  C   UNL     1       0.907  -0.539  -3.637  0.00  0.00    +0.053 C 
ATOM      6  C   UNL     1       0.660  -0.216  -4.960  0.00  0.00    +0.018 A 
ATOM      7  C   UNL     1      -0.370   0.526  -5.586  0.00  0.00    +0.011 A 
ATOM      8  C   UNL     1      -0.361   0.686  -6.932  0.00  0.00    +0.001 A 
ATOM      9  C   UNL     1       0.646   0.133  -7.729  0.00  0.00    +0.002 A 
ATOM     10  C   UNL     1       1.663  -0.588  -7.199  0.00  0.00    +0.026 A 
ATOM     11  C   UNL     1       1.723  -0.799  -5.796  0.00  0.00    +0.045 A 
ATOM     12  N   UNL     1       2.590  -1.452  -5.049  0.00  0.00    -0.367 N 
ATOM     13  C   UNL     1       2.182  -1.353  -3.644  0.00  0.00    +0.234 C 
ATOM     14  H   UNL     1       3.375  -1.919  -5.375  0.00  0.00    +0.161 HD
BRANCH  13  15
ATOM     15  C   UNL     1       1.923  -2.728  -3.084  0.00  0.00    +0.335 C 
ATOM     16  O   UNL     1       1.810  -3.672  -3.830  0.00  0.00    -0.248 OA
BRANCH  15  17
ATOM     17  O   UNL     1       1.817  -2.904  -1.758  0.00  0.00    -0.466 OA
ATOM     18  C   UNL     1       1.571  -4.234  -1.297  0.00  0.00    +0.280 C 
ENDBRANCH  15  17
ENDBRANCH  13  15
ENDBRANCH   3   5
BRANCH   1  20
ATOM     19  C   UNL     1      -0.402   1.625  -0.230  0.00  0.00    -0.004 C 
ATOM     20  C   UNL     1      -0.129   0.124  -0.116  0.00  0.00    +0.017 C 
BRANCH  20  21
ATOM     21  N   UNL     1       0.634  -0.143   1.111  0.00  0.00    +0.390 N 
ATOM     22  C   UNL     1       0.888  -1.587   1.229  0.00  0.00    -0.073 C 
ATOM     23  C   UNL     1       1.929  -1.811   2.326  0.00  0.00    +0.017 C 
ATOM     24  C   UNL     1       1.514  -1.084   3.579  0.00  0.00    -0.048 A 
ATOM     25  C   UNL     1       2.120  -1.427   4.778  0.00  0.00    +0.004 A 
ATOM     26  C   UNL     1       1.768  -0.781   5.946  0.00  0.00    +0.000 A 
ATOM     27  C   UNL     1       0.807   0.213   5.920  0.00  0.00    +0.000 A 
ATOM     28  C   UNL     1       0.203   0.554   4.727  0.00  0.00    +0.002 A 
ATOM     29  C   UNL     1       0.554  -0.096   3.552  0.00  0.00    -0.061 A 
ATOM     30  C   UNL     1      -0.137   0.303   2.275  0.00  0.00    -0.042 C 
ATOM     31  H   UNL     1       1.512   0.354   1.077  0.00  0.00    -0.080 HD
ENDBRANCH  20  21
ENDBRANCH   1  20
TORSDOF 5
