REMARK  Name = ZINC05278288
REMARK  12 active torsions:
REMARK  status: ('A' for Active; 'I' for Inactive)
REMARK    1  A    between atoms: C_1  and  C_2
REMARK    2  A    between atoms: C_2  and  N_50
REMARK    3  A    between atoms: C_3  and  C_4
REMARK    4  A    between atoms: C_3  and  N_50
REMARK    5  A    between atoms: C_5  and  C_6
REMARK    6  A    between atoms: C_5  and  N_50
REMARK    7  A    between atoms: C_6  and  C_7
REMARK    8  A    between atoms: C_7  and  C_8
REMARK    9  A    between atoms: C_8  and  C_10
REMARK   10  A    between atoms: C_8  and  N_11
REMARK   11  A    between atoms: N_11  and  S_12
REMARK   12  A    between atoms: S_12  and  C_15
REMARK                            x       y       z     vdW  Elec       q    Type
REMARK                         _______ _______ _______ _____ _____    ______ ____
ROOT
ATOM      1  S   UNL     1       1.274  -2.428  -0.010  0.00  0.00    +0.059 S 
ATOM      2  O   UNL     1       2.536  -2.828   0.508  0.00  0.00    -0.153 OA
ATOM      3  O   UNL     1       0.046  -2.838   0.574  0.00  0.00    -0.153 OA
ENDROOT
BRANCH   1   4
ATOM      4  C   UNL     1       1.267  -0.665  -0.012  0.00  0.00    +0.107 A 
ATOM      5  C   UNL     1       0.063   0.018   0.019  0.00  0.00    +0.030 A 
ATOM      6  C   UNL     1       0.047   1.399   0.018  0.00  0.00    +0.030 A 
ATOM      7  C   UNL     1       1.241   2.104  -0.014  0.00  0.00    +0.067 A 
ATOM      8  C   UNL     1       2.455   1.414  -0.046  0.00  0.00    +0.069 A 
ATOM      9  C   UNL     1       2.461   0.027  -0.044  0.00  0.00    +0.056 A 
ATOM     10  N   UNL     1       3.463   2.374  -0.073  0.00  0.00    -0.306 N 
ATOM     11  H   UNL     1       4.416   2.196  -0.098  0.00  0.00    +0.170 HD
ATOM     12  C   UNL     1       2.889   3.592  -0.060  0.00  0.00    +0.325 A 
ATOM     13  O   UNL     1       3.490   4.650  -0.077  0.00  0.00    -0.247 OA
ATOM     14  N   UNL     1       1.550   3.462  -0.024  0.00  0.00    -0.306 N 
ATOM     15  H   UNL     1       0.909   4.190  -0.008  0.00  0.00    +0.170 HD
ENDBRANCH   1   4
BRANCH   1  16
ATOM     16  N   UNL     1       1.235  -2.919  -1.591  0.00  0.00    -0.187 NA
ATOM     17  H   UNL     1       0.466  -3.405  -1.929  0.00  0.00    +0.148 HD
BRANCH  16  18
ATOM     18  C   UNL     1       2.360  -2.619  -2.480  0.00  0.00    +0.073 C 
ATOM     19  C   UNL     1       2.070  -1.331  -3.254  0.00  0.00    +0.025 C 
BRANCH  18  20
ATOM     20  C   UNL     1       2.554  -3.774  -3.465  0.00  0.00    +0.018 C 
BRANCH  20  21
ATOM     21  C   UNL     1       2.966  -5.033  -2.700  0.00  0.00    -0.017 C 
BRANCH  21  22
ATOM     22  C   UNL     1       3.160  -6.187  -3.685  0.00  0.00    -0.079 C 
BRANCH  22  23
ATOM     23  N   UNL     1       3.694  -7.353  -2.949  0.00  0.00    +0.379 N 
ATOM     24  H   UNL     1       4.412  -7.031  -2.290  0.00  0.00    -0.082 HD
BRANCH  23  26
ATOM     25  C   UNL     1       3.223  -9.069  -1.271  0.00  0.00    -0.017 C 
ATOM     26  C   UNL     1       2.609  -8.013  -2.192  0.00  0.00    -0.082 C 
ENDBRANCH  23  26
BRANCH  23  27
ATOM     27  C   UNL     1       4.305  -8.311  -3.895  0.00  0.00    -0.082 C 
ATOM     28  C   UNL     1       5.676  -7.778  -4.315  0.00  0.00    -0.017 C 
ENDBRANCH  23  27
ENDBRANCH  22  23
ENDBRANCH  21  22
ENDBRANCH  20  21
ENDBRANCH  18  20
ENDBRANCH  16  18
ENDBRANCH   1  16
TORSDOF 9
