REMARK  Name = ZINC09547754
REMARK  12 active torsions:
REMARK  status: ('A' for Active; 'I' for Inactive)
REMARK    1  A    between atoms: C_1  and  C_2
REMARK    2  A    between atoms: C_6  and  C_24
REMARK    3  A    between atoms: C_7  and  C_11
REMARK    4  A    between atoms: C_11  and  C_12
REMARK    5  A    between atoms: N_14  and  C_15
REMARK    6  A    between atoms: C_15  and  C_16
REMARK    7  A    between atoms: C_16  and  C_17
REMARK    8  A    between atoms: C_20  and  O_23
REMARK    9  A    between atoms: C_27  and  C_30
REMARK   10  A    between atoms: C_30  and  C_31
REMARK   11  A    between atoms: C_30  and  C_32
REMARK   12  A    between atoms: C_30  and  C_33
REMARK                            x       y       z     vdW  Elec       q    Type
REMARK                         _______ _______ _______ _____ _____    ______ ____
ROOT
ATOM      1  C   UNL     1      -0.766  -9.481 -12.454  0.00  0.00    +0.044 C 
ATOM      2  C   UNL     1       0.284  -8.995 -11.489  0.00  0.00    -0.036 A 
ATOM      3  C   UNL     1       1.576  -8.855 -11.909  0.00  0.00    +0.051 A 
ATOM      4  C   UNL     1       2.560  -8.407 -11.030  0.00  0.00    +0.143 A 
ATOM      5  C   UNL     1       2.224  -8.096  -9.702  0.00  0.00    +0.064 A 
ATOM      6  C   UNL     1       3.272  -7.633  -8.793  0.00  0.00    -0.026 A 
ATOM      7  C   UNL     1       4.536  -7.511  -9.277  0.00  0.00    +0.049 A 
ATOM      8  C   UNL     1       4.803  -7.840 -10.622  0.00  0.00    +0.341 A 
ATOM      9  O   UNL     1       5.941  -7.733 -11.044  0.00  0.00    -0.245 OA
ATOM     10  O   UNL     1       3.837  -8.269 -11.448  0.00  0.00    -0.422 OA
ATOM     11  C   UNL     1       2.958  -7.294  -7.358  0.00  0.00    +0.045 C 
ATOM     12  C   UNL     1       0.896  -8.238  -9.265  0.00  0.00    +0.146 A 
ATOM     13  C   UNL     1      -0.071  -8.691 -10.172  0.00  0.00    +0.028 A 
ATOM     14  C   UNL     1      -1.329  -8.730  -9.416  0.00  0.00    +0.004 A 
ATOM     15  C   UNL     1      -1.032  -8.317  -8.176  0.00  0.00    +0.200 A 
ATOM     16  O   UNL     1       0.278  -8.028  -8.088  0.00  0.00    -0.462 OA
ENDROOT
BRANCH  14  17
ATOM     17  C   UNL     1      -2.682  -9.149  -9.931  0.00  0.00    -0.009 C 
ATOM     18  C   UNL     1      -3.736  -8.911  -8.848  0.00  0.00    +0.015 C 
ATOM     19  C   UNL     1      -3.032  -8.327 -11.174  0.00  0.00    +0.015 C 
ATOM     20  C   UNL     1      -2.651 -10.635 -10.294  0.00  0.00    +0.015 C 
ENDBRANCH  14  17
BRANCH   7  21
ATOM     21  C   UNL     1       5.648  -7.032  -8.380  0.00  0.00    +0.138 C 
BRANCH  21  22
ATOM     22  C   UNL     1       5.749  -5.531  -8.463  0.00  0.00    +0.218 C 
ATOM     23  O   UNL     1       4.993  -4.911  -9.180  0.00  0.00    -0.275 OA
ATOM     24  N   UNL     1       6.680  -4.878  -7.740  0.00  0.00    -0.315 N 
ATOM     25  H   UNL     1       7.285  -5.373  -7.166  0.00  0.00    +0.149 HD
BRANCH  24  26
ATOM     26  C   UNL     1       6.779  -3.418  -7.820  0.00  0.00    +0.109 C 
BRANCH  26  27
ATOM     27  C   UNL     1       7.908  -2.932  -6.909  0.00  0.00    +0.054 C 
BRANCH  27  28
ATOM     28  C   UNL     1       8.009  -1.431  -6.992  0.00  0.00    -0.046 A 
ATOM     29  C   UNL     1       7.279  -0.641  -6.123  0.00  0.00    +0.007 A 
ATOM     30  C   UNL     1       7.371   0.736  -6.197  0.00  0.00    +0.045 A 
ATOM     31  C   UNL     1       8.196   1.325  -7.143  0.00  0.00    +0.117 A 
ATOM     32  C   UNL     1       8.927   0.530  -8.014  0.00  0.00    +0.045 A 
ATOM     33  C   UNL     1       8.832  -0.846  -7.936  0.00  0.00    +0.007 A 
BRANCH  31  34
ATOM     34  O   UNL     1       8.287   2.679  -7.218  0.00  0.00    -0.507 OA
ATOM     35  H   UNL     1       8.984   3.058  -6.664  0.00  0.00    +0.292 HD
ENDBRANCH  31  34
ENDBRANCH  27  28
ENDBRANCH  26  27
ENDBRANCH  24  26
ENDBRANCH  21  22
ENDBRANCH   7  21
TORSDOF 7
