REMARK  Name = ZINC13063098
REMARK  16 active torsions:
REMARK  status: ('A' for Active; 'I' for Inactive)
REMARK    1  A    between atoms: C_1  and  C_2
REMARK    2  A    between atoms: C_3  and  C_37
REMARK    3  A    between atoms: C_5  and  N_30
REMARK    4  A    between atoms: C_6  and  C_7
REMARK    5  A    between atoms: C_7  and  O_9
REMARK    6  A    between atoms: O_9  and  C_10
REMARK    7  A    between atoms: C_10  and  C_11
REMARK    8  A    between atoms: C_11  and  C_13
REMARK    9  A    between atoms: C_14  and  N_29
REMARK   10  A    between atoms: N_15  and  C_22
REMARK   11  A    between atoms: N_18  and  C_21
REMARK   12  A    between atoms: C_22  and  C_23
REMARK   13  A    between atoms: C_31  and  C_33
REMARK   14  A    between atoms: C_33  and  C_34
REMARK   15  A    between atoms: C_33  and  C_35
REMARK   16  A    between atoms: C_33  and  C_36
REMARK                            x       y       z     vdW  Elec       q    Type
REMARK                         _______ _______ _______ _____ _____    ______ ____
ROOT
ATOM      1  C   UNL     1       1.144  -2.080  -0.010  0.00  0.00    +0.209 C 
ATOM      2  O   UNL     1       0.089  -2.677  -0.094  0.00  0.00    -0.288 OA
ENDROOT
BRANCH   1   3
ATOM      3  C   UNL     1       1.158  -0.669  -0.007  0.00  0.00    +0.123 A 
ATOM      4  C   UNL     1      -0.039   0.068   0.021  0.00  0.00    +0.116 A 
ATOM      5  N   UNL     1       0.026   1.433   0.022  0.00  0.00    -0.277 N 
ATOM      6  C   UNL     1       1.204   2.075  -0.004  0.00  0.00    +0.333 A 
ATOM      7  O   UNL     1       1.207   3.291  -0.002  0.00  0.00    -0.246 OA
ATOM      8  N   UNL     1       2.378   1.425  -0.032  0.00  0.00    -0.263 N 
ATOM      9  C   UNL     1       2.423   0.077  -0.035  0.00  0.00    +0.269 A 
ATOM     10  O   UNL     1       3.489  -0.509  -0.060  0.00  0.00    -0.267 OA
ATOM     11  C   UNL     1       3.627   2.190  -0.059  0.00  0.00    +0.157 C 
BRANCH   4  12
ATOM     12  N   UNL     1      -1.242  -0.567   0.048  0.00  0.00    -0.344 N 
ATOM     13  H   UNL     1      -2.059  -0.054   0.145  0.00  0.00    +0.144 HD
ATOM     14  H   UNL     1      -1.282  -1.533  -0.030  0.00  0.00    +0.144 HD
ENDBRANCH   4  12
BRANCH   5  15
ATOM     15  C   UNL     1      -1.216   2.210   0.045  0.00  0.00    +0.163 C 
BRANCH  15  16
ATOM     16  C   UNL     1      -1.616   2.474   1.474  0.00  0.00    -0.028 A 
ATOM     17  C   UNL     1      -2.439   1.584   2.137  0.00  0.00    +0.005 A 
ATOM     18  C   UNL     1      -2.803   1.824   3.449  0.00  0.00    +0.000 A 
ATOM     19  C   UNL     1      -2.351   2.960   4.094  0.00  0.00    +0.000 A 
ATOM     20  C   UNL     1      -1.532   3.853   3.429  0.00  0.00    +0.000 A 
ATOM     21  C   UNL     1      -1.165   3.610   2.119  0.00  0.00    +0.005 A 
ENDBRANCH  15  16
ENDBRANCH   5  15
ENDBRANCH   1   3
BRANCH   1  22
ATOM     22  C   UNL     1       2.438  -2.846   0.091  0.00  0.00    +0.312 C 
BRANCH  22  23
ATOM     23  O   UNL     1       2.159  -4.271   0.068  0.00  0.00    -0.453 OA
BRANCH  23  24
ATOM     24  C   UNL     1       3.217  -5.103   0.151  0.00  0.00    +0.342 C 
ATOM     25  O   UNL     1       4.343  -4.650   0.240  0.00  0.00    -0.245 OA
BRANCH  24  31
ATOM     26  C   UNL     1       2.800  -6.630   2.697  0.00  0.00    +0.045 C 
ATOM     27  C   UNL     1       2.809  -7.305   1.349  0.00  0.00    -0.025 A 
ATOM     28  C   UNL     1       2.629  -8.632   1.228  0.00  0.00    -0.008 A 
ATOM     29  S   UNL     1       2.729  -8.901  -0.529  0.00  0.00    -0.078 S 
ATOM     30  C   UNL     1       2.997  -7.274  -1.056  0.00  0.00    +0.086 A 
ATOM     31  C   UNL     1       3.012  -6.553   0.133  0.00  0.00    +0.091 A 
ATOM     32  C   UNL     1       2.398  -9.647   2.318  0.00  0.00    +0.052 C 
BRANCH  30  33
ATOM     33  N   UNL     1       3.159  -6.804  -2.350  0.00  0.00    -0.279 N 
ATOM     34  C   UNL     1       3.114  -7.661  -3.389  0.00  0.00    +0.223 C 
ATOM     35  O   UNL     1       2.931  -8.843  -3.192  0.00  0.00    -0.275 OA
ATOM     36  H   UNL     1       3.305  -5.858  -2.508  0.00  0.00    +0.155 HD
BRANCH  34  37
ATOM     37  C   UNL     1       3.290  -7.149  -4.796  0.00  0.00    +0.039 C 
ATOM     38  C   UNL     1       3.196  -8.318  -5.779  0.00  0.00    +0.020 C 
ATOM     39  C   UNL     1       2.193  -6.130  -5.109  0.00  0.00    +0.020 C 
ATOM     40  C   UNL     1       4.660  -6.481  -4.928  0.00  0.00    +0.020 C 
ENDBRANCH  34  37
ENDBRANCH  30  33
ENDBRANCH  24  31
ENDBRANCH  23  24
ENDBRANCH  22  23
ENDBRANCH   1  22
TORSDOF 10
