REMARK  Name = ZINC27467251
REMARK  7 active torsions:
REMARK  status: ('A' for Active; 'I' for Inactive)
REMARK    1  A    between atoms: C_1  and  C_2
REMARK    2  A    between atoms: C_3  and  N_11
REMARK    3  A    between atoms: C_7  and  N_8
REMARK    4  A    between atoms: C_12  and  C_14
REMARK    5  A    between atoms: C_14  and  C_16
REMARK    6  A    between atoms: C_14  and  S_17
REMARK    7  A    between atoms: S_17  and  C_18
REMARK                            x       y       z     vdW  Elec       q    Type
REMARK                         _______ _______ _______ _____ _____    ______ ____
ROOT
ATOM      1  N   UNL     1       1.100   1.819   0.015  0.00  0.00    -0.284 N 
ATOM      2  C   UNL     1      -0.035   1.092   0.033  0.00  0.00    +0.230 C 
ATOM      3  O   UNL     1       0.020  -0.119   0.018  0.00  0.00    -0.274 OA
ATOM      4  H   UNL     1       1.050   2.915  -0.065  0.00  0.00    +0.155 HD
ENDROOT
BRANCH   1   7
ATOM      5  C   UNL     1       3.370   3.143  -1.077  0.00  0.00    +0.048 C 
ATOM      6  C   UNL     1       3.476   1.790  -0.422  0.00  0.00    +0.001 A 
ATOM      7  C   UNL     1       2.342   1.179   0.099  0.00  0.00    +0.039 A 
ATOM      8  C   UNL     1       2.442  -0.070   0.697  0.00  0.00    +0.024 A 
ATOM      9  C   UNL     1       3.669  -0.699   0.777  0.00  0.00    +0.004 A 
ATOM     10  C   UNL     1       4.797  -0.086   0.263  0.00  0.00    +0.033 A 
ATOM     11  C   UNL     1       4.700   1.158  -0.334  0.00  0.00    +0.131 A 
BRANCH  11  12
ATOM     12  N   UNL     1       5.910   1.810  -0.883  0.00  0.00    +0.057 N 
ATOM     13  O   UNL     1       6.780   1.138  -1.406  0.00  0.00    -0.126 OA
ATOM     14  O   UNL     1       6.035   3.020  -0.812  0.00  0.00    -0.126 OA
ENDBRANCH  11  12
ENDBRANCH   1   7
BRANCH   2  15
ATOM     15  C   UNL     1      -1.373   1.785   0.067  0.00  0.00    +0.136 C 
ATOM     16  C   UNL     1      -1.794   2.149  -1.359  0.00  0.00    +0.029 C 
BRANCH  15  17
ATOM     17  S   UNL     1      -2.606   0.681   0.797  0.00  0.00    -0.087 S 
BRANCH  17  18
ATOM     18  C   UNL     1      -3.994   1.765   0.852  0.00  0.00    +0.132 C 
ATOM     19  N   UNL     1      -3.873   2.986   0.413  0.00  0.00    -0.234 NA
ATOM     20  C   UNL     1      -4.874   3.909   0.393  0.00  0.00    +0.070 A 
ATOM     21  C   UNL     1      -4.777   4.969  -0.522  0.00  0.00    +0.028 A 
ATOM     22  C   UNL     1      -5.761   5.931  -0.577  0.00  0.00    +0.002 A 
ATOM     23  C   UNL     1      -6.852   5.858   0.271  0.00  0.00    +0.000 A 
ATOM     24  C   UNL     1      -6.957   4.818   1.174  0.00  0.00    +0.006 A 
ATOM     25  C   UNL     1      -5.978   3.844   1.239  0.00  0.00    -0.012 A 
ATOM     26  C   UNL     1      -6.137   2.722   2.234  0.00  0.00    +0.113 C 
ATOM     27  S   UNL     1      -5.528   1.182   1.492  0.00  0.00    -0.094 S 
ENDBRANCH  17  18
ENDBRANCH  15  17
ENDBRANCH   2  15
TORSDOF 5
