REMARK  Name = ZINC58467375
REMARK  6 active torsions:
REMARK  status: ('A' for Active; 'I' for Inactive)
REMARK    1  A    between atoms: C_9  and  C_12
REMARK    2  A    between atoms: C_12  and  N_13
REMARK    3  A    between atoms: N_16  and  C_17
REMARK    4  A    between atoms: C_17  and  C_18
REMARK    5  A    between atoms: C_18  and  C_20
REMARK    6  A    between atoms: C_18  and  N_25
REMARK                            x       y       z     vdW  Elec       q    Type
REMARK                         _______ _______ _______ _____ _____    ______ ____
ROOT
ATOM      1  N   UNL     1       6.020  -2.017   0.649  0.00  0.00    -0.296 N 
ATOM      2  C   UNL     1       7.299  -2.350   0.384  0.00  0.00    +0.300 C 
ATOM      3  O   UNL     1       7.561  -3.031  -0.589  0.00  0.00    -0.253 OA
ATOM      4  N   UNL     1       8.287  -1.928   1.197  0.00  0.00    -0.301 N 
ATOM      5  H   UNL     1       5.811  -1.474   1.425  0.00  0.00    +0.150 HD
ATOM      6  H   UNL     1       8.078  -1.385   1.973  0.00  0.00    +0.150 HD
ENDROOT
BRANCH   1   7
ATOM      7  C   UNL     1       4.945  -2.476  -0.235  0.00  0.00    +0.153 C 
BRANCH   7  16
ATOM      8  C   UNL     1      -0.134   1.272   0.618  0.00  0.00    +0.004 A 
ATOM      9  C   UNL     1       1.025   2.014   0.744  0.00  0.00    +0.004 A 
ATOM     10  C   UNL     1       2.257   1.406   0.600  0.00  0.00    +0.049 A 
ATOM     11  C   UNL     1       2.335   0.048   0.328  0.00  0.00    +0.163 A 
ATOM     12  C   UNL     1       1.170  -0.699   0.204  0.00  0.00    +0.162 A 
ATOM     13  C   UNL     1      -0.064  -0.082   0.348  0.00  0.00    +0.049 A 
ATOM     14  O   UNL     1       1.223  -2.034  -0.055  0.00  0.00    -0.485 OA
ATOM     15  C   UNL     1       2.462  -2.543  -0.561  0.00  0.00    +0.275 C 
ATOM     16  C   UNL     1       3.602  -1.964   0.287  0.00  0.00    +0.228 C 
ATOM     17  O   UNL     1       3.556  -0.536   0.185  0.00  0.00    -0.480 OA
ENDBRANCH   7  16
ENDBRANCH   1   7
BRANCH   4  18
ATOM     18  C   UNL     1       9.677  -2.290   0.909  0.00  0.00    +0.095 C 
BRANCH  18  19
ATOM     19  C   UNL     1      10.604  -1.581   1.898  0.00  0.00    -0.013 C 
BRANCH  19  20
ATOM     20  N   UNL     1      11.984  -2.043   1.694  0.00  0.00    +0.386 N 
ATOM     21  C   UNL     1      12.895  -1.379   2.662  0.00  0.00    -0.078 C 
ATOM     22  C   UNL     1      14.113  -2.335   2.715  0.00  0.00    -0.020 C 
ATOM     23  C   UNL     1      13.460  -3.733   2.622  0.00  0.00    -0.020 C 
ATOM     24  C   UNL     1      12.083  -3.492   1.976  0.00  0.00    -0.078 C 
ATOM     25  H   UNL     1      12.279  -1.851   0.749  0.00  0.00    -0.081 HD
ENDBRANCH  19  20
BRANCH  19  26
ATOM     26  C   UNL     1      10.535  -0.092   1.673  0.00  0.00    -0.022 A 
ATOM     27  C   UNL     1       9.842   0.844   2.366  0.00  0.00    +0.009 A 
ATOM     28  C   UNL     1       9.930   2.168   1.976  0.00  0.00    +0.008 A 
ATOM     29  C   UNL     1      10.706   2.490   0.912  0.00  0.00    +0.045 A 
ATOM     30  S   UNL     1      11.351   0.896   0.430  0.00  0.00    -0.103 S 
ENDBRANCH  19  26
ENDBRANCH  18  19
ENDBRANCH   4  18
TORSDOF 6
