REMARK  Name = ZINC20926023
REMARK  9 active torsions:
REMARK  status: ('A' for Active; 'I' for Inactive)
REMARK    1  A    between atoms: C_1  and  C_2
REMARK    2  A    between atoms: C_2  and  C_3
REMARK    3  A    between atoms: C_3  and  O_4
REMARK    4  A    between atoms: O_4  and  C_5
REMARK    5  A    between atoms: C_8  and  C_12
REMARK    6  A    between atoms: C_12  and  N_13
REMARK    7  A    between atoms: N_13  and  C_14
REMARK    8  A    between atoms: C_14  and  C_15
REMARK    9  A    between atoms: C_15  and  C_16
REMARK                            x       y       z     vdW  Elec       q    Type
REMARK                         _______ _______ _______ _____ _____    ______ ____
ROOT
ATOM      1  N   UNL     1      -2.862  -2.008  -1.417  0.00  0.00    +0.382 N 
ATOM      2  H   UNL     1      -3.651  -1.549  -0.802  0.00  0.00    -0.085 HD
ATOM      3  H   UNL     1      -2.569  -2.972  -0.977  0.00  0.00    -0.085 HD
ENDROOT
BRANCH   1   4
ATOM      4  C   UNL     1      -3.368  -2.224  -2.779  0.00  0.00    -0.047 C 
BRANCH   4   8
ATOM      5  C   UNL     1      -6.759  -4.822  -2.646  0.00  0.00    +0.134 A 
ATOM      6  C   UNL     1      -5.484  -5.350  -2.785  0.00  0.00    +0.047 A 
ATOM      7  C   UNL     1      -4.390  -4.508  -2.833  0.00  0.00    +0.005 A 
ATOM      8  C   UNL     1      -4.564  -3.140  -2.732  0.00  0.00    -0.063 A 
ATOM      9  C   UNL     1      -5.833  -2.610  -2.593  0.00  0.00    +0.020 A 
ATOM     10  C   UNL     1      -6.932  -3.448  -2.550  0.00  0.00    +0.060 A 
ATOM     11 BR   UNL     1      -8.668  -2.723  -2.360  0.00  0.00    -0.047 Br
BRANCH   5  12
ATOM     12  O   UNL     1      -7.838  -5.648  -2.603  0.00  0.00    -0.491 OA
BRANCH  12  13
ATOM     13  C   UNL     1      -7.585  -7.050  -2.708  0.00  0.00    +0.229 C 
BRANCH  13  15
ATOM     14  C   UNL     1      -8.639  -9.315  -2.752  0.00  0.00    +0.007 C 
ATOM     15  C   UNL     1      -8.909  -7.814  -2.641  0.00  0.00    +0.038 C 
ENDBRANCH  13  15
ENDBRANCH  12  13
ENDBRANCH   5  12
ENDBRANCH   4   8
ENDBRANCH   1   4
BRANCH   1  16
ATOM     16  C   UNL     1      -1.694  -1.118  -1.424  0.00  0.00    -0.077 C 
BRANCH  16  17
ATOM     17  C   UNL     1      -1.197  -0.917   0.009  0.00  0.00    +0.018 C 
BRANCH  17  18
ATOM     18  C   UNL     1       0.002  -0.004   0.002  0.00  0.00    -0.024 A 
ATOM     19  C   UNL     1       1.291  -0.379  -0.012  0.00  0.00    +0.087 A 
ATOM     20  N   UNL     1       2.098   0.726  -0.014  0.00  0.00    -0.360 N 
ATOM     21  H   UNL     1       3.192   0.608  -0.025  0.00  0.00    +0.165 HD
ATOM     22  C   UNL     1       1.329   1.868  -0.001  0.00  0.00    +0.047 A 
ATOM     23  C   UNL     1      -0.018   1.461   0.010  0.00  0.00    +0.003 A 
ATOM     24  C   UNL     1      -1.034   2.417   0.030  0.00  0.00    +0.010 A 
ATOM     25  C   UNL     1      -0.716   3.746   0.030  0.00  0.00    +0.001 A 
ATOM     26  C   UNL     1       0.611   4.153   0.019  0.00  0.00    +0.002 A 
ATOM     27  C   UNL     1       1.631   3.225   0.004  0.00  0.00    +0.026 A 
ENDBRANCH  17  18
ENDBRANCH  16  17
ENDBRANCH   1  16
TORSDOF 8
