REMARK  Name = ZINC20615112
REMARK  6 active torsions:
REMARK  status: ('A' for Active; 'I' for Inactive)
REMARK    1  A    between atoms: C_1  and  O_2
REMARK    2  A    between atoms: O_2  and  C_3
REMARK    3  A    between atoms: C_8  and  N_9
REMARK    4  A    between atoms: C_12  and  C_23
REMARK    5  A    between atoms: C_14  and  C_16
REMARK    6  A    between atoms: C_19  and  O_22
REMARK                            x       y       z     vdW  Elec       q    Type
REMARK                         _______ _______ _______ _____ _____    ______ ____
ROOT
ATOM      1  N   UNL     1      -1.165  -0.745   0.009  0.00  0.00    -0.270 N 
ATOM      2  C   UNL     1       0.002  -0.004   0.002  0.00  0.00    +0.154 A 
ATOM      3  C   UNL     1       1.229  -0.695  -0.013  0.00  0.00    +0.094 A 
ATOM      4  C   UNL     1       2.426   0.024  -0.021  0.00  0.00    +0.073 A 
ATOM      5  C   UNL     1       2.358   1.393  -0.012  0.00  0.00    +0.041 A 
ATOM      6  C   UNL     1       1.110   2.021   0.002  0.00  0.00    +0.074 A 
ATOM      7  N   UNL     1      -0.016   1.317   0.009  0.00  0.00    -0.228 NA
ATOM      8  C   UNL     1       1.203  -2.167  -0.022  0.00  0.00    +0.262 A 
ATOM      9  O   UNL     1       2.240  -2.810  -0.036  0.00  0.00    -0.267 OA
ATOM     10  N   UNL     1       0.012  -2.784  -0.015  0.00  0.00    -0.302 N 
ATOM     11  C   UNL     1      -1.116  -2.106   0.000  0.00  0.00    +0.167 A 
ATOM     12  S   UNL     1      -2.634  -3.001   0.009  0.00  0.00    -0.012 S 
ATOM     13  H   UNL     1      -0.007  -3.884  -0.022  0.00  0.00    +0.171 HD
ENDROOT
BRANCH   1  19
ATOM     14  C   UNL     1      -3.012   0.227   1.237  0.00  0.00    +0.144 A 
ATOM     15  C   UNL     1      -4.238   0.873   1.246  0.00  0.00    +0.048 A 
ATOM     16  C   UNL     1      -4.856   1.199   0.053  0.00  0.00    +0.004 A 
ATOM     17  C   UNL     1      -4.254   0.883  -1.151  0.00  0.00    +0.002 A 
ATOM     18  C   UNL     1      -3.029   0.245  -1.169  0.00  0.00    +0.030 A 
ATOM     19  C   UNL     1      -2.405  -0.091   0.024  0.00  0.00    +0.092 A 
BRANCH  14  21
ATOM     20  C   UNL     1      -3.083   0.263   3.613  0.00  0.00    +0.277 C 
ATOM     21  O   UNL     1      -2.403  -0.095   2.409  0.00  0.00    -0.493 OA
ENDBRANCH  14  21
ENDBRANCH   1  19
BRANCH   6  22
ATOM     22  C   UNL     1       1.041   3.500   0.011  0.00  0.00    +0.001 A 
ATOM     23  C   UNL     1       2.215   4.254   0.009  0.00  0.00    +0.013 A 
ATOM     24  C   UNL     1       2.148   5.631   0.012  0.00  0.00    +0.046 A 
ATOM     25  C   UNL     1       0.913   6.268   0.026  0.00  0.00    +0.117 A 
ATOM     26  C   UNL     1      -0.257   5.520   0.034  0.00  0.00    +0.046 A 
ATOM     27  C   UNL     1      -0.197   4.143   0.026  0.00  0.00    +0.013 A 
BRANCH  25  28
ATOM     28  O   UNL     1       0.851   7.624   0.034  0.00  0.00    -0.507 OA
ATOM     29  H   UNL     1      -0.127   8.130   0.045  0.00  0.00    +0.292 HD
ENDBRANCH  25  28
ENDBRANCH   6  22
BRANCH   4  30
ATOM     30  C   UNL     1       3.755  -0.686  -0.037  0.00  0.00    +0.418 C 
ATOM     31  F   UNL     1       4.788   0.258  -0.042  0.00  0.00    -0.166 F 
ATOM     32  F   UNL     1       3.867  -1.495   1.099  0.00  0.00    -0.166 F 
ATOM     33  F   UNL     1       3.845  -1.481  -1.185  0.00  0.00    -0.166 F 
ENDBRANCH   4  30
TORSDOF 5
