REMARK  Name = ZINC12984159
REMARK  6 active torsions:
REMARK  status: ('A' for Active; 'I' for Inactive)
REMARK    1  A    between atoms: C_1  and  C_2
REMARK    2  A    between atoms: C_2  and  C_3
REMARK    3  A    between atoms: C_8  and  N_9
REMARK    4  A    between atoms: C_10  and  C_12
REMARK    5  A    between atoms: C_12  and  N_13
REMARK    6  A    between atoms: N_21  and  C_22
REMARK                            x       y       z     vdW  Elec       q    Type
REMARK                         _______ _______ _______ _____ _____    ______ ____
ROOT
ATOM      1  N   UNL     1      -2.355  -0.595  -5.975  0.00  0.00    -0.291 NA
ATOM      2  C   UNL     1      -3.511   0.311  -5.994  0.00  0.00    +0.104 C 
ATOM      3  C   UNL     1      -4.516  -0.170  -7.047  0.00  0.00    +0.124 C 
ATOM      4  N   UNL     1      -3.814  -0.309  -8.332  0.00  0.00    -0.283 N 
ATOM      5  C   UNL     1      -2.569  -1.091  -8.364  0.00  0.00    +0.124 C 
ATOM      6  C   UNL     1      -1.641  -0.575  -7.259  0.00  0.00    +0.104 C 
ATOM      7  C   UNL     1      -4.300   0.264  -9.451  0.00  0.00    +0.303 C 
ATOM      8  O   UNL     1      -3.758   0.064 -10.521  0.00  0.00    -0.253 OA
ATOM      9  N   UNL     1      -5.386   1.059  -9.384  0.00  0.00    -0.292 N 
ATOM     10  H   UNL     1      -5.861   1.161  -8.544  0.00  0.00    +0.151 HD
ENDROOT
BRANCH   9  11
ATOM     11  C   UNL     1      -5.849   1.770 -10.579  0.00  0.00    +0.108 C 
ATOM     12  C   UNL     1      -6.646   3.013 -10.164  0.00  0.00    +0.027 C 
ATOM     13  C   UNL     1      -7.349   3.599 -11.392  0.00  0.00    +0.010 C 
ATOM     14  C   UNL     1      -8.476   2.659 -11.835  0.00  0.00    +0.075 C 
ATOM     15  C   UNL     1      -7.917   1.261 -11.942  0.00  0.00    +0.110 A 
ATOM     16  C   UNL     1      -6.751   0.872 -11.385  0.00  0.00    +0.014 A 
ATOM     17  C   UNL     1      -6.570  -0.486 -11.704  0.00  0.00    +0.047 A 
ATOM     18  C   UNL     1      -7.638  -0.855 -12.439  0.00  0.00    +0.195 A 
ATOM     19  O   UNL     1      -8.450   0.210 -12.577  0.00  0.00    -0.467 OA
ENDBRANCH   9  11
BRANCH   1  20
ATOM     20  C   UNL     1      -1.450  -0.272  -4.864  0.00  0.00    +0.180 C 
BRANCH  20  22
ATOM     21  N   UNL     1      -1.504  -0.313  -2.392  0.00  0.00    -0.284 N 
ATOM     22  C   UNL     1      -2.146  -0.540  -3.555  0.00  0.00    +0.231 C 
ATOM     23  O   UNL     1      -3.284  -0.959  -3.548  0.00  0.00    -0.274 OA
ATOM     24  H   UNL     1      -0.619   0.083  -2.396  0.00  0.00    +0.155 HD
BRANCH  21  30
ATOM     25  C   UNL     1      -1.347  -1.117  -0.120  0.00  0.00    -0.026 A 
ATOM     26  C   UNL     1      -1.952  -1.443   1.079  0.00  0.00    +0.005 A 
ATOM     27  C   UNL     1      -3.321  -1.311   1.222  0.00  0.00    +0.000 A 
ATOM     28  C   UNL     1      -4.088  -0.851   0.168  0.00  0.00    +0.002 A 
ATOM     29  C   UNL     1      -3.490  -0.523  -1.032  0.00  0.00    +0.023 A 
ATOM     30  C   UNL     1      -2.115  -0.650  -1.179  0.00  0.00    +0.037 A 
BRANCH  25  32
ATOM     31  C   UNL     1       0.820   0.080   0.018  0.00  0.00    +0.009 C 
ATOM     32  C   UNL     1       0.145  -1.261  -0.275  0.00  0.00    +0.033 C 
ENDBRANCH  25  32
ENDBRANCH  21  30
ENDBRANCH  20  22
ENDBRANCH   1  20
TORSDOF 5
