REMARK  Name = ZINC67183704
REMARK  2 active torsions:
REMARK  status: ('A' for Active; 'I' for Inactive)
REMARK    1  A    between atoms: C_1  and  C_2
REMARK    2  A    between atoms: C_2  and  C_13
REMARK                            x       y       z     vdW  Elec       q    Type
REMARK                         _______ _______ _______ _____ _____    ______ ____
ROOT
ATOM      1  C   UNL     1      -0.022   1.530   0.012  0.00  0.00    +0.066 C 
ATOM      2  C   UNL     1       0.001  -0.000   0.002  0.00  0.00    +0.190 C 
ATOM      3  C   UNL     1       0.717  -0.491  -1.257  0.00  0.00    +0.093 C 
ATOM      4  C   UNL     1       0.963  -1.974  -1.171  0.00  0.00    -0.029 A 
ATOM      5  C   UNL     1       1.187  -2.706  -2.320  0.00  0.00    +0.004 A 
ATOM      6  C   UNL     1       1.415  -4.069  -2.241  0.00  0.00    +0.000 A 
ATOM      7  C   UNL     1       1.422  -4.709  -1.014  0.00  0.00    +0.001 A 
ATOM      8  C   UNL     1       1.199  -3.990   0.143  0.00  0.00    +0.015 A 
ATOM      9  C   UNL     1       0.967  -2.618   0.067  0.00  0.00    +0.062 A 
ATOM     10  C   UNL     1       0.717  -1.827   1.294  0.00  0.00    +0.340 C 
ATOM     11  O   UNL     1       0.539  -2.363   2.369  0.00  0.00    -0.245 OA
ATOM     12  O   UNL     1       0.695  -0.476   1.163  0.00  0.00    -0.445 OA
ENDROOT
BRANCH   2  13
ATOM     13  C   UNL     1      -1.412  -0.523   0.012  0.00  0.00    +0.262 C 
ATOM     14  O   UNL     1      -1.959  -0.813  -1.031  0.00  0.00    -0.271 OA
ATOM     15  N   UNL     1      -2.068  -0.670   1.181  0.00  0.00    -0.267 N 
ATOM     16  C   UNL     1      -3.409  -1.053   1.184  0.00  0.00    +0.125 A 
ATOM     17  C   UNL     1      -4.109  -1.099   2.385  0.00  0.00    +0.045 A 
ATOM     18  C   UNL     1      -5.439  -1.480   2.374  0.00  0.00    +0.020 A 
ATOM     19  C   UNL     1      -6.026  -1.803   1.158  0.00  0.00    +0.036 A 
ATOM     20  C   UNL     1      -5.270  -1.736   0.003  0.00  0.00    +0.128 A 
ATOM     21  N   UNL     1      -4.005  -1.364   0.044  0.00  0.00    -0.239 NA
ATOM     22 BR   UNL     1      -7.840  -2.332   1.082  0.00  0.00    -0.049 Br
ATOM     23  H   UNL     1      -1.608  -0.509   2.019  0.00  0.00    +0.156 HD
ENDBRANCH   2  13
TORSDOF 1
