REMARK  Name = ZINC40051555
REMARK  6 active torsions:
REMARK  status: ('A' for Active; 'I' for Inactive)
REMARK    1  A    between atoms: C_1  and  C_2
REMARK    2  A    between atoms: C_5  and  N_9
REMARK    3  A    between atoms: C_6  and  C_8
REMARK    4  A    between atoms: C_19  and  N_20
REMARK    5  A    between atoms: N_20  and  C_21
REMARK    6  A    between atoms: C_26  and  C_27
REMARK                            x       y       z     vdW  Elec       q    Type
REMARK                         _______ _______ _______ _____ _____    ______ ____
ROOT
ATOM      1  N   UNL     1       0.058  -4.173   0.000  0.00  0.00    -0.202 N 
ATOM      2  C   UNL     1      -1.113  -4.830  -0.034  0.00  0.00    +0.258 C 
ATOM      3  O   UNL     1      -2.153  -4.199  -0.032  0.00  0.00    -0.269 OA
ATOM      4  C   UNL     1      -1.158  -6.297  -0.075  0.00  0.00    +0.046 A 
ATOM      5  C   UNL     1      -2.371  -6.986  -0.112  0.00  0.00    +0.014 A 
ATOM      6  C   UNL     1      -2.371  -8.364  -0.150  0.00  0.00    +0.001 A 
ATOM      7  C   UNL     1      -1.179  -9.073  -0.152  0.00  0.00    +0.001 A 
ATOM      8  C   UNL     1       0.031  -8.411  -0.116  0.00  0.00    +0.009 A 
ATOM      9  C   UNL     1       0.052  -7.022  -0.077  0.00  0.00    +0.000 A 
ATOM     10  C   UNL     1       1.320  -6.263  -0.038  0.00  0.00    +0.059 C 
ATOM     11  C   UNL     1       2.535  -6.913  -0.039  0.00  0.00    +0.085 C 
ATOM     12  C   UNL     1       1.246  -4.798  -0.005  0.00  0.00    +0.259 C 
ATOM     13  O   UNL     1       2.272  -4.144   0.022  0.00  0.00    -0.269 OA
ENDROOT
BRANCH   1  18
ATOM     14  C   UNL     1      -0.022   1.500   0.151  0.00  0.00    +0.044 C 
ATOM     15  C   UNL     1      -0.001  -0.007   0.111  0.00  0.00    -0.050 A 
ATOM     16  C   UNL     1       0.021  -0.664  -1.105  0.00  0.00    +0.005 A 
ATOM     17  C   UNL     1       0.041  -2.045  -1.145  0.00  0.00    +0.024 A 
ATOM     18  C   UNL     1       0.038  -2.772   0.037  0.00  0.00    +0.047 A 
ATOM     19  C   UNL     1       0.017  -2.109   1.257  0.00  0.00    -0.028 A 
ATOM     20  C   UNL     1       0.002  -0.728   1.290  0.00  0.00    +0.008 A 
ATOM     21  C   UNL     1       0.014  -2.895   2.543  0.00  0.00    +0.046 C 
ENDBRANCH   1  18
BRANCH  11  22
ATOM     22  N   UNL     1       3.687  -6.198  -0.138  0.00  0.00    -0.320 N 
ATOM     23  H   UNL     1       3.659  -5.228  -0.132  0.00  0.00    +0.152 HD
BRANCH  22  24
ATOM     24  C   UNL     1       4.913  -6.860  -0.248  0.00  0.00    +0.037 A 
ATOM     25  C   UNL     1       4.955  -8.249  -0.262  0.00  0.00    +0.023 A 
ATOM     26  C   UNL     1       6.167  -8.900  -0.372  0.00  0.00    +0.002 A 
ATOM     27  C   UNL     1       7.339  -8.172  -0.467  0.00  0.00    +0.000 A 
ATOM     28  C   UNL     1       7.301  -6.790  -0.453  0.00  0.00    +0.008 A 
ATOM     29  C   UNL     1       6.091  -6.132  -0.349  0.00  0.00    +0.006 A 
BRANCH  29  30
ATOM     30  C   UNL     1       6.050  -4.625  -0.340  0.00  0.00    +0.214 C 
ATOM     31  C   UNL     1       5.952  -4.166   1.103  0.00  0.00    +0.247 C 
ATOM     32  O   UNL     1       5.040  -4.514   1.823  0.00  0.00    -0.273 OA
ATOM     33  N   UNL     1       6.937  -3.348   1.544  0.00  0.00    -0.263 N 
ATOM     34  C   UNL     1       7.928  -2.987   0.713  0.00  0.00    +0.178 C 
ATOM     35  N   UNL     1       8.021  -3.386  -0.559  0.00  0.00    -0.123 NA
ATOM     36  N   UNL     1       7.205  -4.133  -1.109  0.00  0.00    -0.299 N 
ATOM     37  S   UNL     1       9.148  -1.950   1.321  0.00  0.00    -0.015 S 
ATOM     38  H   UNL     1       7.324  -4.391  -2.037  0.00  0.00    +0.181 HD
ATOM     39  H   UNL     1       6.926  -3.022   2.458  0.00  0.00    +0.157 HD
ENDBRANCH  29  30
ENDBRANCH  22  24
ENDBRANCH  11  22
TORSDOF 4
