REMARK  Name = ZINC03433179
REMARK  7 active torsions:
REMARK  status: ('A' for Active; 'I' for Inactive)
REMARK    1  A    between atoms: C_1  and  C_2
REMARK    2  A    between atoms: C_2  and  C_3
REMARK    3  A    between atoms: C_7  and  C_28
REMARK    4  A    between atoms: C_8  and  N_9
REMARK    5  A    between atoms: C_10  and  C_12
REMARK    6  A    between atoms: C_12  and  S_13
REMARK    7  A    between atoms: S_13  and  C_14
REMARK                            x       y       z     vdW  Elec       q    Type
REMARK                         _______ _______ _______ _____ _____    ______ ____
ROOT
ATOM      1  S   UNL     1       5.550  -1.952   1.871  0.00  0.00    -0.080 S 
ENDROOT
BRANCH   1   2
ATOM      2  C   UNL     1       4.140  -0.916   1.671  0.00  0.00    +0.175 C 
ATOM      3  N   UNL     1       3.335  -1.036   0.628  0.00  0.00    -0.225 NA
ATOM      4  C   UNL     1       2.215  -0.258   0.505  0.00  0.00    +0.072 A 
ATOM      5  C   UNL     1       1.204  -0.640  -0.382  0.00  0.00    +0.028 A 
ATOM      6  C   UNL     1       0.075   0.140  -0.518  0.00  0.00    +0.002 A 
ATOM      7  C   UNL     1      -0.065   1.302   0.219  0.00  0.00    +0.000 A 
ATOM      8  C   UNL     1       0.929   1.690   1.101  0.00  0.00    +0.008 A 
ATOM      9  C   UNL     1       2.059   0.919   1.246  0.00  0.00    +0.004 A 
ATOM     10  C   UNL     1       3.151   1.318   2.208  0.00  0.00    +0.152 C 
ATOM     11  N   UNL     1       3.824   0.051   2.587  0.00  0.00    -0.220 N 
ATOM     12  N   UNL     1       3.947   0.092   3.970  0.00  0.00    -0.269 N 
ATOM     13  C   UNL     1       3.089   1.060   4.475  0.00  0.00    +0.086 C 
ATOM     14  C   UNL     1       2.579   1.809   3.515  0.00  0.00    +0.018 C 
ATOM     15  H   UNL     1       4.537  -0.467   4.498  0.00  0.00    +0.170 HD
ENDBRANCH   1   2
BRANCH   1  16
ATOM     16  C   UNL     1       5.406  -2.971   0.382  0.00  0.00    +0.173 C 
BRANCH  16  18
ATOM     17  N   UNL     1       6.639  -4.830  -0.686  0.00  0.00    -0.284 N 
ATOM     18  C   UNL     1       6.541  -3.962   0.339  0.00  0.00    +0.227 C 
ATOM     19  O   UNL     1       7.366  -3.977   1.228  0.00  0.00    -0.275 OA
ATOM     20  H   UNL     1       5.950  -4.854  -1.369  0.00  0.00    +0.155 HD
BRANCH  17  26
ATOM     21  C   UNL     1       7.531  -7.063  -0.914  0.00  0.00    -0.026 A 
ATOM     22  C   UNL     1       8.614  -7.916  -0.999  0.00  0.00    +0.005 A 
ATOM     23  C   UNL     1       9.900  -7.412  -0.925  0.00  0.00    +0.001 A 
ATOM     24  C   UNL     1      10.105  -6.053  -0.773  0.00  0.00    +0.005 A 
ATOM     25  C   UNL     1       9.027  -5.195  -0.693  0.00  0.00    -0.029 A 
ATOM     26  C   UNL     1       7.734  -5.698  -0.767  0.00  0.00    +0.040 A 
ATOM     27  C   UNL     1       9.252  -3.714  -0.527  0.00  0.00    +0.045 C 
BRANCH  21  29
ATOM     28  C   UNL     1       5.625  -7.531  -2.430  0.00  0.00    +0.009 C 
ATOM     29  C   UNL     1       6.130  -7.614  -0.988  0.00  0.00    +0.033 C 
ENDBRANCH  21  29
ENDBRANCH  17  26
ENDBRANCH  16  18
ENDBRANCH   1  16
TORSDOF 5
