REMARK  Name = ZINC59489352
REMARK  7 active torsions:
REMARK  status: ('A' for Active; 'I' for Inactive)
REMARK    1  A    between atoms: C_1  and  C_2
REMARK    2  A    between atoms: C_2  and  C_23
REMARK    3  A    between atoms: N_3  and  N_4
REMARK    4  A    between atoms: C_5  and  S_7
REMARK    5  A    between atoms: S_7  and  C_8
REMARK    6  A    between atoms: N_13  and  C_16
REMARK    7  A    between atoms: C_26  and  C_29
REMARK                            x       y       z     vdW  Elec       q    Type
REMARK                         _______ _______ _______ _____ _____    ______ ____
ROOT
ATOM      1  N   UNL     1       0.024   0.035   2.340  0.00  0.00    -0.217 N 
ATOM      2  C   UNL     1       0.044  -0.660   3.529  0.00  0.00    +0.146 C 
ATOM      3  N   UNL     1       0.062  -1.964   3.521  0.00  0.00    -0.380 N 
ATOM      4  H   UNL     1       0.011   1.005   2.345  0.00  0.00    +0.176 HD
ATOM      5  H   UNL     1       0.077  -2.454   4.359  0.00  0.00    +0.158 HD
ATOM      6  H   UNL     1       0.061  -2.445   2.679  0.00  0.00    +0.158 HD
ENDROOT
BRANCH   1   9
ATOM      7  C   UNL     1      -0.018   1.503   0.010  0.00  0.00    +0.068 C 
ATOM      8  C   UNL     1       0.002  -0.004   0.002  0.00  0.00    +0.063 C 
ATOM      9  N   UNL     1       0.022  -0.659   1.123  0.00  0.00    -0.185 NA
BRANCH   8  10
ATOM     10  C   UNL     1      -0.000  -0.734  -1.278  0.00  0.00    -0.002 A 
ATOM     11  C   UNL     1      -0.015  -0.029  -2.486  0.00  0.00    +0.010 A 
ATOM     12  C   UNL     1      -0.018  -0.712  -3.680  0.00  0.00    +0.009 A 
ATOM     13  C   UNL     1      -0.005  -2.107  -3.687  0.00  0.00    -0.018 A 
ATOM     14  C   UNL     1       0.010  -2.812  -2.483  0.00  0.00    +0.009 A 
ATOM     15  C   UNL     1       0.019  -2.132  -1.287  0.00  0.00    +0.010 A 
BRANCH  13  16
ATOM     16  C   UNL     1      -0.007  -2.842  -4.975  0.00  0.00    -0.018 A 
ATOM     17  C   UNL     1      -0.017  -2.141  -6.180  0.00  0.00    +0.008 A 
ATOM     18  C   UNL     1      -0.019  -2.830  -7.376  0.00  0.00    +0.001 A 
ATOM     19  C   UNL     1      -0.012  -4.213  -7.380  0.00  0.00    +0.000 A 
ATOM     20  C   UNL     1      -0.002  -4.914  -6.188  0.00  0.00    +0.001 A 
ATOM     21  C   UNL     1       0.005  -4.236  -4.986  0.00  0.00    +0.008 A 
ENDBRANCH  13  16
ENDBRANCH   8  10
ENDBRANCH   1   9
BRANCH   2  22
ATOM     22  S   UNL     1       0.047   0.213   5.059  0.00  0.00    -0.078 S 
BRANCH  22  23
ATOM     23  C   UNL     1       0.077  -1.099   6.312  0.00  0.00    +0.149 C 
ATOM     24  C   UNL     1       0.154  -0.494   7.729  0.00  0.00    +0.120 C 
ATOM     25  C   UNL     1      -1.120  -0.975   8.389  0.00  0.00    +0.228 C 
ATOM     26  O   UNL     1      -1.460  -0.723   9.525  0.00  0.00    -0.275 OA
ATOM     27  N   UNL     1      -1.813  -1.721   7.519  0.00  0.00    -0.207 N 
ATOM     28  C   UNL     1      -1.231  -1.860   6.318  0.00  0.00    +0.240 C 
ATOM     29  O   UNL     1      -1.680  -2.491   5.386  0.00  0.00    -0.274 OA
BRANCH  27  30
ATOM     30  C   UNL     1      -3.045  -2.311   7.838  0.00  0.00    +0.079 A 
ATOM     31  C   UNL     1      -4.227  -1.624   7.603  0.00  0.00    +0.027 A 
ATOM     32  C   UNL     1      -5.439  -2.208   7.917  0.00  0.00    +0.002 A 
ATOM     33  C   UNL     1      -5.476  -3.476   8.467  0.00  0.00    +0.003 A 
ATOM     34  C   UNL     1      -4.301  -4.165   8.704  0.00  0.00    +0.040 A 
ATOM     35  C   UNL     1      -3.084  -3.588   8.386  0.00  0.00    +0.145 A 
ATOM     36  F   UNL     1      -1.936  -4.263   8.612  0.00  0.00    -0.204 F 
ENDBRANCH  27  30
ENDBRANCH  22  23
ENDBRANCH   2  22
TORSDOF 6
