REMARK  Name = ZINC54360750
REMARK  7 active torsions:
REMARK  status: ('A' for Active; 'I' for Inactive)
REMARK    1  A    between atoms: C_4  and  O_27
REMARK    2  A    between atoms: C_5  and  N_7
REMARK    3  A    between atoms: C_8  and  C_10
REMARK    4  A    between atoms: C_10  and  C_11
REMARK    5  A    between atoms: C_11  and  N_12
REMARK    6  A    between atoms: C_16  and  C_17
REMARK    7  A    between atoms: C_20  and  O_23
REMARK                            x       y       z     vdW  Elec       q    Type
REMARK                         _______ _______ _______ _____ _____    ______ ____
ROOT
ATOM      1  N   UNL     1      -2.028  -6.278   0.277  0.00  0.00    -0.255 N 
ATOM      2  C   UNL     1      -1.738  -7.007  -0.787  0.00  0.00    +0.258 C 
ATOM      3  O   UNL     1      -1.588  -6.505  -1.885  0.00  0.00    -0.269 OA
ATOM      4  C   UNL     1      -1.607  -8.463  -0.575  0.00  0.00    +0.077 C 
ATOM      5  C   UNL     1      -1.320  -9.444  -1.468  0.00  0.00    +0.028 C 
ATOM      6  S   UNL     1      -1.928  -8.576   1.179  0.00  0.00    -0.061 S 
ATOM      7  C   UNL     1      -2.189  -6.838   1.493  0.00  0.00    +0.121 C 
ATOM      8  S   UNL     1      -2.556  -6.069   2.978  0.00  0.00    -0.027 S 
ENDROOT
BRANCH   5   9
ATOM      9  C   UNL     1      -1.385 -10.853  -1.057  0.00  0.00    -0.024 A 
ATOM     10  C   UNL     1      -1.934 -11.198   0.185  0.00  0.00    +0.011 A 
ATOM     11  C   UNL     1      -1.992 -12.519   0.565  0.00  0.00    +0.046 A 
ATOM     12  C   UNL     1      -1.507 -13.511  -0.280  0.00  0.00    +0.117 A 
ATOM     13  C   UNL     1      -0.961 -13.174  -1.513  0.00  0.00    +0.046 A 
ATOM     14  C   UNL     1      -0.904 -11.856  -1.907  0.00  0.00    +0.011 A 
BRANCH  12  15
ATOM     15  O   UNL     1      -1.567 -14.813   0.100  0.00  0.00    -0.507 OA
ATOM     16  H   UNL     1      -2.382 -15.262  -0.162  0.00  0.00    +0.292 HD
ENDBRANCH  12  15
ENDBRANCH   5   9
BRANCH   1  17
ATOM     17  C   UNL     1      -2.172  -4.827   0.133  0.00  0.00    +0.124 C 
BRANCH  17  18
ATOM     18  C   UNL     1      -0.813  -4.156   0.345  0.00  0.00    +0.115 C 
BRANCH  18  20
ATOM     19  N   UNL     1       0.112  -1.862   0.343  0.00  0.00    -0.283 N 
ATOM     20  C   UNL     1      -0.961  -2.664   0.197  0.00  0.00    +0.219 C 
ATOM     21  O   UNL     1      -2.047  -2.184  -0.054  0.00  0.00    -0.275 OA
ATOM     22  H   UNL     1       0.988  -2.249   0.498  0.00  0.00    +0.155 HD
BRANCH  19  27
ATOM     23  C   UNL     1      -1.220   1.452  -0.535  0.00  0.00    +0.002 A 
ATOM     24  C   UNL     1      -0.332   2.280   0.128  0.00  0.00    +0.004 A 
ATOM     25  C   UNL     1       0.705   1.738   0.864  0.00  0.00    +0.047 A 
ATOM     26  C   UNL     1       0.857   0.363   0.939  0.00  0.00    +0.138 A 
ATOM     27  C   UNL     1      -0.037  -0.471   0.272  0.00  0.00    +0.075 A 
ATOM     28  C   UNL     1      -1.076   0.080  -0.465  0.00  0.00    +0.027 A 
BRANCH  26  29
ATOM     29  O   UNL     1       1.878  -0.171   1.661  0.00  0.00    -0.505 OA
ATOM     30  H   UNL     1       1.656  -0.344   2.587  0.00  0.00    +0.292 HD
ENDBRANCH  26  29
ENDBRANCH  19  27
ENDBRANCH  18  20
ENDBRANCH  17  18
ENDBRANCH   1  17
TORSDOF 7
