REMARK  Name = ZINC09360834
REMARK  9 active torsions:
REMARK  status: ('A' for Active; 'I' for Inactive)
REMARK    1  A    between atoms: C_1  and  C_2
REMARK    2  A    between atoms: C_2  and  C_3
REMARK    3  A    between atoms: C_3  and  O_4
REMARK    4  A    between atoms: O_4  and  C_5
REMARK    5  A    between atoms: C_8  and  C_11
REMARK    6  A    between atoms: C_18  and  N_34
REMARK    7  A    between atoms: C_19  and  C_32
REMARK    8  A    between atoms: C_20  and  C_22
REMARK    9  A    between atoms: C_23  and  N_29
REMARK                            x       y       z     vdW  Elec       q    Type
REMARK                         _______ _______ _______ _____ _____    ______ ____
ROOT
ATOM      1  C   UNL     1       3.324  -2.047   3.891  0.00  0.00    +0.074 A 
ATOM      2  C   UNL     1       3.662  -3.164   4.579  0.00  0.00    +0.054 A 
ATOM      3  C   UNL     1       3.690  -2.841   5.950  0.00  0.00    +0.245 A 
ATOM      4  N   UNL     1       3.383  -1.582   6.081  0.00  0.00    -0.135 NA
ATOM      5  N   UNL     1       3.151  -1.046   4.805  0.00  0.00    -0.273 N 
ATOM      6  H   UNL     1       2.908  -0.128   4.607  0.00  0.00    +0.189 HD
ATOM      7  O   UNL     1       3.997  -3.765   6.901  0.00  0.00    -0.421 OA
ATOM      8  C   UNL     1       4.010  -5.060   6.529  0.00  0.00    +0.201 C 
ATOM      9  C   UNL     1       3.998  -5.488   5.249  0.00  0.00    +0.098 C 
ATOM     10  C   UNL     1       3.973  -4.548   4.070  0.00  0.00    +0.105 C 
ENDROOT
BRANCH  10  11
ATOM     11  C   UNL     1       5.317  -4.550   3.389  0.00  0.00    +0.014 A 
ATOM     12  C   UNL     1       5.451  -5.093   2.125  0.00  0.00    +0.132 A 
ATOM     13  C   UNL     1       6.684  -5.096   1.501  0.00  0.00    +0.033 A 
ATOM     14  C   UNL     1       7.784  -4.555   2.140  0.00  0.00    +0.004 A 
ATOM     15  C   UNL     1       7.652  -4.011   3.404  0.00  0.00    +0.020 A 
ATOM     16  C   UNL     1       6.416  -4.003   4.027  0.00  0.00    +0.047 A 
ATOM     17 CL   UNL     1       6.247  -3.314   5.611  0.00  0.00    -0.083 Cl
BRANCH  12  18
ATOM     18  N   UNL     1       4.274  -5.673   1.440  0.00  0.00    +0.057 N 
ATOM     19  O   UNL     1       4.128  -5.515   0.250  0.00  0.00    -0.126 OA
ATOM     20  O   UNL     1       3.458  -6.304   2.070  0.00  0.00    -0.126 OA
ENDBRANCH  12  18
ENDBRANCH  10  11
BRANCH   1  24
ATOM     21  C   UNL     1       2.901  -1.714  -0.325  0.00  0.00    +0.121 A 
ATOM     22  C   UNL     1       3.596  -0.741   0.380  0.00  0.00    +0.046 A 
ATOM     23  C   UNL     1       3.735  -0.846   1.748  0.00  0.00    +0.013 A 
ATOM     24  C   UNL     1       3.176  -1.931   2.423  0.00  0.00    +0.000 A 
ATOM     25  C   UNL     1       2.478  -2.907   1.711  0.00  0.00    +0.013 A 
ATOM     26  C   UNL     1       2.339  -2.793   0.344  0.00  0.00    +0.046 A 
BRANCH  21  27
ATOM     27  O   UNL     1       2.766  -1.608  -1.673  0.00  0.00    -0.492 OA
BRANCH  27  28
ATOM     28  C   UNL     1       3.369  -0.473  -2.298  0.00  0.00    +0.229 C 
BRANCH  28  30
ATOM     29  C   UNL     1       3.758   0.690  -4.474  0.00  0.00    +0.007 C 
ATOM     30  C   UNL     1       3.113  -0.525  -3.805  0.00  0.00    +0.038 C 
ENDBRANCH  28  30
ENDBRANCH  27  28
ENDBRANCH  21  27
ENDBRANCH   1  24
BRANCH   8  31
ATOM     31  N   UNL     1       4.037  -6.009   7.520  0.00  0.00    -0.328 N 
ATOM     32  H   UNL     1       4.047  -5.738   8.451  0.00  0.00    +0.145 HD
ATOM     33  H   UNL     1       4.047  -6.951   7.289  0.00  0.00    +0.145 HD
ENDBRANCH   8  31
BRANCH   9  34
ATOM     34  C   UNL     1       4.009  -6.898   5.000  0.00  0.00    +0.101 C 
ATOM     35  N   UNL     1       4.019  -8.017   4.802  0.00  0.00    -0.191 NA
ENDBRANCH   9  34
TORSDOF 8
