REMARK  Name = ZINC66511717
REMARK  5 active torsions:
REMARK  status: ('A' for Active; 'I' for Inactive)
REMARK    1  A    between atoms: C_1  and  C_2
REMARK    2  A    between atoms: C_6  and  C_8
REMARK    3  A    between atoms: C_8  and  N_13
REMARK    4  A    between atoms: C_14  and  C_16
REMARK    5  A    between atoms: C_16  and  C_17
REMARK                            x       y       z     vdW  Elec       q    Type
REMARK                         _______ _______ _______ _____ _____    ______ ____
ROOT
ATOM      1  N   UNL     1       0.786  -2.093   3.511  0.00  0.00    -0.305 N 
ATOM      2  C   UNL     1       0.319  -0.902   3.936  0.00  0.00    +0.220 C 
ATOM      3  O   UNL     1      -0.752  -0.495   3.540  0.00  0.00    -0.275 OA
ATOM      4  H   UNL     1       1.607  -2.452   3.881  0.00  0.00    +0.150 HD
ENDROOT
BRANCH   1   5
ATOM      5  C   UNL     1       0.053  -2.845   2.489  0.00  0.00    +0.060 C 
ATOM      6  C   UNL     1      -1.360  -3.222   2.999  0.00  0.00    +0.030 C 
ATOM      7  C   UNL     1      -1.086  -4.471   3.874  0.00  0.00    +0.002 C 
ATOM      8  C   UNL     1       0.011  -5.237   3.106  0.00  0.00    +0.002 C 
ATOM      9  C   UNL     1       0.735  -4.204   2.226  0.00  0.00    +0.030 C 
BRANCH   5  15
ATOM     10  C   UNL     1      -2.143  -1.966  -1.921  0.00  0.00    +0.044 C 
ATOM     11  C   UNL     1      -1.092  -1.626  -0.895  0.00  0.00    -0.050 A 
ATOM     12  C   UNL     1      -0.215  -0.582  -1.123  0.00  0.00    +0.003 A 
ATOM     13  C   UNL     1       0.748  -0.270  -0.183  0.00  0.00    +0.001 A 
ATOM     14  C   UNL     1       0.835  -1.003   0.986  0.00  0.00    +0.006 A 
ATOM     15  C   UNL     1      -0.042  -2.046   1.215  0.00  0.00    -0.024 A 
ATOM     16  C   UNL     1      -1.009  -2.355   0.276  0.00  0.00    +0.009 A 
ENDBRANCH   5  15
ENDBRANCH   1   5
BRANCH   2  17
ATOM     17  C   UNL     1       1.128  -0.078   4.903  0.00  0.00    +0.152 C 
BRANCH  17  18
ATOM     18  C   UNL     1       0.389   1.198   5.217  0.00  0.00    +0.069 A 
ATOM     19  C   UNL     1       0.066   1.637   6.444  0.00  0.00    +0.117 A 
ATOM     20  N   UNL     1      -0.607   2.847   6.297  0.00  0.00    -0.300 N 
ATOM     21  C   UNL     1      -1.194   3.801   7.099  0.00  0.00    +0.100 A 
ATOM     22  C   UNL     1      -1.770   4.879   6.568  0.00  0.00    +0.067 A 
ATOM     23  S   UNL     1      -1.513   4.611   4.821  0.00  0.00    -0.058 S 
ATOM     24  C   UNL     1      -0.647   3.064   4.945  0.00  0.00    +0.178 A 
ATOM     25  N   UNL     1      -0.053   2.090   4.317  0.00  0.00    -0.226 NA
ENDBRANCH  17  18
ENDBRANCH   2  17
TORSDOF 4
