REMARK  Name = ZINC04597890
REMARK  4 active torsions:
REMARK  status: ('A' for Active; 'I' for Inactive)
REMARK    1  A    between atoms: C_1  and  C_2
REMARK    2  A    between atoms: C_2  and  C_27
REMARK    3  A    between atoms: C_6  and  C_18
REMARK    4  A    between atoms: C_9  and  C_12
REMARK                            x       y       z     vdW  Elec       q    Type
REMARK                         _______ _______ _______ _____ _____    ______ ____
ROOT
ATOM      1  C   UNL     1      -0.535   8.521   1.331  0.00  0.00    +0.011 C 
ATOM      2  C   UNL     1      -0.321   7.539   2.484  0.00  0.00    -0.023 C 
ATOM      3  C   UNL     1      -0.936   6.183   2.125  0.00  0.00    +0.059 C 
ATOM      4  C   UNL     1      -0.230   5.625   0.916  0.00  0.00    +0.033 C 
ATOM      5  C   UNL     1       1.056   5.882   0.664  0.00  0.00    +0.021 C 
ATOM      6  C   UNL     1       1.741   5.281  -0.534  0.00  0.00    +0.060 C 
ATOM      7  C   UNL     1       1.898   3.777  -0.393  0.00  0.00    +0.070 C 
ATOM      8  C   UNL     1       0.583   3.068  -0.342  0.00  0.00    +0.067 C 
ATOM      9  N   UNL     1      -0.591   3.519  -0.186  0.00  0.00    -0.187 NA
ATOM     10  N   UNL     1      -0.925   4.848   0.033  0.00  0.00    -0.241 N 
ATOM     11  C   UNL     1       1.805   6.722   1.508  0.00  0.00    +0.162 C 
ATOM     12  O   UNL     1       2.972   6.946   1.251  0.00  0.00    -0.292 OA
ATOM     13  C   UNL     1       1.179   7.348   2.725  0.00  0.00    +0.086 C 
ATOM     14  C   UNL     1      -0.983   8.083   3.752  0.00  0.00    +0.011 C 
ATOM     15  H   UNL     1      -1.767   5.301  -0.511  0.00  0.00    +0.174 HD
ENDROOT
BRANCH   8  16
ATOM     16  C   UNL     1       0.665   1.605  -0.505  0.00  0.00    -0.002 A 
ATOM     17  C   UNL     1      -0.497   0.829  -0.477  0.00  0.00    +0.010 A 
ATOM     18  C   UNL     1      -0.412  -0.539  -0.631  0.00  0.00    +0.001 A 
ATOM     19  C   UNL     1       0.819  -1.143  -0.813  0.00  0.00    +0.000 A 
ATOM     20  C   UNL     1       1.974  -0.381  -0.843  0.00  0.00    +0.001 A 
ATOM     21  C   UNL     1       1.905   0.988  -0.690  0.00  0.00    +0.010 A 
ENDBRANCH   8  16
BRANCH   6  22
ATOM     22  C   UNL     1       0.925   5.577  -1.766  0.00  0.00    -0.039 A 
ATOM     23  C   UNL     1       0.829   4.635  -2.773  0.00  0.00    +0.004 A 
ATOM     24  C   UNL     1       0.076   4.904  -3.902  0.00  0.00    +0.000 A 
ATOM     25  C   UNL     1      -0.570   6.120  -4.027  0.00  0.00    +0.000 A 
ATOM     26  C   UNL     1      -0.469   7.064  -3.022  0.00  0.00    +0.000 A 
ATOM     27  C   UNL     1       0.279   6.792  -1.891  0.00  0.00    +0.004 A 
ENDBRANCH   6  22
TORSDOF 2
