REMARK  Name = ZINC40838379
REMARK  5 active torsions:
REMARK  status: ('A' for Active; 'I' for Inactive)
REMARK    1  A    between atoms: C_1  and  C_2
REMARK    2  A    between atoms: N_12  and  C_20
REMARK    3  A    between atoms: C_20  and  C_21
REMARK    4  A    between atoms: C_21  and  C_22
REMARK    5  A    between atoms: N_24  and  C_25
REMARK                            x       y       z     vdW  Elec       q    Type
REMARK                         _______ _______ _______ _____ _____    ______ ____
ROOT
ATOM      1  C   UNL     1      -2.418   1.188   2.217  0.00  0.00    +0.009 C 
ATOM      2  C   UNL     1      -2.495  -0.337   2.323  0.00  0.00    +0.003 C 
ATOM      3  C   UNL     1      -2.947  -0.920   0.982  0.00  0.00    +0.006 C 
ATOM      4  C   UNL     1      -3.056  -2.442   1.097  0.00  0.00    +0.019 C 
ATOM      5  C   UNL     1      -1.681  -3.024   1.437  0.00  0.00    +0.106 C 
ATOM      6  N   UNL     1      -1.174  -2.363   2.648  0.00  0.00    -0.311 N 
ATOM      7  C   UNL     1      -1.113  -0.895   2.679  0.00  0.00    +0.110 C 
ATOM      8  C   UNL     1      -0.762  -3.108   3.738  0.00  0.00    +0.188 A 
ATOM      9  C   UNL     1      -0.665  -4.576   3.633  0.00  0.00    +0.292 A 
ATOM     10  O   UNL     1      -0.944  -5.140   2.591  0.00  0.00    -0.264 OA
ATOM     11  N   UNL     1      -0.261  -5.287   4.709  0.00  0.00    -0.303 N 
ATOM     12  C   UNL     1       0.050  -4.617   5.878  0.00  0.00    +0.070 A 
ATOM     13  C   UNL     1       0.469  -5.325   7.000  0.00  0.00    +0.028 A 
ATOM     14  C   UNL     1       0.777  -4.650   8.162  0.00  0.00    +0.002 A 
ATOM     15  C   UNL     1       0.672  -3.267   8.221  0.00  0.00    +0.002 A 
ATOM     16  C   UNL     1       0.263  -2.553   7.132  0.00  0.00    +0.030 A 
ATOM     17  C   UNL     1      -0.056  -3.216   5.938  0.00  0.00    +0.090 A 
ATOM     18  N   UNL     1      -0.455  -2.510   4.860  0.00  0.00    -0.225 NA
ENDROOT
BRANCH  11  19
ATOM     19  C   UNL     1      -0.154  -6.746   4.638  0.00  0.00    +0.135 C 
BRANCH  19  20
ATOM     20  C   UNL     1       1.254  -7.133   4.178  0.00  0.00    +0.118 C 
BRANCH  20  21
ATOM     21  C   UNL     1       1.364  -8.634   4.105  0.00  0.00    +0.219 C 
ATOM     22  O   UNL     1       0.410  -9.326   4.392  0.00  0.00    -0.275 OA
ATOM     23  N   UNL     1       2.522  -9.207   3.721  0.00  0.00    -0.281 N 
ATOM     24  H   UNL     1       3.312  -8.660   3.587  0.00  0.00    +0.155 HD
BRANCH  23  25
ATOM     25  C   UNL     1       2.584 -10.592   3.516  0.00  0.00    +0.105 A 
ATOM     26  C   UNL     1       3.468 -11.367   4.257  0.00  0.00    +0.147 A 
ATOM     27  C   UNL     1       3.527 -12.734   4.051  0.00  0.00    +0.040 A 
ATOM     28  C   UNL     1       2.707 -13.329   3.110  0.00  0.00    +0.006 A 
ATOM     29  C   UNL     1       1.826 -12.561   2.371  0.00  0.00    +0.040 A 
ATOM     30  C   UNL     1       1.758 -11.194   2.575  0.00  0.00    +0.147 A 
ATOM     31  F   UNL     1       0.892 -10.446   1.856  0.00  0.00    -0.203 F 
ATOM     32  F   UNL     1       4.270 -10.786   5.176  0.00  0.00    -0.203 F 
ENDBRANCH  23  25
ENDBRANCH  20  21
ENDBRANCH  19  20
ENDBRANCH  11  19
TORSDOF 4
