REMARK  Name = ZINC23356336
REMARK  7 active torsions:
REMARK  status: ('A' for Active; 'I' for Inactive)
REMARK    1  A    between atoms: C_1  and  C_2
REMARK    2  A    between atoms: C_5  and  N_9
REMARK    3  A    between atoms: C_10  and  C_12
REMARK    4  A    between atoms: C_12  and  C_14
REMARK    5  A    between atoms: C_12  and  N_15
REMARK    6  A    between atoms: N_18  and  C_21
REMARK    7  A    between atoms: C_21  and  C_22
REMARK                            x       y       z     vdW  Elec       q    Type
REMARK                         _______ _______ _______ _____ _____    ______ ____
ROOT
ATOM      1  N   UNL     1      -0.114  -6.834  -2.574  0.00  0.00    +0.389 N 
ATOM      2  C   UNL     1      -0.083  -8.303  -2.572  0.00  0.00    -0.062 C 
ATOM      3  C   UNL     1      -0.040  -8.814  -4.013  0.00  0.00    +0.066 C 
ATOM      4  N   UNL     1      -1.226  -8.333  -4.736  0.00  0.00    -0.302 NA
ATOM      5  C   UNL     1      -1.284  -6.865  -4.725  0.00  0.00    +0.066 C 
ATOM      6  C   UNL     1      -1.316  -6.369  -3.278  0.00  0.00    -0.062 C 
ATOM      7  H   UNL     1       0.708  -6.482  -3.043  0.00  0.00    -0.081 HD
ENDROOT
BRANCH   1   8
ATOM      8  C   UNL     1      -0.136  -6.343  -1.190  0.00  0.00    +0.017 C 
ATOM      9  C   UNL     1       1.081  -6.885  -0.437  0.00  0.00    -0.004 C 
BRANCH   8  11
ATOM     10  N   UNL     1      -0.652  -4.147  -0.174  0.00  0.00    -0.286 N 
ATOM     11  C   UNL     1      -0.097  -4.837  -1.191  0.00  0.00    +0.203 C 
ATOM     12  O   UNL     1       0.435  -4.244  -2.106  0.00  0.00    -0.277 OA
ATOM     13  H   UNL     1      -1.020  -4.620   0.588  0.00  0.00    +0.155 HD
BRANCH  10  18
ATOM     14  C   UNL     1      -0.838   1.521  -0.360  0.00  0.00    +0.044 C 
ATOM     15  C   UNL     1      -0.789   0.015  -0.310  0.00  0.00    -0.049 A 
ATOM     16  C   UNL     1       0.239  -0.663  -0.940  0.00  0.00    +0.005 A 
ATOM     17  C   UNL     1       0.287  -2.042  -0.897  0.00  0.00    +0.024 A 
ATOM     18  C   UNL     1      -0.698  -2.749  -0.220  0.00  0.00    +0.047 A 
ATOM     19  C   UNL     1      -1.729  -2.066   0.413  0.00  0.00    +0.039 A 
ATOM     20  C   UNL     1      -1.768  -0.685   0.370  0.00  0.00    +0.020 A 
ATOM     21 BR   UNL     1      -3.073  -3.023   1.337  0.00  0.00    -0.048 Br
ENDBRANCH  10  18
ENDBRANCH   8  11
ENDBRANCH   1   8
BRANCH   4  22
ATOM     22  C   UNL     1      -1.251  -8.851  -6.111  0.00  0.00    +0.119 C 
BRANCH  22  23
ATOM     23  C   UNL     1      -2.587  -8.545  -6.738  0.00  0.00    -0.030 A 
ATOM     24  C   UNL     1      -3.627  -9.448  -6.620  0.00  0.00    +0.009 A 
ATOM     25  C   UNL     1      -4.854  -9.172  -7.193  0.00  0.00    +0.050 A 
ATOM     26  C   UNL     1      -5.044  -7.989  -7.890  0.00  0.00    +0.166 A 
ATOM     27  C   UNL     1      -3.995  -7.080  -8.009  0.00  0.00    +0.167 A 
ATOM     28  C   UNL     1      -2.770  -7.361  -7.427  0.00  0.00    +0.054 A 
ATOM     29  O   UNL     1      -4.429  -6.007  -8.733  0.00  0.00    -0.453 OA
ATOM     30  C   UNL     1      -5.625  -6.451  -9.401  0.00  0.00    +0.466 C 
ATOM     31  O   UNL     1      -6.134  -7.485  -8.538  0.00  0.00    -0.453 OA
ENDBRANCH  22  23
ENDBRANCH   4  22
TORSDOF 5
