REMARK  Name = ZINC27991502
REMARK  8 active torsions:
REMARK  status: ('A' for Active; 'I' for Inactive)
REMARK    1  A    between atoms: C_1  and  C_2
REMARK    2  A    between atoms: C_5  and  C_8
REMARK    3  A    between atoms: C_8  and  C_10
REMARK    4  A    between atoms: C_8  and  N_26
REMARK    5  A    between atoms: C_10  and  N_11
REMARK    6  A    between atoms: C_12  and  C_14
REMARK    7  A    between atoms: C_15  and  C_25
REMARK    8  A    between atoms: C_19  and  C_23
REMARK                            x       y       z     vdW  Elec       q    Type
REMARK                         _______ _______ _______ _____ _____    ______ ____
ROOT
ATOM      1  C   UNL     1       0.164   0.031   0.045  0.00  0.00    +0.094 C 
ENDROOT
BRANCH   1   2
ATOM      2  N   UNL     1       0.634  -0.442  -1.260  0.00  0.00    -0.310 N 
ATOM      3  C   UNL     1       0.773  -1.763  -1.488  0.00  0.00    +0.280 C 
ATOM      4  O   UNL     1       0.507  -2.562  -0.610  0.00  0.00    -0.267 OA
ATOM      5  H   UNL     1       0.875   0.282  -2.053  0.00  0.00    +0.149 HD
BRANCH   3   6
ATOM      6  C   UNL     1       1.244  -2.237  -2.796  0.00  0.00    +0.193 A 
ATOM      7  C   UNL     1       1.421  -3.539  -3.138  0.00  0.00    +0.008 A 
ATOM      8  C   UNL     1       1.896  -3.534  -4.521  0.00  0.00    +0.025 A 
ATOM      9  C   UNL     1       2.253  -4.532  -5.432  0.00  0.00    +0.032 A 
ATOM     10  C   UNL     1       2.669  -4.186  -6.688  0.00  0.00    +0.045 A 
ATOM     11  C   UNL     1       2.737  -2.850  -7.062  0.00  0.00    -0.029 A 
ATOM     12  C   UNL     1       2.388  -1.852  -6.179  0.00  0.00    +0.051 A 
ATOM     13  C   UNL     1       1.963  -2.180  -4.897  0.00  0.00    +0.136 A 
ATOM     14  O   UNL     1       1.561  -1.444  -3.841  0.00  0.00    -0.450 OA
ATOM     15  C   UNL     1       3.198  -2.489  -8.451  0.00  0.00    +0.045 C 
ATOM     16 CL   UNL     1       3.113  -5.424  -7.821  0.00  0.00    -0.083 Cl
ATOM     17  C   UNL     1       1.176  -4.746  -2.269  0.00  0.00    +0.048 C 
ENDBRANCH   3   6
ENDBRANCH   1   2
BRANCH   1  18
ATOM     18  C   UNL     1       0.002   1.552   0.008  0.00  0.00    -0.020 C 
BRANCH  18  23
ATOM     19  C   UNL     1       5.144   4.019  -0.921  0.00  0.00    +0.044 C 
ATOM     20  C   UNL     1       3.803   3.376  -0.679  0.00  0.00    -0.050 A 
ATOM     21  C   UNL     1       2.912   3.220  -1.725  0.00  0.00    +0.003 A 
ATOM     22  C   UNL     1       1.682   2.630  -1.502  0.00  0.00    +0.002 A 
ATOM     23  C   UNL     1       1.343   2.195  -0.235  0.00  0.00    -0.059 A 
ATOM     24  C   UNL     1       2.231   2.356   0.812  0.00  0.00    +0.002 A 
ATOM     25  C   UNL     1       3.464   2.941   0.589  0.00  0.00    +0.003 A 
ENDBRANCH  18  23
BRANCH  18  26
ATOM     26  N   UNL     1      -0.540   2.018   1.291  0.00  0.00    +0.385 N 
ATOM     27  C   UNL     1      -1.825   1.372   1.586  0.00  0.00    -0.078 C 
ATOM     28  C   UNL     1      -2.287   1.768   2.990  0.00  0.00    -0.019 C 
ATOM     29  C   UNL     1      -2.432   3.291   3.064  0.00  0.00    -0.004 C 
ATOM     30  C   UNL     1      -1.092   3.941   2.705  0.00  0.00    -0.019 C 
ATOM     31  C   UNL     1      -0.665   3.481   1.310  0.00  0.00    -0.078 C 
ATOM     32  H   UNL     1       0.168   1.732   2.083  0.00  0.00    -0.081 HD
ENDBRANCH  18  26
ENDBRANCH   1  18
TORSDOF 5
