REMARK  Name = ZINC09013539
REMARK  2 active torsions:
REMARK  status: ('A' for Active; 'I' for Inactive)
REMARK    1  A    between atoms: C_4  and  C_7
REMARK    2  A    between atoms: C_12  and  C_26
REMARK                            x       y       z     vdW  Elec       q    Type
REMARK                         _______ _______ _______ _____ _____    ______ ____
ROOT
ATOM      1  C   UNL     1       1.658   4.675   0.004  0.00  0.00    +0.136 C 
ATOM      2  C   UNL     1       0.876   5.974   0.015  0.00  0.00    +0.127 C 
ATOM      3  C   UNL     1       1.520   7.150   0.007  0.00  0.00    +0.145 C 
ATOM      4  C   UNL     1       0.767   8.454   0.017  0.00  0.00    +0.086 C 
ATOM      5  C   UNL     1      -0.566   8.262   0.746  0.00  0.00    +0.068 C 
ATOM      6  C   UNL     1      -1.357   7.152   0.049  0.00  0.00    +0.063 C 
ATOM      7  C   UNL     1      -0.530   5.888   0.034  0.00  0.00    +0.036 C 
ATOM      8  N   UNL     1      -1.129   4.727   0.038  0.00  0.00    -0.221 NA
ATOM      9  C   UNL     1      -0.508   3.532   0.026  0.00  0.00    +0.232 A 
ATOM     10  N   UNL     1       0.861   3.440   0.010  0.00  0.00    -0.300 N 
ATOM     11  C   UNL     1       1.198   2.103   0.002  0.00  0.00    +0.071 A 
ATOM     12  C   UNL     1       2.401   1.411  -0.012  0.00  0.00    +0.028 A 
ATOM     13  C   UNL     1       2.401   0.032  -0.018  0.00  0.00    +0.002 A 
ATOM     14  C   UNL     1       1.205  -0.672  -0.012  0.00  0.00    +0.002 A 
ATOM     15  C   UNL     1       0.002  -0.004   0.002  0.00  0.00    +0.030 A 
ATOM     16  C   UNL     1      -0.017   1.395   0.010  0.00  0.00    +0.091 A 
ATOM     17  N   UNL     1      -1.015   2.310   0.030  0.00  0.00    -0.211 NA
ATOM     18  O   UNL     1       2.869   7.165  -0.009  0.00  0.00    -0.297 OA
ENDROOT
BRANCH   1  22
ATOM     19  C   UNL     1       4.134   4.642  -3.477  0.00  0.00    +0.000 A 
ATOM     20  C   UNL     1       4.708   4.699  -2.221  0.00  0.00    +0.000 A 
ATOM     21  C   UNL     1       3.907   4.709  -1.094  0.00  0.00    +0.006 A 
ATOM     22  C   UNL     1       2.532   4.663  -1.224  0.00  0.00    -0.024 A 
ATOM     23  C   UNL     1       1.958   4.601  -2.480  0.00  0.00    +0.006 A 
ATOM     24  C   UNL     1       2.759   4.595  -3.607  0.00  0.00    +0.000 A 
ENDBRANCH   1  22
BRANCH   5  25
ATOM     25  C   UNL     1      -1.354   9.546   0.703  0.00  0.00    +0.109 A 
ATOM     26  C   UNL     1      -1.774  10.247   1.771  0.00  0.00    +0.045 A 
ATOM     27  C   UNL     1      -2.470  11.373   1.274  0.00  0.00    +0.041 A 
ATOM     28  C   UNL     1      -2.433  11.293  -0.068  0.00  0.00    +0.195 A 
ATOM     29  O   UNL     1      -1.751  10.187  -0.408  0.00  0.00    -0.468 OA
ENDBRANCH   5  25
TORSDOF 2
