REMARK  Name = ZINC35685828
REMARK  6 active torsions:
REMARK  status: ('A' for Active; 'I' for Inactive)
REMARK    1  A    between atoms: C_1  and  O_2
REMARK    2  A    between atoms: O_2  and  C_3
REMARK    3  A    between atoms: C_6  and  S_13
REMARK    4  A    between atoms: S_13  and  N_16
REMARK    5  A    between atoms: N_16  and  C_17
REMARK    6  A    between atoms: C_20  and  O_27
REMARK                            x       y       z     vdW  Elec       q    Type
REMARK                         _______ _______ _______ _____ _____    ______ ____
ROOT
ATOM      1  S   UNL     1      -5.360  -2.753   0.079  0.00  0.00    +0.073 S 
ATOM      2  O   UNL     1      -5.595  -3.826   0.980  0.00  0.00    -0.150 OA
ATOM      3  O   UNL     1      -6.135  -1.562   0.094  0.00  0.00    -0.150 OA
ENDROOT
BRANCH   1   7
ATOM      4  C   UNL     1      -1.014  -1.518   0.689  0.00  0.00    +0.128 A 
ATOM      5  C   UNL     1      -1.585  -2.508   1.440  0.00  0.00    +0.048 A 
ATOM      6  C   UNL     1      -2.913  -2.877   1.246  0.00  0.00    +0.033 A 
ATOM      7  C   UNL     1      -3.682  -2.265   0.304  0.00  0.00    +0.116 A 
ATOM      8  C   UNL     1      -3.133  -1.242  -0.488  0.00  0.00    +0.012 A 
ATOM      9  C   UNL     1      -1.783  -0.859  -0.291  0.00  0.00    +0.026 A 
ATOM     10  C   UNL     1      -1.235   0.166  -1.080  0.00  0.00    +0.012 A 
ATOM     11  C   UNL     1      -2.008   0.780  -2.018  0.00  0.00    +0.001 A 
ATOM     12  C   UNL     1      -3.337   0.407  -2.208  0.00  0.00    +0.001 A 
ATOM     13  C   UNL     1      -3.898  -0.589  -1.470  0.00  0.00    +0.010 A 
BRANCH   4  15
ATOM     14  C   UNL     1       0.997  -1.882   1.902  0.00  0.00    +0.277 C 
ATOM     15  O   UNL     1       0.283  -1.169   0.890  0.00  0.00    -0.495 OA
ENDBRANCH   4  15
ENDBRANCH   1   7
BRANCH   1  16
ATOM     16  N   UNL     1      -5.487  -3.381  -1.448  0.00  0.00    -0.216 N 
ATOM     17  H   UNL     1      -6.086  -2.972  -2.092  0.00  0.00    +0.174 HD
BRANCH  16  18
ATOM     18  C   UNL     1      -4.730  -4.498  -1.809  0.00  0.00    +0.056 A 
ATOM     19  C   UNL     1      -4.477  -5.492  -0.888  0.00  0.00    +0.029 A 
ATOM     20  C   UNL     1      -3.725  -6.610  -1.235  0.00  0.00    +0.048 A 
ATOM     21  C   UNL     1      -3.218  -6.755  -2.495  0.00  0.00    +0.125 A 
ATOM     22  C   UNL     1      -3.456  -5.761  -3.465  0.00  0.00    +0.025 A 
ATOM     23  C   UNL     1      -4.225  -4.622  -3.121  0.00  0.00    +0.008 A 
ATOM     24  C   UNL     1      -4.465  -3.634  -4.089  0.00  0.00    +0.010 A 
ATOM     25  C   UNL     1      -3.961  -3.785  -5.345  0.00  0.00    +0.001 A 
ATOM     26  C   UNL     1      -3.209  -4.907  -5.685  0.00  0.00    +0.001 A 
ATOM     27  C   UNL     1      -2.948  -5.880  -4.769  0.00  0.00    +0.012 A 
BRANCH  21  28
ATOM     28  O   UNL     1      -2.485  -7.855  -2.813  0.00  0.00    -0.506 OA
ATOM     29  H   UNL     1      -3.010  -8.592  -3.153  0.00  0.00    +0.292 HD
ENDBRANCH  21  28
ENDBRANCH  16  18
ENDBRANCH   1  16
TORSDOF 5
