REMARK  Name = ZINC13494935
REMARK  12 active torsions:
REMARK  status: ('A' for Active; 'I' for Inactive)
REMARK    1  A    between atoms: C_1  and  C_2
REMARK    2  A    between atoms: C_2  and  C_3
REMARK    3  A    between atoms: C_3  and  C_5
REMARK    4  A    between atoms: C_3  and  N_15
REMARK    5  A    between atoms: N_9  and  C_10
REMARK    6  A    between atoms: N_15  and  C_16
REMARK    7  A    between atoms: N_15  and  C_24
REMARK    8  A    between atoms: C_16  and  C_17
REMARK    9  A    between atoms: C_24  and  C_25
REMARK   10  A    between atoms: C_29  and  O_37
REMARK   11  A    between atoms: O_37  and  C_38
REMARK   12  A    between atoms: C_38  and  C_39
REMARK                            x       y       z     vdW  Elec       q    Type
REMARK                         _______ _______ _______ _____ _____    ______ ____
ROOT
ATOM      1  N   UNL     1      -0.766   1.572   1.311  0.00  0.00    -0.284 NA
ENDROOT
BRANCH   1   2
ATOM      2  C   UNL     1      -0.003   1.350   2.547  0.00  0.00    +0.127 C 
BRANCH   2   3
ATOM      3  C   UNL     1       0.753   0.051   2.444  0.00  0.00    +0.169 A 
ATOM      4  N   UNL     1       1.495  -0.346   1.439  0.00  0.00    -0.112 NA
ATOM      5  N   UNL     1       1.971  -1.507   1.730  0.00  0.00    -0.023 NA
ATOM      6  N   UNL     1       1.551  -1.862   2.894  0.00  0.00    -0.044 NA
ATOM      7  N   UNL     1       0.801  -0.926   3.369  0.00  0.00    -0.225 N 
BRANCH   7   8
ATOM      8  C   UNL     1       0.127  -0.927   4.670  0.00  0.00    +0.111 C 
ATOM      9  C   UNL     1       1.163  -1.090   5.802  0.00  0.00    +0.027 C 
ATOM     10  C   UNL     1       0.447  -1.986   6.844  0.00  0.00    +0.002 C 
ATOM     11  C   UNL     1      -0.337  -2.984   5.957  0.00  0.00    +0.002 C 
ATOM     12  C   UNL     1      -0.826  -2.131   4.769  0.00  0.00    +0.027 C 
ENDBRANCH   7   8
ENDBRANCH   2   3
BRANCH   2  14
ATOM     13  C   UNL     1       0.213   3.798   2.998  0.00  0.00    +0.006 C 
ATOM     14  C   UNL     1       0.985   2.501   2.749  0.00  0.00    +0.023 C 
ENDBRANCH   2  14
ENDBRANCH   1   2
BRANCH   1  15
ATOM     15  C   UNL     1      -1.919   0.665   1.234  0.00  0.00    +0.122 C 
BRANCH  15  16
ATOM     16  C   UNL     1      -2.906   1.015   2.318  0.00  0.00    -0.015 A 
ATOM     17  C   UNL     1      -3.042   0.193   3.421  0.00  0.00    +0.006 A 
ATOM     18  C   UNL     1      -3.945   0.516   4.417  0.00  0.00    +0.000 A 
ATOM     19  C   UNL     1      -4.719   1.656   4.305  0.00  0.00    +0.001 A 
ATOM     20  C   UNL     1      -4.588   2.475   3.200  0.00  0.00    +0.020 A 
ATOM     21  C   UNL     1      -3.681   2.155   2.205  0.00  0.00    +0.045 A 
ATOM     22 CL   UNL     1      -3.517   3.183   0.817  0.00  0.00    -0.083 Cl
ENDBRANCH  15  16
ENDBRANCH   1  15
BRANCH   1  23
ATOM     23  C   UNL     1       0.094   1.431   0.129  0.00  0.00    +0.126 C 
BRANCH  23  24
ATOM     24  C   UNL     1      -0.533   2.150  -1.037  0.00  0.00    +0.031 A 
ATOM     25  C   UNL     1      -0.170   3.426  -1.319  0.00  0.00    +0.020 A 
ATOM     26  C   UNL     1      -0.794   4.096  -2.461  0.00  0.00    +0.002 A 
ATOM     27  C   UNL     1      -0.454   5.410  -2.801  0.00  0.00    +0.055 A 
ATOM     28  C   UNL     1      -1.066   6.013  -3.882  0.00  0.00    +0.121 A 
ATOM     29  C   UNL     1      -2.015   5.320  -4.630  0.00  0.00    +0.047 A 
ATOM     30  C   UNL     1      -2.357   4.027  -4.304  0.00  0.00    +0.030 A 
ATOM     31  C   UNL     1      -1.753   3.400  -3.220  0.00  0.00    +0.049 A 
ATOM     32  N   UNL     1      -2.082   2.104  -2.878  0.00  0.00    -0.322 N 
ATOM     33  H   UNL     1      -2.831   1.553  -3.466  0.00  0.00    +0.169 HD
ATOM     34  C   UNL     1      -1.500   1.496  -1.830  0.00  0.00    +0.254 A 
ATOM     35  O   UNL     1      -1.815   0.350  -1.557  0.00  0.00    -0.268 OA
BRANCH  28  36
ATOM     36  O   UNL     1      -0.741   7.290  -4.217  0.00  0.00    -0.492 OA
BRANCH  36  37
ATOM     37  C   UNL     1      -1.410   7.855  -5.346  0.00  0.00    +0.225 C 
ATOM     38  C   UNL     1      -0.917   9.286  -5.568  0.00  0.00    +0.048 C 
ENDBRANCH  36  37
ENDBRANCH  28  36
ENDBRANCH  23  24
ENDBRANCH   1  23
TORSDOF 10
