REMARK  Name = ZINC67121785
REMARK  6 active torsions:
REMARK  status: ('A' for Active; 'I' for Inactive)
REMARK    1  A    between atoms: C_3  and  O_24
REMARK    2  A    between atoms: C_6  and  C_7
REMARK    3  A    between atoms: C_7  and  N_8
REMARK    4  A    between atoms: N_8  and  C_9
REMARK    5  A    between atoms: C_18  and  C_21
REMARK    6  A    between atoms: O_24  and  C_25
REMARK                            x       y       z     vdW  Elec       q    Type
REMARK                         _______ _______ _______ _____ _____    ______ ____
ROOT
ATOM      1  N   UNL     1      -1.888  -0.809  -1.691  0.00  0.00    +0.384 N 
ATOM      2  H   UNL     1      -2.168   0.078  -2.082  0.00  0.00    -0.085 HD
ATOM      3  H   UNL     1      -1.234  -1.259  -2.313  0.00  0.00    -0.085 HD
ENDROOT
BRANCH   1   4
ATOM      4  C   UNL     1      -3.070  -1.665  -1.521  0.00  0.00    -0.068 C 
ATOM      5  C   UNL     1      -2.631  -3.051  -1.044  0.00  0.00    +0.003 C 
ATOM      6  C   UNL     1      -3.868  -3.930  -0.834  0.00  0.00    +0.105 C 
ATOM      7  N   UNL     1      -4.657  -3.939  -2.074  0.00  0.00    -0.315 N 
ATOM      8  C   UNL     1      -5.055  -2.656  -2.668  0.00  0.00    +0.105 C 
ATOM      9  C   UNL     1      -3.804  -1.792  -2.857  0.00  0.00    +0.003 C 
ATOM     10  C   UNL     1      -5.018  -5.136  -2.671  0.00  0.00    +0.121 A 
ATOM     11  C   UNL     1      -4.833  -6.333  -1.981  0.00  0.00    +0.045 A 
ATOM     12  C   UNL     1      -5.191  -7.513  -2.574  0.00  0.00    +0.024 A 
ATOM     13  C   UNL     1      -5.736  -7.475  -3.866  0.00  0.00    +0.070 A 
ATOM     14  C   UNL     1      -5.894  -6.240  -4.499  0.00  0.00    +0.131 A 
ATOM     15  N   UNL     1      -5.541  -5.127  -3.889  0.00  0.00    -0.239 NA
BRANCH  13  16
ATOM     16  C   UNL     1      -6.125  -8.684  -4.527  0.00  0.00    +0.101 C 
ATOM     17  N   UNL     1      -6.434  -9.644  -5.051  0.00  0.00    -0.191 NA
ENDBRANCH  13  16
ENDBRANCH   1   4
BRANCH   1  18
ATOM     18  C   UNL     1      -1.250  -0.589  -0.386  0.00  0.00    -0.046 C 
BRANCH  18  24
ATOM     19  C   UNL     1      -0.162   1.663  -0.472  0.00  0.00    +0.005 A 
ATOM     20  C   UNL     1       0.948   2.470  -0.631  0.00  0.00    +0.047 A 
ATOM     21  C   UNL     1       2.188   1.901  -0.880  0.00  0.00    +0.145 A 
ATOM     22  C   UNL     1       2.311   0.521  -0.968  0.00  0.00    +0.083 A 
ATOM     23  C   UNL     1       1.197  -0.282  -0.808  0.00  0.00    +0.025 A 
ATOM     24  C   UNL     1      -0.038   0.289  -0.560  0.00  0.00    -0.063 A 
ATOM     25 CL   UNL     1       3.861  -0.195  -1.279  0.00  0.00    -0.080 Cl
BRANCH  21  26
ATOM     26  O   UNL     1       3.281   2.694  -1.037  0.00  0.00    -0.433 OA
BRANCH  26  27
ATOM     27  C   UNL     1       3.080   4.105  -0.934  0.00  0.00    +0.541 C 
ATOM     28  F   UNL     1       2.171   4.519  -1.914  0.00  0.00    -0.166 F 
ATOM     29  F   UNL     1       2.572   4.412   0.333  0.00  0.00    -0.166 F 
ENDBRANCH  26  27
ENDBRANCH  21  26
ENDBRANCH  18  24
ENDBRANCH   1  18
TORSDOF 6
