REMARK  Name = ZINC41547694
REMARK  5 active torsions:
REMARK  status: ('A' for Active; 'I' for Inactive)
REMARK    1  A    between atoms: C_1  and  C_2
REMARK    2  A    between atoms: C_11  and  C_13
REMARK    3  A    between atoms: C_11  and  C_14
REMARK    4  A    between atoms: N_16  and  C_17
REMARK    5  A    between atoms: C_18  and  C_27
REMARK                            x       y       z     vdW  Elec       q    Type
REMARK                         _______ _______ _______ _____ _____    ______ ____
ROOT
ATOM      1  C   UNL     1       0.304  -6.238   1.087  0.00  0.00    +0.271 C 
ATOM      2  O   UNL     1       0.207  -6.812   2.151  0.00  0.00    -0.271 OA
ATOM      3  N   UNL     1       0.052  -6.899  -0.060  0.00  0.00    -0.275 N 
ATOM      4  H   UNL     1       0.129  -6.440  -0.911  0.00  0.00    +0.155 HD
ENDROOT
BRANCH   1  15
ATOM      5  C   UNL     1      -0.018   1.503   0.010  0.00  0.00    +0.044 C 
ATOM      6  C   UNL     1       0.002  -0.004   0.002  0.00  0.00    -0.048 A 
ATOM      7  C   UNL     1       0.006  -0.687  -1.200  0.00  0.00    +0.007 A 
ATOM      8  C   UNL     1       0.019  -2.070  -1.216  0.00  0.00    +0.048 A 
ATOM      9  C   UNL     1       0.031  -2.773  -0.024  0.00  0.00    +0.144 A 
ATOM     10  C   UNL     1       0.038  -2.085   1.188  0.00  0.00    +0.076 A 
ATOM     11  C   UNL     1       0.023  -0.700   1.197  0.00  0.00    +0.030 A 
ATOM     12  N   UNL     1       0.086  -2.805   2.389  0.00  0.00    -0.279 N 
ATOM     13  C   UNL     1       0.342  -4.129   2.355  0.00  0.00    +0.270 C 
ATOM     14  O   UNL     1       0.279  -4.788   3.371  0.00  0.00    -0.271 OA
ATOM     15  C   UNL     1       0.706  -4.787   1.048  0.00  0.00    +0.258 C 
ATOM     16  O   UNL     1       0.025  -4.133  -0.026  0.00  0.00    -0.465 OA
ATOM     17  C   UNL     1       2.217  -4.684   0.830  0.00  0.00    +0.076 C 
ATOM     18  H   UNL     1      -0.063  -2.356   3.236  0.00  0.00    +0.155 HD
ENDBRANCH   1  15
BRANCH   3  19
ATOM     19  C   UNL     1      -0.319  -8.236  -0.024  0.00  0.00    +0.090 A 
ATOM     20  C   UNL     1      -0.608  -9.068  -1.091  0.00  0.00    +0.084 A 
ATOM     21  C   UNL     1      -0.975 -10.444  -0.788  0.00  0.00    -0.018 A 
ATOM     22  C   UNL     1      -0.990 -10.728   0.532  0.00  0.00    -0.004 A 
ATOM     23  S   UNL     1      -0.512  -9.218   1.324  0.00  0.00    -0.077 S 
ATOM     24  C   UNL     1      -1.339 -12.030   1.184  0.00  0.00    +0.043 C 
ATOM     25  C   UNL     1      -0.572 -13.162   0.489  0.00  0.00    +0.005 C 
ATOM     26  C   UNL     1      -1.414 -13.681  -0.672  0.00  0.00    +0.001 C 
ATOM     27  C   UNL     1      -2.226 -12.542  -1.285  0.00  0.00    +0.005 C 
ATOM     28  C   UNL     1      -1.300 -11.475  -1.859  0.00  0.00    +0.037 C 
BRANCH  20  29
ATOM     29  C   UNL     1      -0.548  -8.595  -2.441  0.00  0.00    +0.102 C 
ATOM     30  N   UNL     1      -0.501  -8.219  -3.512  0.00  0.00    -0.191 NA
ENDBRANCH  20  29
ENDBRANCH   3  19
TORSDOF 3
