REMARK  Name = ZINC43288818
REMARK  5 active torsions:
REMARK  status: ('A' for Active; 'I' for Inactive)
REMARK    1  A    between atoms: C_7  and  O_11
REMARK    2  A    between atoms: O_11  and  C_12
REMARK    3  A    between atoms: C_12  and  C_14
REMARK    4  A    between atoms: C_12  and  C_16
REMARK    5  A    between atoms: C_14  and  N_15
REMARK                            x       y       z     vdW  Elec       q    Type
REMARK                         _______ _______ _______ _____ _____    ______ ____
ROOT
ATOM      1  O   UNL     1       3.491  -2.146  -0.044  0.00  0.00    -0.483 OA
ENDROOT
BRANCH   1   8
ATOM      2  C   UNL     1      -0.030   1.375  -0.090  0.00  0.00    +0.020 A 
ATOM      3  C   UNL     1       1.142   2.077  -0.132  0.00  0.00    +0.013 A 
ATOM      4  C   UNL     1       2.349   1.353  -0.131  0.00  0.00    +0.022 A 
ATOM      5  C   UNL     1       3.593   2.006  -0.172  0.00  0.00    +0.050 A 
ATOM      6  C   UNL     1       4.741   1.271  -0.169  0.00  0.00    +0.024 A 
ATOM      7  C   UNL     1       4.700  -0.120  -0.126  0.00  0.00    +0.049 A 
ATOM      8  C   UNL     1       3.510  -0.788  -0.085  0.00  0.00    +0.147 A 
ATOM      9  C   UNL     1       2.301  -0.062  -0.086  0.00  0.00    +0.114 A 
ATOM     10  N   UNL     1       1.121  -0.687  -0.047  0.00  0.00    -0.251 NA
ATOM     11  C   UNL     1      -0.006  -0.017  -0.048  0.00  0.00    +0.111 A 
ATOM     12 CL   UNL     1       3.667   3.739  -0.227  0.00  0.00    -0.083 Cl
ENDBRANCH   1   8
BRANCH   1  13
ATOM     13  C   UNL     1       4.746  -2.817  -0.171  0.00  0.00    +0.193 C 
BRANCH  13  14
ATOM     14  C   UNL     1       4.564  -4.074  -0.982  0.00  0.00    +0.029 A 
ATOM     15  C   UNL     1       5.418  -4.654  -1.860  0.00  0.00    +0.030 A 
ATOM     16  C   UNL     1       5.035  -5.820  -2.497  0.00  0.00    +0.025 A 
ATOM     17  C   UNL     1       3.816  -6.348  -2.224  0.00  0.00    +0.060 A 
ATOM     18  S   UNL     1       3.171  -5.189  -1.029  0.00  0.00    -0.097 S 
ATOM     19 BR   UNL     1       6.193  -6.665  -3.731  0.00  0.00    -0.050 Br
ENDBRANCH  13  14
BRANCH  13  20
ATOM     20  C   UNL     1       5.274  -3.179   1.219  0.00  0.00    -0.036 C 
BRANCH  20  21
ATOM     21  N   UNL     1       5.452  -1.953   2.009  0.00  0.00    +0.381 N 
ATOM     22  H   UNL     1       4.565  -1.479   2.099  0.00  0.00    -0.090 HD
ATOM     23  H   UNL     1       5.800  -2.191   2.925  0.00  0.00    -0.090 HD
ATOM     24  H   UNL     1       6.112  -1.347   1.546  0.00  0.00    -0.090 HD
ENDBRANCH  20  21
ENDBRANCH  13  20
ENDBRANCH   1  13
TORSDOF 5
