REMARK  Name = ZINC08623124
REMARK  10 active torsions:
REMARK  status: ('A' for Active; 'I' for Inactive)
REMARK    1  A    between atoms: C_1  and  C_2
REMARK    2  A    between atoms: C_2  and  C_3
REMARK    3  A    between atoms: C_3  and  C_4
REMARK    4  A    between atoms: C_4  and  C_6
REMARK    5  A    between atoms: C_4  and  C_26
REMARK    6  A    between atoms: C_6  and  N_7
REMARK    7  A    between atoms: C_8  and  C_10
REMARK    8  A    between atoms: C_10  and  N_11
REMARK    9  A    between atoms: C_14  and  C_18
REMARK   10  A    between atoms: C_14  and  C_19
REMARK                            x       y       z     vdW  Elec       q    Type
REMARK                         _______ _______ _______ _____ _____    ______ ____
ROOT
ATOM      1  N   UNL     1       2.375  -3.451  -1.705  0.00  0.00    -0.313 N 
ATOM      2  C   UNL     1       1.940  -2.201  -1.448  0.00  0.00    +0.231 C 
ATOM      3  O   UNL     1       1.671  -1.453  -2.364  0.00  0.00    -0.274 OA
ATOM      4  H   UNL     1       2.590  -4.049  -0.972  0.00  0.00    +0.149 HD
ENDROOT
BRANCH   1   5
ATOM      5  C   UNL     1       2.522  -3.905  -3.090  0.00  0.00    +0.112 C 
BRANCH   5   6
ATOM      6  C   UNL     1       3.027  -5.349  -3.101  0.00  0.00    +0.038 C 
BRANCH   6   7
ATOM      7  C   UNL     1       3.296  -5.776  -4.521  0.00  0.00    -0.024 A 
ATOM      8  C   UNL     1       2.272  -5.772  -5.450  0.00  0.00    +0.007 A 
ATOM      9  C   UNL     1       2.518  -6.163  -6.752  0.00  0.00    +0.020 A 
ATOM     10  C   UNL     1       3.789  -6.559  -7.128  0.00  0.00    +0.042 A 
ATOM     11  C   UNL     1       4.815  -6.563  -6.199  0.00  0.00    +0.040 A 
ATOM     12  C   UNL     1       4.569  -6.165  -4.897  0.00  0.00    +0.046 A 
ATOM     13 CL   UNL     1       5.857  -6.162  -3.733  0.00  0.00    -0.083 Cl
ATOM     14 CL   UNL     1       4.098  -7.050  -8.764  0.00  0.00    -0.083 Cl
ENDBRANCH   6   7
BRANCH   6  15
ATOM     15  C   UNL     1       1.968  -6.265  -2.486  0.00  0.00    +0.009 C 
BRANCH  15  17
ATOM     16  C   UNL     1       1.461  -8.604  -1.768  0.00  0.00    +0.004 C 
ATOM     17  C   UNL     1       2.520  -7.688  -2.383  0.00  0.00    -0.003 C 
ENDBRANCH  15  17
ENDBRANCH   6  15
ENDBRANCH   5   6
ENDBRANCH   1   5
BRANCH   2  18
ATOM     18  C   UNL     1       1.788  -1.734  -0.024  0.00  0.00    +0.213 C 
BRANCH  18  19
ATOM     19  N   UNL     1       1.304  -0.351  -0.012  0.00  0.00    -0.215 N 
ATOM     20  C   UNL     1       0.002  -0.004   0.002  0.00  0.00    +0.251 C 
ATOM     21  O   UNL     1      -0.954  -0.749   0.008  0.00  0.00    -0.272 OA
ATOM     22  C   UNL     1      -0.018   1.512   0.010  0.00  0.00    +0.135 C 
ATOM     23  N   UNL     1       1.409   1.877  -0.001  0.00  0.00    -0.281 N 
ATOM     24  C   UNL     1       2.101   0.724  -0.014  0.00  0.00    +0.310 C 
ATOM     25  O   UNL     1       3.315   0.665  -0.026  0.00  0.00    -0.252 OA
ATOM     26  C   UNL     1      -0.698   2.034   1.278  0.00  0.00    +0.047 C 
ATOM     27  H   UNL     1       1.777   2.775  -0.000  0.00  0.00    +0.152 HD
BRANCH  22  28
ATOM     28  C   UNL     1      -0.711   2.039  -1.220  0.00  0.00    -0.015 A 
ATOM     29  C   UNL     1      -1.712   1.299  -1.820  0.00  0.00    +0.007 A 
ATOM     30  C   UNL     1      -2.352   1.785  -2.945  0.00  0.00    +0.020 A 
ATOM     31  C   UNL     1      -1.982   3.007  -3.477  0.00  0.00    +0.041 A 
ATOM     32  C   UNL     1      -0.976   3.745  -2.878  0.00  0.00    +0.020 A 
ATOM     33  C   UNL     1      -0.341   3.261  -1.750  0.00  0.00    +0.007 A 
ATOM     34 CL   UNL     1      -2.780   3.615  -4.893  0.00  0.00    -0.084 Cl
ENDBRANCH  22  28
ENDBRANCH  18  19
ENDBRANCH   2  18
TORSDOF 8
