REMARK  Name = ZINC63546785
REMARK  10 active torsions:
REMARK  status: ('A' for Active; 'I' for Inactive)
REMARK    1  A    between atoms: C_1  and  C_2
REMARK    2  A    between atoms: C_2  and  C_3
REMARK    3  A    between atoms: C_2  and  C_4
REMARK    4  A    between atoms: C_2  and  C_5
REMARK    5  A    between atoms: C_8  and  C_11
REMARK    6  A    between atoms: C_13  and  C_30
REMARK    7  A    between atoms: N_17  and  C_18
REMARK    8  A    between atoms: C_18  and  C_19
REMARK    9  A    between atoms: C_19  and  C_20
REMARK   10  A    between atoms: C_30  and  C_32
REMARK                            x       y       z     vdW  Elec       q    Type
REMARK                         _______ _______ _______ _____ _____    ______ ____
ROOT
ATOM      1  C   UNL     1       2.692  -1.858  -4.717  0.00  0.00    +0.145 C 
ATOM      2  C   UNL     1       3.698  -2.936  -4.387  0.00  0.00    +0.076 C 
ATOM      3  C   UNL     1       4.908  -2.475  -4.782  0.00  0.00    +0.249 C 
ATOM      4  C   UNL     1       4.747  -1.126  -5.364  0.00  0.00    +0.288 C 
ATOM      5  O   UNL     1       5.650  -0.447  -5.809  0.00  0.00    -0.266 OA
ATOM      6  N   UNL     1       3.451  -0.761  -5.328  0.00  0.00    -0.283 N 
ATOM      7  O   UNL     1       6.078  -3.143  -4.662  0.00  0.00    -0.282 OA
ENDROOT
BRANCH   1  11
ATOM      8  C   UNL     1       0.769  -0.506  -1.150  0.00  0.00    -0.042 A 
ATOM      9  C   UNL     1       0.053  -1.219  -2.093  0.00  0.00    +0.004 A 
ATOM     10  C   UNL     1       0.675  -1.656  -3.248  0.00  0.00    +0.006 A 
ATOM     11  C   UNL     1       2.013  -1.381  -3.459  0.00  0.00    -0.022 A 
ATOM     12  C   UNL     1       2.729  -0.667  -2.516  0.00  0.00    +0.006 A 
ATOM     13  C   UNL     1       2.106  -0.226  -1.363  0.00  0.00    +0.004 A 
BRANCH   8  15
ATOM     14  C   UNL     1       0.165   1.497   0.181  0.00  0.00    +0.015 C 
ATOM     15  C   UNL     1       0.091  -0.029   0.109  0.00  0.00    -0.013 C 
ATOM     16  C   UNL     1       0.794  -0.632   1.327  0.00  0.00    +0.015 C 
ATOM     17  C   UNL     1      -1.374  -0.469   0.096  0.00  0.00    +0.015 C 
ENDBRANCH   8  15
ENDBRANCH   1  11
BRANCH   2  18
ATOM     18  C   UNL     1       3.417  -4.232  -3.761  0.00  0.00    +0.195 C 
ATOM     19  O   UNL     1       3.853  -4.479  -2.652  0.00  0.00    -0.287 OA
BRANCH  18  20
ATOM     20  C   UNL     1       2.606  -5.238  -4.477  0.00  0.00    +0.022 A 
ATOM     21  C   UNL     1       2.207  -5.008  -5.796  0.00  0.00    +0.014 A 
ATOM     22  C   UNL     1       1.451  -5.950  -6.459  0.00  0.00    +0.039 A 
ATOM     23  C   UNL     1       1.085  -7.124  -5.819  0.00  0.00    +0.123 A 
ATOM     24  C   UNL     1       1.477  -7.358  -4.509  0.00  0.00    +0.039 A 
ATOM     25  C   UNL     1       2.239  -6.426  -3.839  0.00  0.00    +0.014 A 
ATOM     26  F   UNL     1       0.342  -8.044  -6.473  0.00  0.00    -0.205 F 
ENDBRANCH  18  20
ENDBRANCH   2  18
BRANCH   6  27
ATOM     27  C   UNL     1       2.897   0.505  -5.814  0.00  0.00    +0.113 C 
BRANCH  27  28
ATOM     28  C   UNL     1       2.905   1.533  -4.681  0.00  0.00    +0.052 C 
BRANCH  28  29
ATOM     29  C   UNL     1       2.335   2.836  -5.180  0.00  0.00    -0.040 C 
ATOM     30  C   UNL     1       1.056   3.261  -5.064  0.00  0.00    -0.001 A 
ATOM     31  C   UNL     1      -0.141   2.661  -4.463  0.00  0.00    +0.010 A 
ATOM     32  C   UNL     1      -1.308   3.344  -4.504  0.00  0.00    +0.001 A 
ATOM     33  C   UNL     1      -1.403   4.606  -5.105  0.00  0.00    +0.002 A 
ATOM     34  C   UNL     1      -0.347   5.222  -5.678  0.00  0.00    +0.026 A 
ATOM     35  C   UNL     1       0.930   4.596  -5.692  0.00  0.00    +0.043 A 
ATOM     36  N   UNL     1       2.086   4.980  -6.177  0.00  0.00    -0.380 N 
ATOM     37  C   UNL     1       3.078   3.934  -5.906  0.00  0.00    +0.144 C 
ATOM     38  H   UNL     1       2.257   5.818  -6.635  0.00  0.00    +0.160 HD
ENDBRANCH  28  29
ENDBRANCH  27  28
ENDBRANCH   6  27
TORSDOF 7
