REMARK  Name = ZINC38870108
REMARK  6 active torsions:
REMARK  status: ('A' for Active; 'I' for Inactive)
REMARK    1  A    between atoms: C_1  and  C_2
REMARK    2  A    between atoms: C_8  and  C_14
REMARK    3  A    between atoms: C_14  and  S_15
REMARK    4  A    between atoms: S_15  and  C_16
REMARK    5  A    between atoms: C_21  and  C_29
REMARK    6  A    between atoms: N_25  and  C_26
REMARK                            x       y       z     vdW  Elec       q    Type
REMARK                         _______ _______ _______ _____ _____    ______ ____
ROOT
ATOM      1  C   UNL     1       1.520  -0.658   5.687  0.00  0.00    +0.220 C 
ATOM      2  N   UNL     1       1.084  -1.631   6.696  0.00  0.00    -0.316 N 
ATOM      3  C   UNL     1      -0.142  -1.181   7.207  0.00  0.00    +0.051 A 
ATOM      4  C   UNL     1      -0.972  -1.731   8.177  0.00  0.00    +0.037 A 
ATOM      5  C   UNL     1      -2.151  -1.099   8.521  0.00  0.00    +0.057 A 
ATOM      6  C   UNL     1      -2.510   0.085   7.903  0.00  0.00    +0.014 A 
ATOM      7  C   UNL     1      -1.691   0.640   6.938  0.00  0.00    +0.025 A 
ATOM      8  C   UNL     1      -0.503   0.010   6.585  0.00  0.00    +0.053 A 
ATOM      9  N   UNL     1       0.477   0.374   5.649  0.00  0.00    -0.299 N 
ATOM     10  H   UNL     1       1.556  -2.436   6.960  0.00  0.00    +0.149 HD
ENDROOT
BRANCH   5  11
ATOM     11  C   UNL     1      -3.047  -1.699   9.574  0.00  0.00    +0.417 C 
ATOM     12  F   UNL     1      -2.686  -1.204  10.831  0.00  0.00    -0.166 F 
ATOM     13  F   UNL     1      -4.377  -1.359   9.303  0.00  0.00    -0.166 F 
ATOM     14  F   UNL     1      -2.910  -3.091   9.563  0.00  0.00    -0.166 F 
ENDBRANCH   5  11
BRANCH   9  15
ATOM     15  C   UNL     1       0.463   1.563   4.792  0.00  0.00    +0.076 C 
ATOM     16  C   UNL     1       1.609   1.726   3.792  0.00  0.00    +0.024 C 
ATOM     17  C   UNL     1       1.543   2.619   5.032  0.00  0.00    +0.024 C 
ENDBRANCH   9  15
BRANCH   1  18
ATOM     18  S   UNL     1       1.667  -1.460   4.067  0.00  0.00    -0.115 S 
BRANCH  18  19
ATOM     19  C   UNL     1       0.014  -2.144   3.764  0.00  0.00    +0.108 C 
BRANCH  19  27
ATOM     20  C   UNL     1      -0.067   1.506   0.015  0.00  0.00    +0.044 C 
ATOM     21  C   UNL     1      -0.057  -0.001   0.007  0.00  0.00    -0.050 A 
ATOM     22  C   UNL     1      -0.071  -0.683  -1.202  0.00  0.00    +0.005 A 
ATOM     23  C   UNL     1      -0.062  -2.060  -1.234  0.00  0.00    +0.026 A 
ATOM     24  C   UNL     1      -0.040  -2.778  -0.042  0.00  0.00    +0.049 A 
ATOM     25  C   UNL     1      -0.026  -2.083   1.182  0.00  0.00    +0.003 A 
ATOM     26  C   UNL     1      -0.030  -0.684   1.190  0.00  0.00    +0.013 A 
ATOM     27  C   UNL     1      -0.002  -2.847   2.431  0.00  0.00    -0.023 A 
ATOM     28  C   UNL     1       0.006  -4.201   2.362  0.00  0.00    +0.075 A 
ATOM     29  C   UNL     1      -0.009  -4.849   1.108  0.00  0.00    +0.249 A 
ATOM     30  O   UNL     1      -0.002  -6.067   1.069  0.00  0.00    -0.268 OA
ATOM     31  N   UNL     1      -0.031  -4.156  -0.044  0.00  0.00    -0.322 N 
ATOM     32  H   UNL     1      -0.041  -4.633  -0.888  0.00  0.00    +0.169 HD
ENDBRANCH  19  27
ENDBRANCH  18  19
ENDBRANCH   1  18
TORSDOF 5
