REMARK  Name = ZINC41584815
REMARK  8 active torsions:
REMARK  status: ('A' for Active; 'I' for Inactive)
REMARK    1  A    between atoms: C_1  and  C_2
REMARK    2  A    between atoms: C_3  and  O_31
REMARK    3  A    between atoms: C_9  and  O_30
REMARK    4  A    between atoms: C_10  and  C_13
REMARK    5  A    between atoms: C_13  and  N_14
REMARK    6  A    between atoms: O_31  and  C_32
REMARK    7  A    between atoms: C_37  and  O_38
REMARK    8  A    between atoms: O_38  and  C_39
REMARK                            x       y       z     vdW  Elec       q    Type
REMARK                         _______ _______ _______ _____ _____    ______ ____
ROOT
ATOM      1  C   UNL     1      -0.024   1.489  -0.116  0.00  0.00    +0.090 C 
ATOM      2  C   UNL     1      -0.005  -0.017  -0.060  0.00  0.00    +0.148 A 
ATOM      3  C   UNL     1      -1.171  -0.672   0.105  0.00  0.00    +0.213 A 
ATOM      4  C   UNL     1      -1.175  -2.095   0.160  0.00  0.00    +0.235 A 
ATOM      5  O   UNL     1      -2.211  -2.722   0.308  0.00  0.00    -0.283 OA
ATOM      6  C   UNL     1       0.123  -2.778   0.030  0.00  0.00    +0.068 A 
ATOM      7  C   UNL     1       0.221  -4.170   0.071  0.00  0.00    +0.019 A 
ATOM      8  C   UNL     1       1.442  -4.768  -0.054  0.00  0.00    +0.046 A 
ATOM      9  C   UNL     1       2.591  -3.996  -0.221  0.00  0.00    +0.122 A 
ATOM     10  C   UNL     1       2.511  -2.614  -0.263  0.00  0.00    +0.020 A 
ATOM     11  C   UNL     1       1.277  -1.992  -0.139  0.00  0.00    +0.144 A 
ATOM     12  O   UNL     1       1.170  -0.648  -0.182  0.00  0.00    -0.456 OA
ENDROOT
BRANCH   9  13
ATOM     13  O   UNL     1       3.798  -4.604  -0.342  0.00  0.00    -0.506 OA
ATOM     14  H   UNL     1       4.043  -4.814  -1.254  0.00  0.00    +0.292 HD
ENDBRANCH   9  13
BRANCH  10  15
ATOM     15  C   UNL     1       3.759  -1.790  -0.444  0.00  0.00    -0.036 C 
BRANCH  15  16
ATOM     16  N   UNL     1       4.001  -1.574  -1.877  0.00  0.00    +0.383 N 
ATOM     17  C   UNL     1       5.139  -0.667  -2.048  0.00  0.00    -0.073 C 
ATOM     18  C   UNL     1       5.427  -0.417  -3.521  0.00  0.00    -0.007 C 
ATOM     19  C   UNL     1       5.665  -1.738  -4.258  0.00  0.00    +0.011 C 
ATOM     20  C   UNL     1       4.429  -2.618  -4.035  0.00  0.00    +0.020 C 
ATOM     21  C   UNL     1       4.288  -2.863  -2.524  0.00  0.00    -0.069 C 
ATOM     22  C   UNL     1       3.200  -1.870  -4.503  0.00  0.00    +0.023 A 
ATOM     23  C   UNL     1       2.150  -2.607  -4.951  0.00  0.00    +0.022 A 
ATOM     24  C   UNL     1       0.959  -1.983  -5.339  0.00  0.00    +0.007 A 
ATOM     25  C   UNL     1       0.861  -0.627  -5.236  0.00  0.00    +0.070 A 
ATOM     26  C   UNL     1       1.962   0.103  -4.766  0.00  0.00    +0.251 A 
ATOM     27  O   UNL     1       1.866   1.310  -4.611  0.00  0.00    -0.268 OA
ATOM     28  N   UNL     1       3.133  -0.519  -4.482  0.00  0.00    -0.312 N 
ATOM     29  C   UNL     1       4.289   0.328  -4.199  0.00  0.00    +0.126 C 
ATOM     30  H   UNL     1       3.180  -1.163  -2.297  0.00  0.00    -0.081 HD
ENDBRANCH  15  16
ENDBRANCH  10  15
BRANCH   3  31
ATOM     31  O   UNL     1      -2.337   0.021   0.219  0.00  0.00    -0.445 OA
BRANCH  31  32
ATOM     32  C   UNL     1      -2.987  -0.016   1.412  0.00  0.00    +0.170 A 
ATOM     33  C   UNL     1      -2.406  -0.647   2.501  0.00  0.00    +0.050 A 
ATOM     34  C   UNL     1      -3.069  -0.684   3.713  0.00  0.00    +0.004 A 
ATOM     35  C   UNL     1      -4.312  -0.092   3.843  0.00  0.00    +0.004 A 
ATOM     36  C   UNL     1      -4.898   0.538   2.761  0.00  0.00    +0.049 A 
ATOM     37  C   UNL     1      -4.236   0.584   1.545  0.00  0.00    +0.162 A 
BRANCH  37  38
ATOM     38  O   UNL     1      -4.809   1.208   0.481  0.00  0.00    -0.491 OA
ATOM     39  C   UNL     1      -6.092   1.802   0.690  0.00  0.00    +0.277 C 
ENDBRANCH  37  38
ENDBRANCH  31  32
ENDBRANCH   3  31
TORSDOF 6
