REMARK  Name = ZINC59019549
REMARK  4 active torsions:
REMARK  status: ('A' for Active; 'I' for Inactive)
REMARK    1  A    between atoms: C_6  and  N_7
REMARK    2  A    between atoms: C_10  and  C_12
REMARK    3  A    between atoms: N_14  and  C_15
REMARK    4  A    between atoms: C_17  and  C_23
REMARK                            x       y       z     vdW  Elec       q    Type
REMARK                         _______ _______ _______ _____ _____    ______ ____
ROOT
ATOM      1  N   UNL     1      -1.164  -0.710   0.081  0.00  0.00    -0.236 N 
ATOM      2  C   UNL     1      -1.311  -1.938  -0.463  0.00  0.00    +0.049 A 
ATOM      3  C   UNL     1      -2.551  -2.376  -0.133  0.00  0.00    +0.006 A 
ATOM      4  C   UNL     1      -3.131  -1.351   0.634  0.00  0.00    +0.151 A 
ATOM      5  N   UNL     1      -2.233  -0.385   0.723  0.00  0.00    -0.161 NA
ATOM      6  C   UNL     1      -3.125  -3.704  -0.544  0.00  0.00    +0.039 C 
ATOM      7  C   UNL     1      -2.272  -4.263  -1.691  0.00  0.00    +0.005 C 
ATOM      8  C   UNL     1      -0.791  -4.195  -1.307  0.00  0.00    +0.006 C 
ATOM      9  C   UNL     1      -0.330  -2.732  -1.287  0.00  0.00    +0.056 C 
ENDROOT
BRANCH   1  15
ATOM     10  C   UNL     1       0.649   0.182  -1.246  0.00  0.00    +0.030 A 
ATOM     11  C   UNL     1       1.778   0.969  -1.354  0.00  0.00    +0.040 A 
ATOM     12  C   UNL     1       2.246   1.665  -0.252  0.00  0.00    +0.124 A 
ATOM     13  C   UNL     1       1.583   1.573   0.960  0.00  0.00    +0.040 A 
ATOM     14  C   UNL     1       0.454   0.787   1.073  0.00  0.00    +0.030 A 
ATOM     15  C   UNL     1      -0.018   0.088  -0.031  0.00  0.00    +0.066 A 
ATOM     16  F   UNL     1       3.351   2.435  -0.360  0.00  0.00    -0.205 F 
ENDBRANCH   1  15
BRANCH   4  17
ATOM     17  C   UNL     1      -4.482  -1.356   1.230  0.00  0.00    +0.269 C 
ATOM     18  O   UNL     1      -5.211  -2.316   1.076  0.00  0.00    -0.268 OA
ATOM     19  N   UNL     1      -4.906  -0.295   1.946  0.00  0.00    -0.276 N 
ATOM     20  H   UNL     1      -4.352   0.499   2.011  0.00  0.00    +0.155 HD
BRANCH  19  21
ATOM     21  C   UNL     1      -6.145  -0.340   2.597  0.00  0.00    +0.099 A 
ATOM     22  C   UNL     1      -6.221  -0.180   3.954  0.00  0.00    +0.042 A 
ATOM     23  C   UNL     1      -7.475  -0.229   4.580  0.00  0.00    +0.073 A 
ATOM     24  C   UNL     1      -8.591  -0.433   3.844  0.00  0.00    +0.098 A 
ATOM     25  N   UNL     1      -8.518  -0.593   2.496  0.00  0.00    -0.327 N 
ATOM     26  H   UNL     1      -9.330  -0.739   1.986  0.00  0.00    +0.168 HD
ATOM     27  C   UNL     1      -7.332  -0.546   1.860  0.00  0.00    +0.270 A 
ATOM     28  O   UNL     1      -7.282  -0.685   0.648  0.00  0.00    -0.266 OA
BRANCH  23  29
ATOM     29  C   UNL     1      -7.578  -0.054   6.073  0.00  0.00    +0.419 C 
ATOM     30  F   UNL     1      -8.919  -0.141   6.461  0.00  0.00    -0.166 F 
ATOM     31  F   UNL     1      -6.841  -1.057   6.712  0.00  0.00    -0.166 F 
ATOM     32  F   UNL     1      -7.070   1.199   6.432  0.00  0.00    -0.166 F 
ENDBRANCH  23  29
ENDBRANCH  19  21
ENDBRANCH   4  17
TORSDOF 4
