REMARK  Name = ZINC14457681
REMARK  5 active torsions:
REMARK  status: ('A' for Active; 'I' for Inactive)
REMARK    1  A    between atoms: C_1  and  C_2
REMARK    2  A    between atoms: C_4  and  C_28
REMARK    3  A    between atoms: C_5  and  C_9
REMARK    4  A    between atoms: C_6  and  C_8
REMARK    5  A    between atoms: C_22  and  C_25
REMARK                            x       y       z     vdW  Elec       q    Type
REMARK                         _______ _______ _______ _____ _____    ______ ____
ROOT
ATOM      1  C   UNL     1       1.980  -0.800  -0.182  0.00  0.00    +0.105 C 
ATOM      2  C   UNL     1       3.127  -0.233   0.627  0.00  0.00    +0.029 C 
ATOM      3  C   UNL     1       4.457  -0.995   0.622  0.00  0.00    +0.033 C 
ATOM      4  C   UNL     1       5.460   0.143   0.828  0.00  0.00    -0.030 C 
ATOM      5  C   UNL     1       4.949   1.284   0.378  0.00  0.00    -0.023 C 
ATOM      6  C   UNL     1       3.607   1.008  -0.189  0.00  0.00    +0.049 C 
ATOM      7  C   UNL     1       2.504   1.993  -0.151  0.00  0.00    -0.019 A 
ATOM      8  C   UNL     1       2.744   3.350  -0.155  0.00  0.00    +0.006 A 
ATOM      9  C   UNL     1       1.697   4.256  -0.138  0.00  0.00    +0.001 A 
ATOM     10  C   UNL     1       0.396   3.802  -0.118  0.00  0.00    +0.015 A 
ATOM     11  C   UNL     1       0.135   2.434  -0.108  0.00  0.00    +0.058 A 
ATOM     12  C   UNL     1       1.195   1.503  -0.117  0.00  0.00    +0.044 A 
ATOM     13  N   UNL     1       0.867   0.158  -0.086  0.00  0.00    -0.336 N 
ATOM     14  H   UNL     1       0.276  -0.052   0.704  0.00  0.00    +0.147 HD
ENDROOT
BRANCH   1  19
ATOM     15  C   UNL     1       0.369  -5.910   1.982  0.00  0.00    +0.044 C 
ATOM     16  C   UNL     1       0.790  -4.578   1.418  0.00  0.00    -0.050 A 
ATOM     17  C   UNL     1       1.423  -4.516   0.191  0.00  0.00    +0.007 A 
ATOM     18  C   UNL     1       1.808  -3.293  -0.327  0.00  0.00    -0.045 A 
ATOM     19  C   UNL     1       1.560  -2.133   0.382  0.00  0.00    -0.021 A 
ATOM     20  C   UNL     1       0.931  -2.196   1.612  0.00  0.00    -0.045 A 
ATOM     21  C   UNL     1       0.542  -3.417   2.128  0.00  0.00    +0.007 A 
ATOM     22  C   UNL     1       0.666  -0.931   2.388  0.00  0.00    +0.044 C 
ATOM     23  C   UNL     1       2.498  -3.226  -1.665  0.00  0.00    +0.044 C 
ENDBRANCH   1  19
BRANCH  11  24
ATOM     24  C   UNL     1      -1.259   1.955  -0.091  0.00  0.00    +0.243 C 
ATOM     25  O   UNL     1      -1.492   0.761  -0.084  0.00  0.00    -0.270 OA
ATOM     26  N   UNL     1      -2.276   2.840  -0.082  0.00  0.00    -0.325 N 
ATOM     27  H   UNL     1      -2.090   3.792  -0.087  0.00  0.00    +0.145 HD
ATOM     28  H   UNL     1      -3.193   2.525  -0.070  0.00  0.00    +0.145 HD
ENDBRANCH  11  24
TORSDOF 2
