REMARK  Name = ZINC08861544
REMARK  7 active torsions:
REMARK  status: ('A' for Active; 'I' for Inactive)
REMARK    1  A    between atoms: C_1  and  C_2
REMARK    2  A    between atoms: C_2  and  C_20
REMARK    3  A    between atoms: N_5  and  C_9
REMARK    4  A    between atoms: C_9  and  N_56
REMARK    5  A    between atoms: C_13  and  C_15
REMARK    6  A    between atoms: C_25  and  O_30
REMARK    7  A    between atoms: O_30  and  C_31
REMARK                            x       y       z     vdW  Elec       q    Type
REMARK                         _______ _______ _______ _____ _____    ______ ____
ROOT
ATOM      1  C   UNL     1      -2.865  -3.208  -1.423  0.00  0.00    +0.047 C 
ATOM      2  C   UNL     1      -2.414  -2.904   0.007  0.00  0.00    +0.135 C 
ATOM      3  C   UNL     1      -2.243  -4.184   0.800  0.00  0.00    +0.249 C 
ATOM      4  O   UNL     1      -1.476  -5.093   0.565  0.00  0.00    -0.272 OA
ATOM      5  N   UNL     1      -3.121  -4.103   1.819  0.00  0.00    -0.241 N 
ATOM      6  C   UNL     1      -3.817  -2.961   1.780  0.00  0.00    +0.308 C 
ATOM      7  O   UNL     1      -4.668  -2.661   2.594  0.00  0.00    -0.252 OA
ATOM      8  N   UNL     1      -3.469  -2.182   0.741  0.00  0.00    -0.281 N 
ATOM      9  H   UNL     1      -3.839  -1.313   0.517  0.00  0.00    +0.152 HD
ENDROOT
BRANCH   2  10
ATOM     10  C   UNL     1      -1.134  -2.109   0.001  0.00  0.00    -0.015 A 
ATOM     11  C   UNL     1       0.089  -2.777  -0.015  0.00  0.00    +0.007 A 
ATOM     12  C   UNL     1       1.263  -2.090  -0.021  0.00  0.00    +0.009 A 
ATOM     13  C   UNL     1       1.246  -0.684  -0.013  0.00  0.00    -0.014 A 
ATOM     14  C   UNL     1       2.438   0.059  -0.021  0.00  0.00    +0.054 A 
ATOM     15  C   UNL     1       2.383   1.424  -0.013  0.00  0.00    +0.121 A 
ATOM     16  C   UNL     1       1.155   2.092   0.002  0.00  0.00    +0.046 A 
ATOM     17  C   UNL     1      -0.017   1.402   0.010  0.00  0.00    +0.012 A 
ATOM     18  C   UNL     1       0.002  -0.004   0.002  0.00  0.00    -0.017 A 
ATOM     19  C   UNL     1      -1.190  -0.749   0.009  0.00  0.00    +0.014 A 
BRANCH  15  20
ATOM     20  O   UNL     1       3.537   2.141  -0.021  0.00  0.00    -0.495 OA
ATOM     21  C   UNL     1       3.415   3.565  -0.012  0.00  0.00    +0.277 C 
ENDBRANCH  15  20
ENDBRANCH   2  10
BRANCH   5  22
ATOM     22  C   UNL     1      -3.293  -5.137   2.842  0.00  0.00    +0.043 C 
BRANCH  22  27
ATOM     23  C   UNL     1      -3.726  -7.136   1.537  0.00  0.00    -0.076 C 
ATOM     24  C   UNL     1      -4.042  -8.501   2.182  0.00  0.00    -0.020 C 
ATOM     25  C   UNL     1      -5.275  -8.191   3.070  0.00  0.00    -0.012 C 
ATOM     26  C   UNL     1      -4.956  -6.756   3.559  0.00  0.00    -0.029 C 
ATOM     27  N   UNL     1      -4.330  -6.102   2.393  0.00  0.00    +0.395 N 
ATOM     28  H   UNL     1      -5.049  -5.598   1.860  0.00  0.00    -0.079 HD
BRANCH  26  29
ATOM     29  C   UNL     1      -6.224  -6.036   3.937  0.00  0.00    -0.024 A 
ATOM     30  C   UNL     1      -6.716  -5.762   5.170  0.00  0.00    +0.009 A 
ATOM     31  C   UNL     1      -7.912  -5.077   5.278  0.00  0.00    +0.008 A 
ATOM     32  C   UNL     1      -8.563  -4.710   4.147  0.00  0.00    +0.045 A 
ATOM     33  S   UNL     1      -7.474  -5.329   2.876  0.00  0.00    -0.103 S 
ENDBRANCH  26  29
ENDBRANCH  22  27
ENDBRANCH   5  22
TORSDOF 5
