REMARK  Name = ZINC04957806
REMARK  6 active torsions:
REMARK  status: ('A' for Active; 'I' for Inactive)
REMARK    1  A    between atoms: C_4  and  C_7
REMARK    2  A    between atoms: C_10  and  C_12
REMARK    3  A    between atoms: N_14  and  N_15
REMARK    4  A    between atoms: C_16  and  C_18
REMARK    5  A    between atoms: C_21  and  C_22
REMARK    6  A    between atoms: C_21  and  C_28
REMARK                            x       y       z     vdW  Elec       q    Type
REMARK                         _______ _______ _______ _____ _____    ______ ____
ROOT
ATOM      1  N   UNL     1       3.792   2.451   5.267  0.00  0.00    -0.234 N 
ATOM      2  C   UNL     1       4.230   3.726   5.288  0.00  0.00    +0.233 C 
ATOM      3  O   UNL     1       4.980   4.123   4.422  0.00  0.00    -0.274 OA
ATOM      4  H   UNL     1       3.192   2.133   5.960  0.00  0.00    +0.173 HD
ENDROOT
BRANCH   1   7
ATOM      5  C   UNL     1       3.764   0.312   4.224  0.00  0.00    +0.233 C 
ATOM      6  O   UNL     1       3.014  -0.086   5.090  0.00  0.00    -0.274 OA
ATOM      7  N   UNL     1       4.202   1.586   4.245  0.00  0.00    -0.234 N 
ATOM      8  H   UNL     1       4.802   1.904   3.552  0.00  0.00    +0.173 HD
BRANCH   5  11
ATOM      9  C   UNL     1       3.673  -2.053   3.156  0.00  0.00    +0.032 C 
ATOM     10  C   UNL     1       3.150  -1.066   2.110  0.00  0.00    +0.022 C 
ATOM     11  C   UNL     1       4.206  -0.619   3.124  0.00  0.00    +0.084 C 
BRANCH   9  15
ATOM     12  C   UNL     1       1.049  -3.113   6.355  0.00  0.00    +0.000 A 
ATOM     13  C   UNL     1       2.243  -3.789   6.188  0.00  0.00    +0.000 A 
ATOM     14  C   UNL     1       3.095  -3.443   5.155  0.00  0.00    +0.004 A 
ATOM     15  C   UNL     1       2.748  -2.427   4.285  0.00  0.00    -0.044 A 
ATOM     16  C   UNL     1       1.552  -1.753   4.450  0.00  0.00    +0.004 A 
ATOM     17  C   UNL     1       0.703  -2.096   5.485  0.00  0.00    +0.000 A 
ENDBRANCH   9  15
ENDBRANCH   5  11
ENDBRANCH   1   7
BRANCH   2  18
ATOM     18  C   UNL     1       3.788   4.656   6.388  0.00  0.00    +0.092 C 
ATOM     19  C   UNL     1       4.641   5.901   6.645  0.00  0.00    +0.031 C 
ATOM     20  C   UNL     1       4.665   4.738   7.639  0.00  0.00    +0.033 C 
BRANCH  20  21
ATOM     21  C   UNL     1       3.973   4.939   8.962  0.00  0.00    -0.036 A 
ATOM     22  C   UNL     1       2.592   4.903   9.032  0.00  0.00    +0.004 A 
ATOM     23  C   UNL     1       1.957   5.082  10.247  0.00  0.00    +0.000 A 
ATOM     24  C   UNL     1       2.702   5.308  11.389  0.00  0.00    +0.000 A 
ATOM     25  C   UNL     1       4.082   5.349  11.319  0.00  0.00    +0.000 A 
ATOM     26  C   UNL     1       4.717   5.165  10.105  0.00  0.00    +0.004 A 
ENDBRANCH  20  21
BRANCH  20  27
ATOM     27  C   UNL     1       5.904   3.880   7.678  0.00  0.00    -0.036 A 
ATOM     28  C   UNL     1       5.802   2.511   7.517  0.00  0.00    +0.004 A 
ATOM     29  C   UNL     1       6.939   1.725   7.547  0.00  0.00    +0.000 A 
ATOM     30  C   UNL     1       8.177   2.308   7.749  0.00  0.00    +0.000 A 
ATOM     31  C   UNL     1       8.278   3.676   7.915  0.00  0.00    +0.000 A 
ATOM     32  C   UNL     1       7.141   4.463   7.879  0.00  0.00    +0.004 A 
ENDBRANCH  20  27
ENDBRANCH   2  18
TORSDOF 6
