REMARK  Name = ZINC64468838
REMARK  11 active torsions:
REMARK  status: ('A' for Active; 'I' for Inactive)
REMARK    1  A    between atoms: C_1  and  C_2
REMARK    2  A    between atoms: C_2  and  N_3
REMARK    3  A    between atoms: N_3  and  C_4
REMARK    4  A    between atoms: N_3  and  C_6
REMARK    5  A    between atoms: C_4  and  C_5
REMARK    6  A    between atoms: C_9  and  N_13
REMARK    7  A    between atoms: C_10  and  C_12
REMARK    8  A    between atoms: C_14  and  C_16
REMARK    9  A    between atoms: C_16  and  S_17
REMARK   10  A    between atoms: S_17  and  C_18
REMARK   11  A    between atoms: C_31  and  C_34
REMARK                            x       y       z     vdW  Elec       q    Type
REMARK                         _______ _______ _______ _____ _____    ______ ____
ROOT
ATOM      1  C   UNL     1       0.275  -8.539  -1.286  0.00  0.00    +0.172 C 
ENDROOT
BRANCH   1   3
ATOM      2  N   UNL     1       0.012  -6.179  -1.976  0.00  0.00    -0.285 N 
ATOM      3  C   UNL     1       0.353  -7.059  -1.014  0.00  0.00    +0.227 C 
ATOM      4  O   UNL     1       0.723  -6.660   0.069  0.00  0.00    -0.275 OA
ATOM      5  H   UNL     1      -0.348  -6.497  -2.819  0.00  0.00    +0.155 HD
BRANCH   2   9
ATOM      6  C   UNL     1       0.503  -2.093  -1.329  0.00  0.00    +0.014 A 
ATOM      7  C   UNL     1       0.317  -2.944  -0.255  0.00  0.00    +0.023 A 
ATOM      8  C   UNL     1       0.154  -4.299  -0.467  0.00  0.00    +0.025 A 
ATOM      9  C   UNL     1       0.176  -4.806  -1.759  0.00  0.00    +0.036 A 
ATOM     10  C   UNL     1       0.363  -3.949  -2.835  0.00  0.00    -0.028 A 
ATOM     11  C   UNL     1       0.520  -2.594  -2.618  0.00  0.00    +0.026 A 
ATOM     12  C   UNL     1       0.388  -4.495  -4.240  0.00  0.00    +0.046 C 
BRANCH   6  13
ATOM     13  N   UNL     1       0.667  -0.721  -1.112  0.00  0.00    -0.394 NA
ATOM     14  H   UNL     1       0.785  -0.253  -1.998  0.00  0.00    +0.126 HD
BRANCH  13  16
ATOM     15  C   UNL     1      -1.737  -0.317  -1.348  0.00  0.00    +0.022 C 
ATOM     16  C   UNL     1      -0.519  -0.188  -0.430  0.00  0.00    +0.081 C 
ENDBRANCH  13  16
BRANCH  13  17
ATOM     17  C   UNL     1       1.855  -0.497  -0.277  0.00  0.00    +0.081 C 
ATOM     18  C   UNL     1       3.105  -0.948  -1.036  0.00  0.00    +0.022 C 
ENDBRANCH  13  17
ENDBRANCH   6  13
ENDBRANCH   2   9
ENDBRANCH   1   3
BRANCH   1  19
ATOM     19  S   UNL     1       0.795  -9.453   0.193  0.00  0.00    -0.095 S 
BRANCH  19  20
ATOM     20  C   UNL     1       0.649 -11.145  -0.279  0.00  0.00    +0.116 A 
ATOM     21  C   UNL     1       0.960 -12.155   0.607  0.00  0.00    +0.091 A 
ATOM     22  C   UNL     1       0.847 -13.515   0.242  0.00  0.00    +0.173 A 
ATOM     23  N   UNL     1       0.418 -13.742  -1.023  0.00  0.00    -0.215 NA
ATOM     24  C   UNL     1       0.133 -12.756  -1.835  0.00  0.00    +0.224 A 
ATOM     25  N   UNL     1       0.230 -11.482  -1.502  0.00  0.00    -0.228 NA
ATOM     26  N   UNL     1       1.177 -14.402   1.187  0.00  0.00    -0.205 NA
ATOM     27  C   UNL     1       1.584 -14.042   2.388  0.00  0.00    +0.164 A 
ATOM     28  S   UNL     1       1.532 -12.258   2.283  0.00  0.00    -0.048 S 
ATOM     29  N   UNL     1       1.953 -14.836   3.452  0.00  0.00    -0.309 N 
ATOM     30  C   UNL     1       2.375 -14.234   4.724  0.00  0.00    +0.107 C 
ATOM     31  C   UNL     1       3.744 -14.804   5.109  0.00  0.00    +0.019 C 
ATOM     32  C   UNL     1       3.668 -16.332   5.131  0.00  0.00    +0.006 C 
ATOM     33  C   UNL     1       3.306 -16.847   3.736  0.00  0.00    +0.003 C 
ATOM     34  C   UNL     1       1.926 -16.301   3.338  0.00  0.00    +0.110 C 
ATOM     35  C   UNL     1       3.263 -18.376   3.751  0.00  0.00    +0.009 C 
ENDBRANCH  19  20
ENDBRANCH   1  19
TORSDOF 7
