REMARK  Name = ZINC05948935
REMARK  2 active torsions:
REMARK  status: ('A' for Active; 'I' for Inactive)
REMARK    1  A    between atoms: C_8  and  C_12
REMARK    2  A    between atoms: C_21  and  C_24
REMARK                            x       y       z     vdW  Elec       q    Type
REMARK                         _______ _______ _______ _____ _____    ______ ____
ROOT
ATOM      1  C   UNL     1       4.910   1.181  -0.040  0.00  0.00    +0.057 C 
ATOM      2  N   UNL     1       5.895   1.933  -0.148  0.00  0.00    -0.250 NA
ATOM      3  C   UNL     1       7.226   1.976  -0.092  0.00  0.00    +0.078 A 
ATOM      4  C   UNL     1       7.779   3.277  -0.153  0.00  0.00    +0.029 A 
ATOM      5  C   UNL     1       9.131   3.488  -0.068  0.00  0.00    +0.002 A 
ATOM      6  C   UNL     1       9.989   2.410   0.079  0.00  0.00    +0.001 A 
ATOM      7  C   UNL     1       9.475   1.136   0.126  0.00  0.00    +0.017 A 
ATOM      8  C   UNL     1       8.099   0.895   0.035  0.00  0.00    +0.034 A 
ATOM      9  S   UNL     1       7.589  -0.778   0.086  0.00  0.00    -0.114 S 
ATOM     10  C   UNL     1       6.000  -0.847   0.902  0.00  0.00    +0.094 C 
ATOM     11  C   UNL     1       4.874  -0.302   0.070  0.00  0.00    +0.076 C 
ENDROOT
BRANCH   1  19
ATOM     12  C   UNL     1      -1.203   1.744   0.003  0.00  0.00    +0.001 A 
ATOM     13  C   UNL     1      -1.232   3.131   0.024  0.00  0.00    +0.004 A 
ATOM     14  C   UNL     1      -0.060   3.858   0.024  0.00  0.00    +0.047 A 
ATOM     15  C   UNL     1       1.165   3.201   0.009  0.00  0.00    +0.139 A 
ATOM     16  C   UNL     1       1.192   1.795  -0.007  0.00  0.00    +0.018 A 
ATOM     17  C   UNL     1      -0.013   1.076  -0.006  0.00  0.00    +0.011 A 
ATOM     18  C   UNL     1       2.433   1.108  -0.023  0.00  0.00    +0.028 A 
ATOM     19  C   UNL     1       3.603   1.849  -0.023  0.00  0.00    +0.081 A 
ATOM     20  C   UNL     1       3.512   3.315  -0.007  0.00  0.00    +0.346 A 
ATOM     21  O   UNL     1       4.527   3.986  -0.006  0.00  0.00    -0.244 OA
ATOM     22  O   UNL     1       2.311   3.916   0.008  0.00  0.00    -0.422 OA
ENDBRANCH   1  19
BRANCH  10  23
ATOM     23  C   UNL     1       5.697  -2.284   1.242  0.00  0.00    +0.003 A 
ATOM     24  C   UNL     1       5.553  -2.861   2.460  0.00  0.00    +0.012 A 
ATOM     25  C   UNL     1       5.269  -4.212   2.532  0.00  0.00    +0.008 A 
ATOM     26  C   UNL     1       5.153  -4.922   1.383  0.00  0.00    +0.045 A 
ATOM     27  S   UNL     1       5.441  -3.669   0.144  0.00  0.00    -0.100 S 
ENDBRANCH  10  23
TORSDOF 2
