REMARK  Name = ZINC14881649
REMARK  8 active torsions:
REMARK  status: ('A' for Active; 'I' for Inactive)
REMARK    1  A    between atoms: C_4  and  C_7
REMARK    2  A    between atoms: C_7  and  N_70
REMARK    3  A    between atoms: C_11  and  N_14
REMARK    4  A    between atoms: C_15  and  C_17
REMARK    5  A    between atoms: C_17  and  C_18
REMARK    6  A    between atoms: C_18  and  C_19
REMARK    7  A    between atoms: C_19  and  C_25
REMARK    8  A    between atoms: C_25  and  C_26
REMARK                            x       y       z     vdW  Elec       q    Type
REMARK                         _______ _______ _______ _____ _____    ______ ____
ROOT
ATOM      1  C   UNL     1       1.276  11.260  -3.991  0.00  0.00    +0.098 C 
ENDROOT
BRANCH   1   3
ATOM      2  N   UNL     1       0.454   9.204  -2.889  0.00  0.00    -0.314 N 
ATOM      3  C   UNL     1       1.067   9.768  -3.948  0.00  0.00    +0.213 C 
ATOM      4  O   UNL     1       1.451   9.076  -4.867  0.00  0.00    -0.276 OA
ATOM      5  H   UNL     1       0.148   9.758  -2.154  0.00  0.00    +0.149 HD
BRANCH   2   9
ATOM      6  C   UNL     1      -1.345   5.481  -2.023  0.00  0.00    -0.078 C 
ATOM      7  C   UNL     1      -1.271   5.886  -3.497  0.00  0.00    -0.017 C 
ATOM      8  C   UNL     1      -1.036   7.396  -3.596  0.00  0.00    +0.018 C 
ATOM      9  C   UNL     1       0.251   7.753  -2.847  0.00  0.00    +0.056 C 
ATOM     10  C   UNL     1       0.134   7.295  -1.392  0.00  0.00    -0.056 C 
ATOM     11  N   UNL     1      -0.068   5.831  -1.365  0.00  0.00    +0.384 N 
ATOM     12  H   UNL     1       0.703   5.379  -1.873  0.00  0.00    -0.081 HD
BRANCH  11  13
ATOM     13  C   UNL     1      -0.070   5.347   0.031  0.00  0.00    -0.043 C 
BRANCH  13  17
ATOM     14  C   UNL     1      -0.013   1.076   0.008  0.00  0.00    +0.000 A 
ATOM     15  C   UNL     1      -1.219   1.751   0.017  0.00  0.00    +0.000 A 
ATOM     16  C   UNL     1      -1.238   3.133   0.030  0.00  0.00    +0.002 A 
ATOM     17  C   UNL     1      -0.050   3.840   0.023  0.00  0.00    -0.064 A 
ATOM     18  C   UNL     1       1.156   3.165   0.008  0.00  0.00    +0.002 A 
ATOM     19  C   UNL     1       1.175   1.783   0.000  0.00  0.00    +0.000 A 
ENDBRANCH  13  17
ENDBRANCH  11  13
ENDBRANCH   2   9
ENDBRANCH   1   3
BRANCH   1  20
ATOM     20  C   UNL     1       1.989  11.638  -5.291  0.00  0.00    +0.035 C 
BRANCH  20  21
ATOM     21  C   UNL     1       2.201  13.153  -5.335  0.00  0.00    +0.039 C 
ATOM     22  C   UNL     1       0.843  13.885  -5.255  0.00  0.00    +0.035 C 
ATOM     23  C   UNL     1       0.715  14.147  -3.736  0.00  0.00    +0.098 C 
ATOM     24  C   UNL     1       2.143  14.151  -3.239  0.00  0.00    +0.214 C 
ATOM     25  O   UNL     1       2.505  14.593  -2.168  0.00  0.00    -0.276 OA
ATOM     26  N   UNL     1       2.954  13.594  -4.155  0.00  0.00    -0.309 N 
ATOM     27  H   UNL     1       3.913  13.496  -4.050  0.00  0.00    +0.149 HD
BRANCH  21  28
ATOM     28  C   UNL     1       2.940  13.546  -6.615  0.00  0.00    +0.061 C 
BRANCH  28  29
ATOM     29  C   UNL     1       4.274  12.846  -6.661  0.00  0.00    -0.038 A 
ATOM     30  C   UNL     1       5.394  13.478  -6.214  0.00  0.00    +0.004 A 
ATOM     31  C   UNL     1       6.634  12.845  -6.243  0.00  0.00    +0.001 A 
ATOM     32  C   UNL     1       6.764  11.580  -6.729  0.00  0.00    +0.008 A 
ATOM     33  C   UNL     1       5.632  10.898  -7.204  0.00  0.00    -0.018 A 
ATOM     34  C   UNL     1       4.369  11.540  -7.170  0.00  0.00    -0.015 A 
ATOM     35  C   UNL     1       3.236  10.858  -7.646  0.00  0.00    +0.009 A 
ATOM     36  C   UNL     1       3.366   9.594  -8.132  0.00  0.00    +0.001 A 
ATOM     37  C   UNL     1       4.608   8.962  -8.166  0.00  0.00    +0.001 A 
ATOM     38  C   UNL     1       5.727   9.591  -7.714  0.00  0.00    +0.008 A 
ENDBRANCH  28  29
ENDBRANCH  21  28
ENDBRANCH  20  21
ENDBRANCH   1  20
TORSDOF 8
