REMARK  Name = ZINC39206299
REMARK  6 active torsions:
REMARK  status: ('A' for Active; 'I' for Inactive)
REMARK    1  A    between atoms: C_1  and  C_2
REMARK    2  A    between atoms: C_4  and  C_16
REMARK    3  A    between atoms: C_6  and  C_14
REMARK    4  A    between atoms: C_7  and  N_13
REMARK    5  A    between atoms: C_20  and  O_22
REMARK    6  A    between atoms: O_22  and  C_23
REMARK                            x       y       z     vdW  Elec       q    Type
REMARK                         _______ _______ _______ _____ _____    ______ ____
ROOT
ATOM      1  C   UNL     1       0.514   2.825  -0.199  0.00  0.00    +0.067 C 
ATOM      2  C   UNL     1       0.954   1.397  -0.401  0.00  0.00    +0.066 C 
ATOM      3  C   UNL     1       0.144   0.374  -0.527  0.00  0.00    +0.030 C 
ATOM      4  C   UNL     1      -1.345   0.208  -0.390  0.00  0.00    +0.098 C 
ATOM      5  C   UNL     1      -1.541  -1.091   0.369  0.00  0.00    +0.097 C 
ATOM      6  C   UNL     1      -0.513  -1.928   0.620  0.00  0.00    +0.195 C 
ATOM      7  O   UNL     1       0.776  -1.741   0.284  0.00  0.00    -0.448 OA
ATOM      8  C   UNL     1       1.055  -0.827  -0.780  0.00  0.00    +0.343 C 
ATOM      9  N   UNL     1       2.389  -0.228  -0.661  0.00  0.00    -0.138 NA
ATOM     10  N   UNL     1       2.246   0.988  -0.484  0.00  0.00    -0.155 NA
ENDROOT
BRANCH   4  11
ATOM     11  C   UNL     1      -1.929   1.361   0.385  0.00  0.00    -0.031 A 
ATOM     12  C   UNL     1      -1.506   1.608   1.679  0.00  0.00    +0.005 A 
ATOM     13  C   UNL     1      -2.040   2.665   2.392  0.00  0.00    +0.004 A 
ATOM     14  C   UNL     1      -2.997   3.477   1.815  0.00  0.00    +0.046 A 
ATOM     15  C   UNL     1      -3.423   3.231   0.518  0.00  0.00    +0.129 A 
ATOM     16  C   UNL     1      -2.881   2.173  -0.199  0.00  0.00    +0.050 A 
BRANCH  15  17
ATOM     17  O   UNL     1      -4.364   4.028  -0.052  0.00  0.00    -0.456 OA
BRANCH  17  18
ATOM     18  C   UNL     1      -4.757   3.743  -1.322  0.00  0.00    +0.128 A 
ATOM     19  C   UNL     1      -5.823   2.882  -1.542  0.00  0.00    +0.046 A 
ATOM     20  C   UNL     1      -6.220   2.594  -2.834  0.00  0.00    +0.004 A 
ATOM     21  C   UNL     1      -5.558   3.163  -3.905  0.00  0.00    +0.000 A 
ATOM     22  C   UNL     1      -4.496   4.022  -3.688  0.00  0.00    +0.004 A 
ATOM     23  C   UNL     1      -4.098   4.318  -2.399  0.00  0.00    +0.046 A 
ENDBRANCH  17  18
ENDBRANCH  15  17
ENDBRANCH   4  11
BRANCH   6  24
ATOM     24  N   UNL     1      -0.813  -3.089   1.288  0.00  0.00    -0.329 N 
ATOM     25  H   UNL     1      -1.727  -3.273   1.554  0.00  0.00    +0.145 HD
ATOM     26  H   UNL     1      -0.110  -3.725   1.494  0.00  0.00    +0.145 HD
ENDBRANCH   6  24
BRANCH   5  27
ATOM     27  C   UNL     1      -2.852  -1.438   0.831  0.00  0.00    +0.101 C 
ATOM     28  N   UNL     1      -3.891  -1.714   1.197  0.00  0.00    -0.191 NA
ENDBRANCH   5  27
TORSDOF 5
