REMARK  Name = ZINC63345349
REMARK  8 active torsions:
REMARK  status: ('A' for Active; 'I' for Inactive)
REMARK    1  A    between atoms: C_1  and  C_2
REMARK    2  A    between atoms: C_6  and  N_8
REMARK    3  A    between atoms: N_8  and  C_9
REMARK    4  A    between atoms: C_9  and  N_11
REMARK    5  A    between atoms: N_11  and  N_12
REMARK    6  A    between atoms: C_13  and  C_15
REMARK    7  A    between atoms: C_15  and  O_16
REMARK    8  A    between atoms: O_16  and  C_17
REMARK                            x       y       z     vdW  Elec       q    Type
REMARK                         _______ _______ _______ _____ _____    ______ ____
ROOT
ATOM      1  N   UNL     1       0.283  -4.218   4.706  0.00  0.00    -0.232 N 
ATOM      2  C   UNL     1       0.399  -4.902   5.862  0.00  0.00    +0.267 C 
ATOM      3  O   UNL     1       0.488  -4.304   6.913  0.00  0.00    -0.271 OA
ATOM      4  H   UNL     1       0.212  -4.695   3.865  0.00  0.00    +0.173 HD
ENDROOT
BRANCH   1   5
ATOM      5  N   UNL     1       0.266  -2.817   4.720  0.00  0.00    -0.246 N 
ATOM      6  H   UNL     1       0.337  -2.339   5.561  0.00  0.00    +0.172 HD
BRANCH   5   7
ATOM      7  C   UNL     1       0.150  -2.133   3.565  0.00  0.00    +0.151 C 
ATOM      8  S   UNL     1       0.128  -0.421   3.582  0.00  0.00    -0.017 S 
BRANCH   7   9
ATOM      9  N   UNL     1       0.051  -2.796   2.396  0.00  0.00    -0.294 N 
ATOM     10  H   UNL     1       0.000  -3.765   2.391  0.00  0.00    +0.154 HD
BRANCH   9  16
ATOM     11  C   UNL     1      -1.755   0.897  -0.302  0.00  0.00    +0.044 C 
ATOM     12  C   UNL     1      -0.844  -0.294  -0.147  0.00  0.00    -0.049 A 
ATOM     13  C   UNL     1      -0.036  -0.686  -1.198  0.00  0.00    +0.006 A 
ATOM     14  C   UNL     1       0.802  -1.778  -1.061  0.00  0.00    +0.040 A 
ATOM     15  C   UNL     1       0.834  -2.481   0.130  0.00  0.00    +0.144 A 
ATOM     16  C   UNL     1       0.022  -2.087   1.188  0.00  0.00    +0.069 A 
ATOM     17  C   UNL     1      -0.813  -0.988   1.047  0.00  0.00    +0.029 A 
ATOM     18  F   UNL     1       1.651  -3.548   0.264  0.00  0.00    -0.204 F 
ENDBRANCH   9  16
ENDBRANCH   7   9
ENDBRANCH   5   7
ENDBRANCH   1   5
BRANCH   2  19
ATOM     19  C   UNL     1       0.418  -6.408   5.846  0.00  0.00    +0.326 C 
BRANCH  19  20
ATOM     20  O   UNL     1       0.548  -6.896   7.183  0.00  0.00    -0.483 OA
BRANCH  20  21
ATOM     21  C   UNL     1       0.582  -8.245   7.347  0.00  0.00    +0.121 A 
ATOM     22  C   UNL     1       0.497  -9.082   6.244  0.00  0.00    +0.046 A 
ATOM     23  C   UNL     1       0.532 -10.451   6.415  0.00  0.00    +0.007 A 
ATOM     24  C   UNL     1       0.650 -10.994   7.685  0.00  0.00    -0.044 A 
ATOM     25  C   UNL     1       0.734 -10.162   8.786  0.00  0.00    -0.041 A 
ATOM     26  C   UNL     1       0.706  -8.788   8.616  0.00  0.00    +0.049 A 
ATOM     27  C   UNL     1       0.855 -10.991  10.046  0.00  0.00    +0.036 C 
ATOM     28  C   UNL     1       0.398 -12.409   9.642  0.00  0.00    +0.009 C 
ATOM     29  C   UNL     1       0.709 -12.439   8.130  0.00  0.00    +0.036 C 
ENDBRANCH  20  21
ENDBRANCH  19  20
ENDBRANCH   2  19
TORSDOF 7
