REMARK  Name = ZINC24092115
REMARK  14 active torsions:
REMARK  status: ('A' for Active; 'I' for Inactive)
REMARK    1  A    between atoms: C_1  and  C_2
REMARK    2  A    between atoms: C_4  and  C_31
REMARK    3  A    between atoms: C_7  and  O_8
REMARK    4  A    between atoms: O_8  and  C_9
REMARK    5  A    between atoms: C_9  and  C_10
REMARK    6  A    between atoms: C_10  and  C_12
REMARK    7  A    between atoms: C_10  and  O_30
REMARK    8  A    between atoms: C_12  and  N_13
REMARK    9  A    between atoms: C_16  and  C_20
REMARK   10  A    between atoms: C_16  and  C_21
REMARK   11  A    between atoms: C_24  and  N_27
REMARK   12  A    between atoms: C_31  and  C_32
REMARK   13  A    between atoms: C_31  and  C_33
REMARK   14  A    between atoms: C_31  and  C_34
REMARK                            x       y       z     vdW  Elec       q    Type
REMARK                         _______ _______ _______ _____ _____    ______ ____
ROOT
ATOM      1  N   UNL     1      -5.087   7.865  -0.035  0.00  0.00    -0.221 N 
ATOM      2  C   UNL     1      -5.744   8.230   1.084  0.00  0.00    +0.251 C 
ATOM      3  O   UNL     1      -5.336   8.172   2.224  0.00  0.00    -0.272 OA
ATOM      4  C   UNL     1      -7.098   8.728   0.620  0.00  0.00    +0.135 C 
ATOM      5  N   UNL     1      -7.042   8.571  -0.844  0.00  0.00    -0.281 N 
ATOM      6  C   UNL     1      -5.829   8.066  -1.130  0.00  0.00    +0.310 C 
ATOM      7  O   UNL     1      -5.450   7.816  -2.257  0.00  0.00    -0.252 OA
ATOM      8  C   UNL     1      -7.289  10.198   0.997  0.00  0.00    +0.047 C 
ATOM      9  H   UNL     1      -7.907   8.855  -1.461  0.00  0.00    +0.152 HD
ENDROOT
BRANCH   4  10
ATOM     10  C   UNL     1      -8.202   7.883   1.202  0.00  0.00    -0.015 A 
ATOM     11  C   UNL     1      -8.030   7.272   2.430  0.00  0.00    +0.008 A 
ATOM     12  C   UNL     1      -9.044   6.500   2.967  0.00  0.00    +0.033 A 
ATOM     13  C   UNL     1     -10.226   6.331   2.270  0.00  0.00    +0.126 A 
ATOM     14  C   UNL     1     -10.396   6.937   1.039  0.00  0.00    +0.033 A 
ATOM     15  C   UNL     1      -9.383   7.713   0.505  0.00  0.00    +0.008 A 
BRANCH  13  16
ATOM     16  N   UNL     1     -11.309   5.500   2.841  0.00  0.00    +0.056 N 
ATOM     17  O   UNL     1     -12.350   5.350   2.227  0.00  0.00    -0.126 OA
ATOM     18  O   UNL     1     -11.160   4.966   3.925  0.00  0.00    -0.126 OA
ENDBRANCH  13  16
ENDBRANCH   4  10
BRANCH   1  19
ATOM     19  C   UNL     1      -3.727   7.322  -0.050  0.00  0.00    +0.152 C 
BRANCH  19  20
ATOM     20  C   UNL     1      -3.785   5.797   0.068  0.00  0.00    +0.170 C 
BRANCH  20  21
ATOM     21  O   UNL     1      -4.427   5.439   1.293  0.00  0.00    -0.387 OA
ATOM     22  H   UNL     1      -5.462   5.760   1.486  0.00  0.00    +0.210 HD
ENDBRANCH  20  21
BRANCH  20  23
ATOM     23  C   UNL     1      -2.364   5.230   0.052  0.00  0.00    +0.262 C 
BRANCH  23  24
ATOM     24  O   UNL     1      -2.422   3.802   0.045  0.00  0.00    -0.489 OA
BRANCH  24  31
ATOM     25  C   UNL     1      -2.513   0.979   0.020  0.00  0.00    +0.047 C 
ATOM     26  C   UNL     1      -1.219   1.750   0.017  0.00  0.00    -0.009 A 
ATOM     27  C   UNL     1      -0.013   1.076   0.008  0.00  0.00    +0.011 A 
ATOM     28  C   UNL     1       1.175   1.783   0.000  0.00  0.00    -0.042 A 
ATOM     29  C   UNL     1       1.160   3.166   0.008  0.00  0.00    +0.008 A 
ATOM     30  C   UNL     1      -0.043   3.844   0.023  0.00  0.00    +0.046 A 
ATOM     31  C   UNL     1      -1.237   3.137   0.030  0.00  0.00    +0.124 A 
BRANCH  28  32
ATOM     32  C   UNL     1       2.490   1.045  -0.016  0.00  0.00    -0.013 C 
ATOM     33  C   UNL     1       2.570   0.173  -1.270  0.00  0.00    +0.015 C 
ATOM     34  C   UNL     1       3.640   2.053  -0.021  0.00  0.00    +0.015 C 
ATOM     35  C   UNL     1       2.593   0.160   1.228  0.00  0.00    +0.015 C 
ENDBRANCH  28  32
ENDBRANCH  24  31
ENDBRANCH  23  24
ENDBRANCH  20  23
ENDBRANCH  19  20
ENDBRANCH   1  19
TORSDOF 9
