REMARK  Name = ZINC15836696
REMARK  9 active torsions:
REMARK  status: ('A' for Active; 'I' for Inactive)
REMARK    1  A    between atoms: C_1  and  C_2
REMARK    2  A    between atoms: C_2  and  O_3
REMARK    3  A    between atoms: O_3  and  C_4
REMARK    4  A    between atoms: C_7  and  C_13
REMARK    5  A    between atoms: C_9  and  O_10
REMARK    6  A    between atoms: O_10  and  C_11
REMARK    7  A    between atoms: C_11  and  C_12
REMARK    8  A    between atoms: C_13  and  N_51
REMARK    9  A    between atoms: C_17  and  C_19
REMARK                            x       y       z     vdW  Elec       q    Type
REMARK                         _______ _______ _______ _____ _____    ______ ____
ROOT
ATOM      1  C   UNL     1       3.608   0.815   0.180  0.00  0.00    -0.042 C 
ENDROOT
BRANCH   1   5
ATOM      2  C   UNL     1       5.655   3.818   2.434  0.00  0.00    +0.162 A 
ATOM      3  C   UNL     1       5.077   4.136   1.216  0.00  0.00    +0.049 A 
ATOM      4  C   UNL     1       4.421   3.162   0.487  0.00  0.00    +0.005 A 
ATOM      5  C   UNL     1       4.330   1.872   0.976  0.00  0.00    -0.060 A 
ATOM      6  C   UNL     1       4.904   1.548   2.191  0.00  0.00    +0.051 A 
ATOM      7  C   UNL     1       5.569   2.518   2.924  0.00  0.00    +0.162 A 
BRANCH   2   8
ATOM      8  O   UNL     1       6.307   4.773   3.150  0.00  0.00    -0.489 OA
BRANCH   8  10
ATOM      9  C   UNL     1       7.123   7.016   3.527  0.00  0.00    +0.048 C 
ATOM     10  C   UNL     1       6.356   6.085   2.586  0.00  0.00    +0.226 C 
ENDBRANCH   8  10
ENDBRANCH   2   8
BRANCH   7  11
ATOM     11  O   UNL     1       6.134   2.201   4.120  0.00  0.00    -0.489 OA
BRANCH  11  12
ATOM     12  C   UNL     1       6.005   0.848   4.559  0.00  0.00    +0.226 C 
ATOM     13  C   UNL     1       6.699   0.683   5.913  0.00  0.00    +0.048 C 
ENDBRANCH  11  12
ENDBRANCH   7  11
ENDBRANCH   1   5
BRANCH   1  18
ATOM     14  C   UNL     1       1.466   1.960  -0.001  0.00  0.00    -0.078 C 
ATOM     15  C   UNL     1      -0.019   1.538   0.011  0.00  0.00    -0.020 C 
ATOM     16  C   UNL     1       0.002  -0.004   0.002  0.00  0.00    -0.013 C 
ATOM     17  C   UNL     1       1.498  -0.385  -0.014  0.00  0.00    -0.037 C 
ATOM     18  N   UNL     1       2.158   0.789   0.551  0.00  0.00    +0.387 N 
ATOM     19  H   UNL     1       2.072   0.781   1.575  0.00  0.00    -0.080 HD
BRANCH  17  20
ATOM     20  C   UNL     1       1.738  -1.609   0.832  0.00  0.00    -0.061 A 
ATOM     21  C   UNL     1       1.806  -1.495   2.208  0.00  0.00    +0.003 A 
ATOM     22  C   UNL     1       2.021  -2.618   2.985  0.00  0.00    +0.020 A 
ATOM     23  C   UNL     1       2.179  -3.854   2.384  0.00  0.00    +0.041 A 
ATOM     24  C   UNL     1       2.116  -3.966   1.007  0.00  0.00    +0.020 A 
ATOM     25  C   UNL     1       1.896  -2.844   0.231  0.00  0.00    +0.003 A 
ATOM     26 CL   UNL     1       2.456  -5.264   3.359  0.00  0.00    -0.084 Cl
ENDBRANCH  17  20
ENDBRANCH   1  18
TORSDOF 7
