REMARK  Name = ZINC58541969
REMARK  11 active torsions:
REMARK  status: ('A' for Active; 'I' for Inactive)
REMARK    1  A    between atoms: C_1  and  C_2
REMARK    2  A    between atoms: C_2  and  C_3
REMARK    3  A    between atoms: C_3  and  C_5
REMARK    4  A    between atoms: C_3  and  C_6
REMARK    5  A    between atoms: C_9  and  C_12
REMARK    6  A    between atoms: C_12  and  C_14
REMARK    7  A    between atoms: C_12  and  N_17
REMARK    8  A    between atoms: C_14  and  C_15
REMARK    9  A    between atoms: C_14  and  C_16
REMARK   10  A    between atoms: N_23  and  C_26
REMARK   11  A    between atoms: C_26  and  C_27
REMARK                            x       y       z     vdW  Elec       q    Type
REMARK                         _______ _______ _______ _____ _____    ______ ____
ROOT
ATOM      1  N   UNL     1       2.309  -6.702   1.866  0.00  0.00    -0.292 N 
ATOM      2  C   UNL     1       2.300  -7.954   2.367  0.00  0.00    +0.303 C 
ATOM      3  O   UNL     1       1.355  -8.687   2.153  0.00  0.00    -0.253 OA
ATOM      4  N   UNL     1       3.340  -8.391   3.104  0.00  0.00    -0.283 N 
ATOM      5  C   UNL     1       4.439  -7.486   3.472  0.00  0.00    +0.124 C 
ATOM      6  C   UNL     1       5.766  -8.152   3.091  0.00  0.00    +0.104 C 
ATOM      7  N   UNL     1       5.832  -9.487   3.699  0.00  0.00    -0.292 NA
ATOM      8  C   UNL     1       4.773 -10.362   3.179  0.00  0.00    +0.104 C 
ATOM      9  C   UNL     1       3.402  -9.786   3.568  0.00  0.00    +0.124 C 
ATOM     10  H   UNL     1       3.025  -6.091   2.100  0.00  0.00    +0.151 HD
ENDROOT
BRANCH   1  11
ATOM     11  C   UNL     1       1.236  -6.265   0.969  0.00  0.00    +0.107 C 
BRANCH  11  15
ATOM     12  C   UNL     1       0.864  -2.014   1.164  0.00  0.00    -0.045 A 
ATOM     13  C   UNL     1      -0.268  -2.804   1.095  0.00  0.00    +0.004 A 
ATOM     14  C   UNL     1      -0.147  -4.180   1.032  0.00  0.00    +0.006 A 
ATOM     15  C   UNL     1       1.105  -4.765   1.037  0.00  0.00    -0.027 A 
ATOM     16  C   UNL     1       2.237  -3.975   1.105  0.00  0.00    +0.006 A 
ATOM     17  C   UNL     1       2.117  -2.599   1.164  0.00  0.00    +0.004 A 
BRANCH  12  18
ATOM     18  C   UNL     1       0.733  -0.514   1.233  0.00  0.00    +0.016 C 
ATOM     19  C   UNL     1      -0.058  -0.128   2.484  0.00  0.00    +0.012 C 
BRANCH  18  21
ATOM     20  C   UNL     1      -0.026   1.521  -0.003  0.00  0.00    +0.004 C 
ATOM     21  C   UNL     1      -0.002  -0.009  -0.011  0.00  0.00    +0.004 C 
ENDBRANCH  18  21
ENDBRANCH  12  18
ENDBRANCH  11  15
BRANCH  11  22
ATOM     22  C   UNL     1       1.568  -6.684  -0.464  0.00  0.00    +0.008 C 
ATOM     23  C   UNL     1       1.701  -8.206  -0.533  0.00  0.00    +0.009 C 
ATOM     24  C   UNL     1       0.448  -6.227  -1.401  0.00  0.00    +0.009 C 
ENDBRANCH  11  22
ENDBRANCH   1  11
BRANCH   7  25
ATOM     25  C   UNL     1       7.157 -10.090   3.502  0.00  0.00    +0.158 C 
BRANCH  25  26
ATOM     26  C   UNL     1       7.270 -11.339   4.339  0.00  0.00    +0.124 A 
ATOM     27  N   UNL     1       8.433 -12.040   4.296  0.00  0.00    -0.309 N 
ATOM     28  H   UNL     1       9.161 -11.730   3.735  0.00  0.00    +0.170 HD
ATOM     29  C   UNL     1       8.585 -13.168   5.029  0.00  0.00    +0.259 A 
ATOM     30  O   UNL     1       9.621 -13.805   5.001  0.00  0.00    -0.267 OA
ATOM     31  C   UNL     1       7.449 -13.592   5.861  0.00  0.00    +0.065 A 
ATOM     32  C   UNL     1       7.503 -14.738   6.652  0.00  0.00    +0.015 A 
ATOM     33  C   UNL     1       6.409 -15.089   7.413  0.00  0.00    +0.001 A 
ATOM     34  C   UNL     1       5.258 -14.312   7.396  0.00  0.00    +0.002 A 
ATOM     35  C   UNL     1       5.185 -13.177   6.620  0.00  0.00    +0.028 A 
ATOM     36  C   UNL     1       6.280 -12.800   5.841  0.00  0.00    +0.078 A 
ATOM     37  N   UNL     1       6.253 -11.686   5.067  0.00  0.00    -0.232 NA
ENDBRANCH  25  26
ENDBRANCH   7  25
TORSDOF 7
