REMARK  Name = ZINC64215555
REMARK  8 active torsions:
REMARK  status: ('A' for Active; 'I' for Inactive)
REMARK    1  A    between atoms: C_1  and  C_2
REMARK    2  A    between atoms: C_5  and  C_30
REMARK    3  A    between atoms: C_6  and  C_8
REMARK    4  A    between atoms: C_8  and  C_9
REMARK    5  A    between atoms: N_11  and  C_12
REMARK    6  A    between atoms: C_12  and  C_13
REMARK    7  A    between atoms: C_13  and  C_15
REMARK    8  A    between atoms: C_13  and  C_21
REMARK                            x       y       z     vdW  Elec       q    Type
REMARK                         _______ _______ _______ _____ _____    ______ ____
ROOT
ATOM      1  C   UNL     1       1.389  -5.606   3.711  0.00  0.00    +0.116 C 
ENDROOT
BRANCH   1   4
ATOM      2  C   UNL     1       1.541  -3.876   2.002  0.00  0.00    +0.214 C 
ATOM      3  O   UNL     1       2.233  -3.229   2.759  0.00  0.00    -0.276 OA
ATOM      4  N   UNL     1       1.067  -5.079   2.383  0.00  0.00    -0.314 N 
ATOM      5  H   UNL     1       0.513  -5.596   1.777  0.00  0.00    +0.149 HD
BRANCH   2   6
ATOM      6  C   UNL     1       1.210  -3.334   0.635  0.00  0.00    +0.116 C 
BRANCH   6  11
ATOM      7  C   UNL     1      -0.019   1.526   0.010  0.00  0.00    +0.044 C 
ATOM      8  C   UNL     1       0.002  -0.004   0.002  0.00  0.00    +0.160 C 
ATOM      9  N   UNL     1       0.787  -0.520  -1.137  0.00  0.00    -0.272 NA
ATOM     10  C   UNL     1       1.660  -1.432  -0.954  0.00  0.00    +0.064 C 
ATOM     11  C   UNL     1       1.865  -1.964   0.457  0.00  0.00    +0.106 C 
ATOM     12  S   UNL     1       0.976  -0.665   1.425  0.00  0.00    -0.124 S 
BRANCH  10  13
ATOM     13  C   UNL     1       2.446  -1.954  -2.074  0.00  0.00    +0.034 A 
ATOM     14  C   UNL     1       2.406  -1.595  -3.413  0.00  0.00    +0.017 A 
ATOM     15  C   UNL     1       3.274  -2.270  -4.239  0.00  0.00    +0.008 A 
ATOM     16  C   UNL     1       4.087  -3.215  -3.708  0.00  0.00    +0.046 A 
ATOM     17  S   UNL     1       3.708  -3.213  -2.071  0.00  0.00    -0.095 S 
ENDBRANCH  10  13
ENDBRANCH   6  11
ENDBRANCH   2   6
ENDBRANCH   1   4
BRANCH   1  18
ATOM     18  C   UNL     1       0.734  -6.976   3.889  0.00  0.00    +0.064 C 
BRANCH  18  19
ATOM     19  C   UNL     1       0.961  -7.463   5.297  0.00  0.00    -0.033 C 
ATOM     20  C   UNL     1       0.016  -7.768   6.215  0.00  0.00    -0.000 A 
ATOM     21  C   UNL     1      -1.451  -7.737   6.180  0.00  0.00    +0.010 A 
ATOM     22  C   UNL     1      -2.142  -8.108   7.282  0.00  0.00    +0.001 A 
ATOM     23  C   UNL     1      -1.493  -8.519   8.455  0.00  0.00    +0.002 A 
ATOM     24  C   UNL     1      -0.149  -8.573   8.564  0.00  0.00    +0.026 A 
ATOM     25  C   UNL     1       0.677  -8.206   7.465  0.00  0.00    +0.043 A 
ATOM     26  N   UNL     1       1.980  -8.174   7.326  0.00  0.00    -0.380 N 
ATOM     27  C   UNL     1       2.293  -7.716   5.967  0.00  0.00    +0.145 C 
ATOM     28  H   UNL     1       2.628  -8.416   8.005  0.00  0.00    +0.160 HD
ENDBRANCH  18  19
BRANCH  18  29
ATOM     29  C   UNL     1       1.340  -7.954   2.916  0.00  0.00    -0.039 A 
ATOM     30  C   UNL     1       2.694  -8.228   2.964  0.00  0.00    +0.004 A 
ATOM     31  C   UNL     1       3.250  -9.124   2.071  0.00  0.00    +0.000 A 
ATOM     32  C   UNL     1       2.452  -9.747   1.129  0.00  0.00    +0.000 A 
ATOM     33  C   UNL     1       1.098  -9.474   1.081  0.00  0.00    +0.000 A 
ATOM     34  C   UNL     1       0.541  -8.580   1.978  0.00  0.00    +0.004 A 
ENDBRANCH  18  29
ENDBRANCH   1  18
TORSDOF 7
