REMARK  Name = ZINC16046672
REMARK  8 active torsions:
REMARK  status: ('A' for Active; 'I' for Inactive)
REMARK    1  A    between atoms: C_1  and  C_2
REMARK    2  A    between atoms: C_2  and  C_4
REMARK    3  A    between atoms: C_2  and  N_16
REMARK    4  A    between atoms: N_16  and  C_17
REMARK    5  A    between atoms: C_17  and  C_19
REMARK    6  A    between atoms: C_17  and  C_30
REMARK    7  A    between atoms: C_30  and  C_31
REMARK    8  A    between atoms: C_30  and  C_32
REMARK                            x       y       z     vdW  Elec       q    Type
REMARK                         _______ _______ _______ _____ _____    ______ ____
ROOT
ATOM      1  N   UNL     1      -1.594  -0.555   0.071  0.00  0.00    -0.300 NA
ATOM      2  H   UNL     1      -0.847  -1.216   0.220  0.00  0.00    +0.123 HD
ENDROOT
BRANCH   1   4
ATOM      3  C   UNL     1      -2.422   1.562   0.983  0.00  0.00    +0.032 C 
ATOM      4  C   UNL     1      -1.193   0.795   0.488  0.00  0.00    +0.118 C 
BRANCH   4   5
ATOM      5  C   UNL     1      -0.181   0.697   1.600  0.00  0.00    +0.127 A 
ATOM      6  N   UNL     1       0.233   1.845   2.198  0.00  0.00    -0.309 N 
ATOM      7  H   UNL     1      -0.126   2.697   1.903  0.00  0.00    +0.170 HD
ATOM      8  C   UNL     1       1.140   1.811   3.202  0.00  0.00    +0.259 A 
ATOM      9  O   UNL     1       1.519   2.831   3.747  0.00  0.00    -0.267 OA
ATOM     10  C   UNL     1       1.650   0.493   3.609  0.00  0.00    +0.065 A 
ATOM     11  C   UNL     1       2.586   0.348   4.631  0.00  0.00    +0.015 A 
ATOM     12  C   UNL     1       3.030  -0.911   4.971  0.00  0.00    +0.001 A 
ATOM     13  C   UNL     1       2.553  -2.032   4.305  0.00  0.00    +0.002 A 
ATOM     14  C   UNL     1       1.628  -1.911   3.292  0.00  0.00    +0.028 A 
ATOM     15  C   UNL     1       1.162  -0.645   2.929  0.00  0.00    +0.078 A 
ATOM     16  N   UNL     1       0.247  -0.480   1.941  0.00  0.00    -0.232 NA
ENDBRANCH   4   5
ENDBRANCH   1   4
BRANCH   1  17
ATOM     17  C   UNL     1      -2.033  -0.564  -1.331  0.00  0.00    +0.087 C 
BRANCH  17  18
ATOM     18  C   UNL     1      -3.512  -0.285  -1.397  0.00  0.00    -0.027 A 
ATOM     19  C   UNL     1      -4.360  -0.842  -0.458  0.00  0.00    +0.009 A 
ATOM     20  C   UNL     1      -5.720  -0.590  -0.512  0.00  0.00    +0.050 A 
ATOM     21  C   UNL     1      -6.228   0.223  -1.510  0.00  0.00    +0.162 A 
ATOM     22  C   UNL     1      -5.377   0.783  -2.452  0.00  0.00    +0.162 A 
ATOM     23  C   UNL     1      -4.016   0.532  -2.393  0.00  0.00    +0.054 A 
ATOM     24  O   UNL     1      -5.888   1.584  -3.431  0.00  0.00    -0.488 OA
ATOM     25  C   UNL     1      -6.709   0.935  -4.404  0.00  0.00    +0.232 C 
ATOM     26  C   UNL     1      -8.142   0.817  -3.909  0.00  0.00    +0.082 C 
ATOM     27  C   UNL     1      -8.259  -0.084  -2.689  0.00  0.00    +0.232 C 
ATOM     28  O   UNL     1      -7.567   0.481  -1.573  0.00  0.00    -0.488 OA
ENDBRANCH  17  18
BRANCH  17  29
ATOM     29  C   UNL     1      -1.744  -1.934  -1.947  0.00  0.00    +0.004 C 
ATOM     30  C   UNL     1      -0.232  -2.157  -2.011  0.00  0.00    +0.009 C 
ATOM     31  C   UNL     1      -2.384  -3.025  -1.087  0.00  0.00    +0.009 C 
ENDBRANCH  17  29
ENDBRANCH   1  17
TORSDOF 5
