REMARK  Name = ZINC45828273
REMARK  4 active torsions:
REMARK  status: ('A' for Active; 'I' for Inactive)
REMARK    1  A    between atoms: C_8  and  C_10
REMARK    2  A    between atoms: C_11  and  C_12
REMARK    3  A    between atoms: N_14  and  C_15
REMARK    4  A    between atoms: C_18  and  N_21
REMARK                            x       y       z     vdW  Elec       q    Type
REMARK                         _______ _______ _______ _____ _____    ______ ____
ROOT
ATOM      1  C   UNL     1       7.580  -3.481  -0.686  0.00  0.00    +0.241 C 
ATOM      2  O   UNL     1       8.660  -3.540  -1.243  0.00  0.00    -0.270 OA
ATOM      3  N   UNL     1       7.067  -4.577  -0.092  0.00  0.00    -0.282 N 
ATOM      4  H   UNL     1       6.238  -4.515   0.407  0.00  0.00    +0.155 HD
ENDROOT
BRANCH   3   5
ATOM      5  C   UNL     1       7.732  -5.804  -0.195  0.00  0.00    +0.034 A 
ATOM      6  C   UNL     1       7.003  -6.983  -0.285  0.00  0.00    +0.025 A 
ATOM      7  C   UNL     1       7.658  -8.194  -0.388  0.00  0.00    +0.025 A 
ATOM      8  C   UNL     1       9.046  -8.233  -0.401  0.00  0.00    +0.038 A 
ATOM      9  C   UNL     1       9.775  -7.054  -0.311  0.00  0.00    +0.025 A 
ATOM     10  C   UNL     1       9.120  -5.843  -0.214  0.00  0.00    +0.025 A 
BRANCH   8  11
ATOM     11  N   UNL     1       9.712  -9.461  -0.505  0.00  0.00    -0.254 N 
ATOM     12  C   UNL     1      11.166  -9.654  -0.409  0.00  0.00    +0.134 C 
ATOM     13  C   UNL     1      11.351 -11.173  -0.591  0.00  0.00    +0.125 C 
ATOM     14  N   UNL     1       9.981 -11.675  -0.770  0.00  0.00    -0.297 N 
ATOM     15  C   UNL     1       9.123 -10.649  -0.702  0.00  0.00    +0.307 C 
ATOM     16  O   UNL     1       7.920 -10.781  -0.813  0.00  0.00    -0.252 OA
ATOM     17  H   UNL     1       9.736 -12.603  -0.910  0.00  0.00    +0.150 HD
ENDBRANCH   8  11
ENDBRANCH   3   5
BRANCH   1  19
ATOM     18  C   UNL     1       7.349  -1.120  -1.255  0.00  0.00    +0.073 C 
ATOM     19  C   UNL     1       6.835  -2.217  -0.660  0.00  0.00    +0.073 C 
BRANCH  18  27
ATOM     20  C   UNL     1       4.880   4.289  -1.528  0.00  0.00    +0.002 A 
ATOM     21  C   UNL     1       3.856   3.691  -0.808  0.00  0.00    +0.004 A 
ATOM     22  C   UNL     1       3.931   2.359  -0.458  0.00  0.00    +0.048 A 
ATOM     23  C   UNL     1       5.038   1.611  -0.827  0.00  0.00    +0.156 A 
ATOM     24  C   UNL     1       6.077   2.217  -1.558  0.00  0.00    +0.110 A 
ATOM     25  C   UNL     1       5.980   3.570  -1.902  0.00  0.00    +0.031 A 
ATOM     26  N   UNL     1       7.008   1.267  -1.774  0.00  0.00    -0.209 NA
ATOM     27  C   UNL     1       6.604   0.144  -1.230  0.00  0.00    +0.221 A 
ATOM     28  O   UNL     1       5.403   0.324  -0.644  0.00  0.00    -0.436 OA
ENDBRANCH  18  27
ENDBRANCH   1  19
TORSDOF 4
