REMARK  Name = ZINC06149158
REMARK  13 active torsions:
REMARK  status: ('A' for Active; 'I' for Inactive)
REMARK    1  A    between atoms: C_1  and  C_2
REMARK    2  A    between atoms: C_2  and  C_3
REMARK    3  A    between atoms: C_3  and  C_4
REMARK    4  A    between atoms: C_3  and  C_5
REMARK    5  A    between atoms: C_3  and  N_6
REMARK    6  A    between atoms: C_7  and  C_11
REMARK    7  A    between atoms: C_11  and  C_13
REMARK    8  A    between atoms: C_11  and  N_69
REMARK    9  A    between atoms: C_17  and  C_25
REMARK   10  A    between atoms: C_26  and  C_27
REMARK   11  A    between atoms: C_26  and  N_69
REMARK   12  A    between atoms: C_34  and  C_35
REMARK   13  A    between atoms: C_34  and  N_69
REMARK                            x       y       z     vdW  Elec       q    Type
REMARK                         _______ _______ _______ _____ _____    ______ ____
ROOT
ATOM      1  C   UNL     1       0.255   3.754   2.371  0.00  0.00    +0.040 C 
ENDROOT
BRANCH   1   2
ATOM      2  C   UNL     1      -0.389   2.438   2.721  0.00  0.00    +0.011 A 
ATOM      3  C   UNL     1      -0.793   2.200   3.994  0.00  0.00    +0.017 A 
ATOM      4  C   UNL     1      -1.415   0.911   4.301  0.00  0.00    -0.001 A 
ATOM      5  C   UNL     1      -1.852   0.610   5.595  0.00  0.00    +0.013 A 
ATOM      6  C   UNL     1      -2.429  -0.602   5.850  0.00  0.00    -0.050 A 
ATOM      7  C   UNL     1      -2.586  -1.537   4.835  0.00  0.00    +0.005 A 
ATOM      8  C   UNL     1      -2.162  -1.261   3.553  0.00  0.00    +0.026 A 
ATOM      9  C   UNL     1      -1.572  -0.034   3.270  0.00  0.00    +0.049 A 
ATOM     10  N   UNL     1      -1.140   0.269   1.996  0.00  0.00    -0.322 N 
ATOM     11  H   UNL     1      -1.249  -0.405   1.266  0.00  0.00    +0.169 HD
ATOM     12  C   UNL     1      -0.575   1.458   1.722  0.00  0.00    +0.251 A 
ATOM     13  O   UNL     1      -0.209   1.693   0.584  0.00  0.00    -0.268 OA
ATOM     14  C   UNL     1      -2.900  -0.927   7.244  0.00  0.00    +0.044 C 
ENDBRANCH   1   2
BRANCH   1  16
ATOM     15  N   UNL     1      -1.420   5.516   1.601  0.00  0.00    -0.225 N 
ATOM     16  C   UNL     1      -0.598   4.478   1.361  0.00  0.00    +0.143 A 
ATOM     17  N   UNL     1      -0.679   4.222   0.078  0.00  0.00    -0.115 NA
ATOM     18  N   UNL     1      -1.514   5.055  -0.441  0.00  0.00    -0.023 NA
ATOM     19  N   UNL     1      -1.961   5.840   0.475  0.00  0.00    -0.043 NA
BRANCH  15  20
ATOM     20  C   UNL     1      -1.656   6.158   2.897  0.00  0.00    +0.061 C 
ATOM     21  C   UNL     1      -2.096   5.105   3.915  0.00  0.00    +0.036 C 
ATOM     22  C   UNL     1      -0.366   6.825   3.377  0.00  0.00    +0.036 C 
BRANCH  20  24
ATOM     23  C   UNL     1      -2.999   7.886   4.103  0.00  0.00    +0.006 C 
ATOM     24  C   UNL     1      -2.753   7.215   2.750  0.00  0.00    +0.026 C 
ENDBRANCH  20  24
ENDBRANCH  15  20
ENDBRANCH   1  16
BRANCH   1  25
ATOM     25  N   UNL     1       1.584   3.500   1.776  0.00  0.00    +0.397 N 
ATOM     26  H   UNL     1       1.459   3.110   0.834  0.00  0.00    -0.079 HD
BRANCH  25  27
ATOM     27  C   UNL     1       2.331   2.530   2.603  0.00  0.00    -0.039 C 
BRANCH  27  28
ATOM     28  C   UNL     1       3.597   2.147   1.880  0.00  0.00    -0.046 A 
ATOM     29  C   UNL     1       3.605   1.060   1.027  0.00  0.00    +0.003 A 
ATOM     30  C   UNL     1       4.765   0.712   0.361  0.00  0.00    +0.000 A 
ATOM     31  C   UNL     1       5.921   1.445   0.555  0.00  0.00    +0.001 A 
ATOM     32  C   UNL     1       5.916   2.530   1.411  0.00  0.00    +0.020 A 
ATOM     33  C   UNL     1       4.753   2.882   2.075  0.00  0.00    +0.042 A 
ATOM     34 CL   UNL     1       4.747   4.244   3.151  0.00  0.00    -0.083 Cl
ENDBRANCH  27  28
ENDBRANCH  25  27
BRANCH  25  35
ATOM     35  C   UNL     1       2.342   4.765   1.673  0.00  0.00    -0.001 C 
BRANCH  35  36
ATOM     36  C   UNL     1       1.781   5.574   0.531  0.00  0.00    +0.089 A 
ATOM     37  C   UNL     1       1.272   6.816   0.622  0.00  0.00    +0.042 A 
ATOM     38  C   UNL     1       0.866   7.188  -0.680  0.00  0.00    +0.041 A 
ATOM     39  C   UNL     1       1.151   6.152  -1.488  0.00  0.00    +0.195 A 
ATOM     40  O   UNL     1       1.705   5.177  -0.749  0.00  0.00    -0.470 OA
ENDBRANCH  35  36
ENDBRANCH  25  35
ENDBRANCH   1  25
TORSDOF 9
