REMARK  Name = ZINC22607156
REMARK  2 active torsions:
REMARK  status: ('A' for Active; 'I' for Inactive)
REMARK    1  A    between atoms: C_1  and  C_2
REMARK    2  A    between atoms: C_17  and  C_20
REMARK                            x       y       z     vdW  Elec       q    Type
REMARK                         _______ _______ _______ _____ _____    ______ ____
ROOT
ATOM      1  C   UNL     1      -0.018   1.503   0.010  0.00  0.00    +0.066 C 
ATOM      2  C   UNL     1       0.002  -0.004   0.002  0.00  0.00    +0.053 C 
ATOM      3  N   UNL     1       0.004  -0.577  -1.143  0.00  0.00    -0.250 NA
ATOM      4  C   UNL     1       0.010  -1.917  -1.403  0.00  0.00    +0.085 A 
ATOM      5  C   UNL     1      -0.771  -2.413  -2.448  0.00  0.00    +0.029 A 
ATOM      6  C   UNL     1      -0.745  -3.760  -2.756  0.00  0.00    +0.002 A 
ATOM      7  C   UNL     1       0.057  -4.623  -2.035  0.00  0.00    +0.002 A 
ATOM      8  C   UNL     1       0.825  -4.145  -0.984  0.00  0.00    +0.025 A 
ATOM      9  C   UNL     1       0.789  -2.804  -0.652  0.00  0.00    +0.057 A 
ATOM     10  N   UNL     1       1.489  -2.352   0.483  0.00  0.00    -0.315 N 
ATOM     11  C   UNL     1       0.782  -1.802   1.505  0.00  0.00    +0.023 C 
ATOM     12  C   UNL     1       0.024  -0.672   1.302  0.00  0.00    +0.075 C 
ATOM     13  C   UNL     1      -0.743  -0.118   2.427  0.00  0.00    +0.247 C 
ATOM     14  O   UNL     1      -1.920   0.163   2.299  0.00  0.00    -0.270 OA
ATOM     15  N   UNL     1      -0.115   0.071   3.603  0.00  0.00    -0.311 N 
ATOM     16  C   UNL     1       1.326  -0.150   3.703  0.00  0.00    +0.113 C 
ATOM     17  C   UNL     1       1.637  -1.635   3.843  0.00  0.00    +0.042 C 
ATOM     18  C   UNL     1       0.787  -2.454   2.865  0.00  0.00    +0.061 C 
ATOM     19  H   UNL     1       2.455  -2.432   0.535  0.00  0.00    +0.152 HD
ATOM     20  H   UNL     1      -0.619   0.354   4.382  0.00  0.00    +0.149 HD
ENDROOT
BRANCH  17  21
ATOM     21  C   UNL     1       3.099  -1.866   3.561  0.00  0.00    -0.042 A 
ATOM     22  C   UNL     1       3.629  -1.520   2.332  0.00  0.00    +0.005 A 
ATOM     23  C   UNL     1       4.970  -1.731   2.073  0.00  0.00    +0.020 A 
ATOM     24  C   UNL     1       5.782  -2.289   3.044  0.00  0.00    +0.041 A 
ATOM     25  C   UNL     1       5.252  -2.635   4.274  0.00  0.00    +0.020 A 
ATOM     26  C   UNL     1       3.911  -2.418   4.534  0.00  0.00    +0.005 A 
ATOM     27 CL   UNL     1       7.467  -2.555   2.719  0.00  0.00    -0.084 Cl
ENDBRANCH  17  21
TORSDOF 1
