REMARK  Name = ZINC03238726
REMARK  8 active torsions:
REMARK  status: ('A' for Active; 'I' for Inactive)
REMARK    1  A    between atoms: C_1  and  C_2
REMARK    2  A    between atoms: C_2  and  O_3
REMARK    3  A    between atoms: O_3  and  C_4
REMARK    4  A    between atoms: C_4  and  C_6
REMARK    5  A    between atoms: C_7  and  C_25
REMARK    6  A    between atoms: C_8  and  C_24
REMARK    7  A    between atoms: C_10  and  N_11
REMARK    8  A    between atoms: C_12  and  C_13
REMARK                            x       y       z     vdW  Elec       q    Type
REMARK                         _______ _______ _______ _____ _____    ______ ____
ROOT
ATOM      1  N   UNL     1      -0.567  -2.475  -3.960  0.00  0.00    -0.247 NA
ATOM      2  C   UNL     1      -1.043  -2.801  -5.138  0.00  0.00    +0.122 C 
ENDROOT
BRANCH   2   3
ATOM      3  C   UNL     1      -2.468  -2.634  -5.422  0.00  0.00    +0.018 A 
ATOM      4  C   UNL     1      -3.109  -2.933  -6.592  0.00  0.00    +0.093 A 
ATOM      5  N   UNL     1      -4.429  -2.642  -6.477  0.00  0.00    -0.360 N 
ATOM      6  H   UNL     1      -5.087  -2.769  -7.178  0.00  0.00    +0.165 HD
ATOM      7  C   UNL     1      -4.704  -2.139  -5.221  0.00  0.00    +0.047 A 
ATOM      8  C   UNL     1      -3.498  -2.116  -4.502  0.00  0.00    +0.009 A 
ATOM      9  C   UNL     1      -3.477  -1.656  -3.188  0.00  0.00    +0.026 A 
ATOM     10  C   UNL     1      -4.646  -1.228  -2.596  0.00  0.00    +0.019 A 
ATOM     11  C   UNL     1      -5.839  -1.254  -3.304  0.00  0.00    +0.017 A 
ATOM     12  C   UNL     1      -5.872  -1.698  -4.608  0.00  0.00    +0.027 A 
ATOM     13 BR   UNL     1      -4.624  -0.602  -0.811  0.00  0.00    -0.050 Br
ENDBRANCH   2   3
BRANCH   1  18
ATOM     14  C   UNL     1       1.448  -2.344  -2.515  0.00  0.00    +0.095 A 
ATOM     15  C   UNL     1       2.862  -2.619  -2.521  0.00  0.00    -0.024 A 
ATOM     16  C   UNL     1       3.416  -3.119  -3.642  0.00  0.00    -0.008 A 
ATOM     17  S   UNL     1       2.037  -3.246  -4.764  0.00  0.00    -0.073 S 
ATOM     18  C   UNL     1       0.747  -2.629  -3.697  0.00  0.00    +0.116 A 
ATOM     19  C   UNL     1       4.857  -3.484  -3.889  0.00  0.00    +0.052 C 
ATOM     20  C   UNL     1       3.703  -2.353  -1.299  0.00  0.00    +0.045 C 
BRANCH  14  21
ATOM     21  C   UNL     1       0.776  -1.800  -1.335  0.00  0.00    +0.342 C 
ATOM     22  O   UNL     1       0.312  -2.552  -0.499  0.00  0.00    -0.245 OA
BRANCH  21  23
ATOM     23  O   UNL     1       0.671  -0.465  -1.174  0.00  0.00    -0.461 OA
BRANCH  23  25
ATOM     24  C   UNL     1      -0.019   1.526   0.010  0.00  0.00    +0.048 C 
ATOM     25  C   UNL     1       0.002  -0.004   0.002  0.00  0.00    +0.229 C 
ENDBRANCH  23  25
ENDBRANCH  21  23
ENDBRANCH  14  21
ENDBRANCH   1  18
TORSDOF 5
