REMARK  Name = ZINC52585608
REMARK  6 active torsions:
REMARK  status: ('A' for Active; 'I' for Inactive)
REMARK    1  A    between atoms: C_4  and  C_7
REMARK    2  A    between atoms: C_7  and  O_8
REMARK    3  A    between atoms: O_8  and  C_9
REMARK    4  A    between atoms: C_13  and  C_18
REMARK    5  A    between atoms: C_18  and  C_20
REMARK    6  A    between atoms: C_24  and  C_27
REMARK                            x       y       z     vdW  Elec       q    Type
REMARK                         _______ _______ _______ _____ _____    ______ ____
ROOT
ATOM      1  C   UNL     1       5.317  -1.604   1.466  0.00  0.00    +0.123 A 
ATOM      2  C   UNL     1       6.042  -2.004   0.324  0.00  0.00    +0.046 A 
ATOM      3  C   UNL     1       7.218  -2.661   0.409  0.00  0.00    +0.014 A 
ATOM      4  C   UNL     1       7.772  -2.975   1.675  0.00  0.00    +0.006 A 
ATOM      5  C   UNL     1       8.931  -3.624   2.056  0.00  0.00    +0.025 C 
ATOM      6  C   UNL     1       8.919  -3.624   3.569  0.00  0.00    +0.152 C 
ATOM      7  N   UNL     1       7.686  -2.938   3.966  0.00  0.00    -0.380 N 
ATOM      8  C   UNL     1       7.035  -2.569   2.897  0.00  0.00    +0.047 A 
ATOM      9  C   UNL     1       5.765  -1.854   2.722  0.00  0.00    +0.071 A 
ATOM     10  H   UNL     1       7.400  -2.782   4.880  0.00  0.00    +0.160 HD
ENDROOT
BRANCH   5  11
ATOM     11  C   UNL     1       9.919  -4.173   1.210  0.00  0.00    +0.179 C 
ATOM     12  O   UNL     1       9.796  -4.100   0.004  0.00  0.00    -0.291 OA
BRANCH  11  13
ATOM     13  C   UNL     1      11.128  -4.851   1.803  0.00  0.00    +0.136 C 
ATOM     14  C   UNL     1      12.105  -3.778   2.369  0.00  0.00    +0.097 C 
ATOM     15  S   UNL     1      13.654  -4.780   2.414  0.00  0.00    -0.135 S 
ATOM     16  C   UNL     1      13.165  -6.086   1.213  0.00  0.00    +0.145 C 
ATOM     17  N   UNL     1      11.829  -5.619   0.758  0.00  0.00    -0.291 NA
ATOM     18  H   UNL     1      11.266  -6.394   0.440  0.00  0.00    +0.124 HD
BRANCH  16  19
ATOM     19  C   UNL     1      14.135  -6.145   0.061  0.00  0.00    -0.002 A 
ATOM     20  C   UNL     1      15.229  -6.996   0.107  0.00  0.00    +0.009 A 
ATOM     21  C   UNL     1      16.095  -7.016  -0.976  0.00  0.00    +0.020 A 
ATOM     22  C   UNL     1      15.841  -6.194  -2.057  0.00  0.00    +0.111 A 
ATOM     23  N   UNL     1      14.790  -5.396  -2.066  0.00  0.00    -0.263 NA
ATOM     24  C   UNL     1      13.942  -5.355  -1.057  0.00  0.00    +0.116 A 
ENDBRANCH  16  19
ENDBRANCH  11  13
ENDBRANCH   5  11
BRANCH   1  25
ATOM     25  O   UNL     1       4.141  -0.946   1.304  0.00  0.00    -0.487 OA
BRANCH  25  26
ATOM     26  C   UNL     1       3.711  -0.707  -0.038  0.00  0.00    +0.264 C 
BRANCH  26  30
ATOM     27  C   UNL     1      -0.017   1.378   0.010  0.00  0.00    +0.000 A 
ATOM     28  C   UNL     1       1.171   2.086   0.002  0.00  0.00    +0.000 A 
ATOM     29  C   UNL     1       2.377   1.411  -0.013  0.00  0.00    +0.007 A 
ATOM     30  C   UNL     1       2.396   0.029  -0.020  0.00  0.00    -0.010 A 
ATOM     31  C   UNL     1       1.208  -0.679  -0.012  0.00  0.00    +0.007 A 
ATOM     32  C   UNL     1       0.002  -0.004   0.002  0.00  0.00    +0.000 A 
ENDBRANCH  26  30
ENDBRANCH  25  26
ENDBRANCH   1  25
TORSDOF 6
