REMARK  Name = ZINC58928476
REMARK  5 active torsions:
REMARK  status: ('A' for Active; 'I' for Inactive)
REMARK    1  A    between atoms: C_1  and  O_2
REMARK    2  A    between atoms: O_2  and  C_3
REMARK    3  A    between atoms: C_6  and  C_11
REMARK    4  A    between atoms: C_8  and  O_9
REMARK    5  A    between atoms: O_9  and  C_10
REMARK                            x       y       z     vdW  Elec       q    Type
REMARK                         _______ _______ _______ _____ _____    ______ ____
ROOT
ATOM      1  C   UNL     1      -4.987  -2.627   0.035  0.00  0.00    +0.105 C 
ATOM      2  C   UNL     1      -5.492  -2.681   1.462  0.00  0.00    +0.029 C 
ATOM      3  C   UNL     1      -4.260  -2.705   2.409  0.00  0.00    +0.033 C 
ATOM      4  C   UNL     1      -4.016  -1.249   2.739  0.00  0.00    -0.030 C 
ATOM      5  C   UNL     1      -5.073  -0.525   2.467  0.00  0.00    -0.023 C 
ATOM      6  C   UNL     1      -6.193  -1.402   1.916  0.00  0.00    +0.049 C 
ATOM      7  C   UNL     1      -6.992  -0.723   0.856  0.00  0.00    -0.019 A 
ATOM      8  C   UNL     1      -7.922   0.239   1.224  0.00  0.00    +0.006 A 
ATOM      9  C   UNL     1      -8.687   0.877   0.270  0.00  0.00    +0.000 A 
ATOM     10  C   UNL     1      -8.535   0.561  -1.068  0.00  0.00    +0.002 A 
ATOM     11  C   UNL     1      -7.610  -0.391  -1.447  0.00  0.00    +0.023 A 
ATOM     12  C   UNL     1      -6.832  -1.029  -0.487  0.00  0.00    +0.031 A 
ATOM     13  N   UNL     1      -5.871  -1.940  -0.880  0.00  0.00    -0.336 N 
ATOM     14  H   UNL     1      -5.804  -2.144  -1.826  0.00  0.00    +0.147 HD
ENDROOT
BRANCH   1  18
ATOM     15  C   UNL     1      -1.201  -0.638   0.010  0.00  0.00    +0.162 A 
ATOM     16  C   UNL     1      -2.374   0.099   0.019  0.00  0.00    +0.050 A 
ATOM     17  C   UNL     1      -3.596  -0.546   0.027  0.00  0.00    +0.009 A 
ATOM     18  C   UNL     1      -3.652  -1.928   0.026  0.00  0.00    -0.023 A 
ATOM     19  C   UNL     1      -2.485  -2.669   0.017  0.00  0.00    +0.055 A 
ATOM     20  C   UNL     1      -1.257  -2.028   0.003  0.00  0.00    +0.162 A 
BRANCH  15  22
ATOM     21  C   UNL     1      -0.017   1.425   0.010  0.00  0.00    +0.277 C 
ATOM     22  O   UNL     1       0.002  -0.004   0.002  0.00  0.00    -0.491 OA
ENDBRANCH  15  22
BRANCH  20  23
ATOM     23  O   UNL     1      -0.108  -2.756  -0.012  0.00  0.00    -0.491 OA
ATOM     24  C   UNL     1      -0.242  -4.179  -0.018  0.00  0.00    +0.277 C 
ENDBRANCH  20  23
ENDBRANCH   1  18
TORSDOF 3
