REMARK  Name = ZINC62257809
REMARK  10 active torsions:
REMARK  status: ('A' for Active; 'I' for Inactive)
REMARK    1  A    between atoms: C_1  and  C_2
REMARK    2  A    between atoms: C_2  and  N_3
REMARK    3  A    between atoms: N_3  and  C_4
REMARK    4  A    between atoms: N_3  and  C_11
REMARK    5  A    between atoms: C_4  and  C_5
REMARK    6  A    between atoms: C_14  and  C_17
REMARK    7  A    between atoms: C_17  and  N_18
REMARK    8  A    between atoms: N_18  and  C_19
REMARK    9  A    between atoms: N_23  and  C_25
REMARK   10  A    between atoms: C_25  and  C_26
REMARK                            x       y       z     vdW  Elec       q    Type
REMARK                         _______ _______ _______ _____ _____    ______ ____
ROOT
ATOM      1  C   UNL     1       2.090  -0.703   1.140  0.00  0.00    +0.030 A 
ATOM      2  C   UNL     1       2.763  -1.169   2.263  0.00  0.00    +0.023 A 
ATOM      3  C   UNL     1       4.126  -1.380   2.211  0.00  0.00    +0.003 A 
ATOM      4  C   UNL     1       4.823  -1.127   1.043  0.00  0.00    -0.064 A 
ATOM      5  C   UNL     1       4.156  -0.664  -0.077  0.00  0.00    +0.003 A 
ATOM      6  C   UNL     1       2.792  -0.456  -0.033  0.00  0.00    +0.023 A 
ENDROOT
BRANCH   1   7
ATOM      7  N   UNL     1       0.711  -0.489   1.189  0.00  0.00    -0.326 N 
BRANCH   7   9
ATOM      8  C   UNL     1      -0.019   1.526   0.010  0.00  0.00    +0.024 C 
ATOM      9  C   UNL     1       0.002  -0.004   0.002  0.00  0.00    +0.102 C 
ENDBRANCH   7   9
BRANCH   7  10
ATOM     10  C   UNL     1      -0.028  -0.750   2.427  0.00  0.00    +0.140 C 
BRANCH  10  11
ATOM     11  C   UNL     1      -0.503  -2.180   2.436  0.00  0.00    -0.030 A 
ATOM     12  C   UNL     1      -1.736  -2.502   1.900  0.00  0.00    +0.005 A 
ATOM     13  C   UNL     1      -2.172  -3.814   1.908  0.00  0.00    +0.000 A 
ATOM     14  C   UNL     1      -1.376  -4.804   2.453  0.00  0.00    +0.000 A 
ATOM     15  C   UNL     1      -0.143  -4.482   2.989  0.00  0.00    +0.000 A 
ATOM     16  C   UNL     1       0.295  -3.171   2.976  0.00  0.00    +0.005 A 
ENDBRANCH  10  11
ENDBRANCH   7  10
ENDBRANCH   1   7
BRANCH   4  17
ATOM     17  C   UNL     1       6.311  -1.358   0.990  0.00  0.00    -0.046 C 
BRANCH  17  18
ATOM     18  N   UNL     1       6.578  -2.737   0.562  0.00  0.00    +0.384 N 
ATOM     19  H   UNL     1       6.162  -3.380   1.219  0.00  0.00    -0.085 HD
ATOM     20  H   UNL     1       6.182  -2.888  -0.353  0.00  0.00    -0.085 HD
BRANCH  18  21
ATOM     21  C   UNL     1       8.029  -2.962   0.511  0.00  0.00    -0.057 C 
ATOM     22  C   UNL     1       8.612  -2.860   1.923  0.00  0.00    -0.013 C 
ATOM     23  C   UNL     1      10.114  -3.155   1.869  0.00  0.00    +0.014 C 
ATOM     24  C   UNL     1      10.335  -4.544   1.266  0.00  0.00    +0.085 C 
ATOM     25  N   UNL     1       9.760  -4.589  -0.085  0.00  0.00    -0.296 NA
ATOM     26  C   UNL     1       8.311  -4.356  -0.053  0.00  0.00    +0.069 C 
BRANCH  25  27
ATOM     27  C   UNL     1      10.075  -5.862  -0.748  0.00  0.00    +0.180 C 
BRANCH  27  28
ATOM     28  C   UNL     1      11.560  -5.950  -0.988  0.00  0.00    +0.225 C 
ATOM     29  O   UNL     1      12.285  -5.042  -0.640  0.00  0.00    -0.275 OA
ATOM     30  N   UNL     1      12.082  -7.037  -1.589  0.00  0.00    -0.328 N 
ATOM     31  H   UNL     1      11.502  -7.763  -1.867  0.00  0.00    +0.145 HD
ATOM     32  H   UNL     1      13.038  -7.094  -1.743  0.00  0.00    +0.145 HD
ENDBRANCH  27  28
ENDBRANCH  25  27
ENDBRANCH  18  21
ENDBRANCH  17  18
ENDBRANCH   4  17
TORSDOF 9
