REMARK  Name = ZINC00803093
REMARK  6 active torsions:
REMARK  status: ('A' for Active; 'I' for Inactive)
REMARK    1  A    between atoms: C_1  and  O_2
REMARK    2  A    between atoms: O_2  and  C_3
REMARK    3  A    between atoms: C_6  and  C_11
REMARK    4  A    between atoms: C_8  and  O_9
REMARK    5  A    between atoms: O_9  and  C_10
REMARK    6  A    between atoms: C_14  and  C_22
REMARK                            x       y       z     vdW  Elec       q    Type
REMARK                         _______ _______ _______ _____ _____    ______ ____
ROOT
ATOM      1  C   UNL     1      -4.987  -2.627   0.035  0.00  0.00    +0.143 C 
ATOM      2  C   UNL     1      -5.789  -2.219  -1.207  0.00  0.00    +0.058 C 
ATOM      3  C   UNL     1      -7.238  -2.701  -1.069  0.00  0.00    +0.106 C 
ATOM      4  N   UNL     1      -7.847  -2.035   0.099  0.00  0.00    -0.307 N 
ATOM      5  C   UNL     1      -7.063  -1.964   1.243  0.00  0.00    +0.215 A 
ATOM      6  N   UNL     1      -5.734  -2.240   1.231  0.00  0.00    -0.226 N 
ATOM      7  N   UNL     1      -5.281  -2.075   2.540  0.00  0.00    -0.156 NA
ATOM      8  C   UNL     1      -6.317  -1.721   3.258  0.00  0.00    +0.247 A 
ATOM      9  N   UNL     1      -7.398  -1.650   2.465  0.00  0.00    -0.202 NA
ATOM     10  H   UNL     1      -8.744  -1.667   0.069  0.00  0.00    +0.149 HD
ENDROOT
BRANCH   3  11
ATOM     11  C   UNL     1      -7.257  -4.194  -0.871  0.00  0.00    -0.026 A 
ATOM     12  C   UNL     1      -7.004  -4.729   0.379  0.00  0.00    +0.007 A 
ATOM     13  C   UNL     1      -7.021  -6.099   0.562  0.00  0.00    +0.022 A 
ATOM     14  C   UNL     1      -7.292  -6.936  -0.506  0.00  0.00    +0.059 A 
ATOM     15  C   UNL     1      -7.546  -6.401  -1.757  0.00  0.00    +0.060 A 
ATOM     16  C   UNL     1      -7.534  -5.029  -1.937  0.00  0.00    +0.027 A 
ATOM     17 CL   UNL     1      -7.885  -7.450  -3.098  0.00  0.00    -0.082 Cl
ATOM     18 CL   UNL     1      -7.313  -8.657  -0.277  0.00  0.00    -0.082 Cl
ENDBRANCH   3  11
BRANCH   1  22
ATOM     19  C   UNL     1      -1.201  -0.638   0.010  0.00  0.00    +0.162 A 
ATOM     20  C   UNL     1      -2.374   0.099   0.019  0.00  0.00    +0.050 A 
ATOM     21  C   UNL     1      -3.596  -0.546   0.027  0.00  0.00    +0.009 A 
ATOM     22  C   UNL     1      -3.652  -1.928   0.026  0.00  0.00    -0.019 A 
ATOM     23  C   UNL     1      -2.485  -2.669   0.017  0.00  0.00    +0.055 A 
ATOM     24  C   UNL     1      -1.257  -2.028   0.003  0.00  0.00    +0.162 A 
BRANCH  19  26
ATOM     25  C   UNL     1      -0.017   1.425   0.010  0.00  0.00    +0.277 C 
ATOM     26  O   UNL     1       0.002  -0.004   0.002  0.00  0.00    -0.491 OA
ENDBRANCH  19  26
BRANCH  24  27
ATOM     27  O   UNL     1      -0.108  -2.756  -0.012  0.00  0.00    -0.491 OA
ATOM     28  C   UNL     1      -0.242  -4.179  -0.018  0.00  0.00    +0.277 C 
ENDBRANCH  24  27
ENDBRANCH   1  22
TORSDOF 4
