REMARK  Name = ZINC32424824
REMARK  13 active torsions:
REMARK  status: ('A' for Active; 'I' for Inactive)
REMARK    1  A    between atoms: C_1  and  C_2
REMARK    2  A    between atoms: C_3  and  C_34
REMARK    3  A    between atoms: C_11  and  C_13
REMARK    4  A    between atoms: C_13  and  S_14
REMARK    5  A    between atoms: S_14  and  C_15
REMARK    6  A    between atoms: C_15  and  C_17
REMARK    7  A    between atoms: C_15  and  C_18
REMARK    8  A    between atoms: N_20  and  C_21
REMARK    9  A    between atoms: C_21  and  C_22
REMARK   10  A    between atoms: C_22  and  C_24
REMARK   11  A    between atoms: C_22  and  N_31
REMARK   12  A    between atoms: N_31  and  C_32
REMARK   13  A    between atoms: N_31  and  C_33
REMARK                            x       y       z     vdW  Elec       q    Type
REMARK                         _______ _______ _______ _____ _____    ______ ____
ROOT
ATOM      1  C   UNL     1       0.066  -6.087   5.665  0.00  0.00    +0.129 C 
ATOM      2  C   UNL     1       1.248  -5.779   6.586  0.00  0.00    +0.029 C 
ENDROOT
BRANCH   1   3
ATOM      3  C   UNL     1       0.092  -7.546   5.286  0.00  0.00    +0.226 C 
ATOM      4  O   UNL     1       0.617  -7.894   4.250  0.00  0.00    -0.275 OA
ATOM      5  N   UNL     1      -0.470  -8.463   6.099  0.00  0.00    -0.316 N 
ATOM      6  H   UNL     1      -0.890  -8.184   6.928  0.00  0.00    +0.149 HD
BRANCH   5   7
ATOM      7  C   UNL     1      -0.445  -9.881   5.731  0.00  0.00    +0.093 C 
BRANCH   7   8
ATOM      8  C   UNL     1      -1.043 -10.713   6.867  0.00  0.00    -0.021 C 
BRANCH   8   9
ATOM      9  C   UNL     1      -2.497 -10.358   7.038  0.00  0.00    -0.057 A 
ATOM     10  C   UNL     1      -3.446 -10.903   6.193  0.00  0.00    +0.002 A 
ATOM     11  C   UNL     1      -4.780 -10.578   6.349  0.00  0.00    +0.003 A 
ATOM     12  C   UNL     1      -5.168  -9.707   7.350  0.00  0.00    +0.038 A 
ATOM     13  C   UNL     1      -4.219  -9.161   8.197  0.00  0.00    +0.124 A 
ATOM     14  C   UNL     1      -2.883  -9.492   8.044  0.00  0.00    +0.040 A 
ATOM     15  F   UNL     1      -4.596  -8.309   9.176  0.00  0.00    -0.205 F 
ENDBRANCH   8   9
BRANCH   8  16
ATOM     16  N   UNL     1      -0.922 -12.141   6.543  0.00  0.00    +0.382 N 
ATOM     17  C   UNL     1       0.495 -12.488   6.378  0.00  0.00    -0.096 C 
ATOM     18  C   UNL     1      -1.498 -12.940   7.633  0.00  0.00    -0.096 C 
ATOM     19  H   UNL     1      -1.419 -12.335   5.686  0.00  0.00    -0.082 HD
ENDBRANCH   8  16
ENDBRANCH   7   8
ENDBRANCH   5   7
ENDBRANCH   1   3
BRANCH   1  20
ATOM     20  S   UNL     1       0.187  -5.071   4.167  0.00  0.00    -0.141 S 
BRANCH  20  21
ATOM     21  C   UNL     1      -0.009  -3.373   4.772  0.00  0.00    +0.144 C 
BRANCH  21  32
ATOM     22  C   UNL     1       0.218   1.584   0.263  0.00  0.00    +0.045 C 
ATOM     23  C   UNL     1       0.324   0.081   0.257  0.00  0.00    -0.026 A 
ATOM     24  C   UNL     1       0.522  -0.582  -0.893  0.00  0.00    -0.008 A 
ATOM     25  S   UNL     1       0.575  -2.289  -0.383  0.00  0.00    -0.073 S 
ATOM     26  C   UNL     1       0.330  -2.063   1.360  0.00  0.00    +0.116 A 
ATOM     27  C   UNL     1       0.219  -0.667   1.496  0.00  0.00    +0.075 A 
ATOM     28  C   UNL     1       0.015  -0.190   2.832  0.00  0.00    +0.260 A 
ATOM     29  O   UNL     1      -0.097   1.003   3.053  0.00  0.00    -0.267 OA
ATOM     30  N   UNL     1      -0.051  -1.081   3.839  0.00  0.00    -0.310 N 
ATOM     31  H   UNL     1      -0.189  -0.764   4.745  0.00  0.00    +0.170 HD
ATOM     32  C   UNL     1       0.072  -2.414   3.612  0.00  0.00    +0.121 A 
ATOM     33  N   UNL     1       0.249  -2.881   2.405  0.00  0.00    -0.226 NA
ATOM     34  C   UNL     1       0.666  -0.017  -2.283  0.00  0.00    +0.052 C 
ENDBRANCH  21  32
ENDBRANCH  20  21
ENDBRANCH   1  20
TORSDOF 8
