REMARK  Name = ZINC05282627
REMARK  4 active torsions:
REMARK  status: ('A' for Active; 'I' for Inactive)
REMARK    1  A    between atoms: C_1  and  C_2
REMARK    2  A    between atoms: C_2  and  C_19
REMARK    3  A    between atoms: N_3  and  N_4
REMARK    4  A    between atoms: C_19  and  C_20
REMARK                            x       y       z     vdW  Elec       q    Type
REMARK                         _______ _______ _______ _____ _____    ______ ____
ROOT
ATOM      1  N   UNL     1       5.588  -0.606  -3.246  0.00  0.00    -0.204 N 
ATOM      2  C   UNL     1       6.732  -0.001  -3.738  0.00  0.00    +0.256 A 
ATOM      3  N   UNL     1       7.097  -0.223  -4.994  0.00  0.00    -0.192 NA
ATOM      4  C   UNL     1       8.192   0.363  -5.466  0.00  0.00    +0.163 A 
ATOM      5  C   UNL     1       8.933   1.195  -4.601  0.00  0.00    +0.137 A 
ATOM      6  C   UNL     1      10.077   1.692  -5.384  0.00  0.00    +0.029 A 
ATOM      7  C   UNL     1      11.147   2.536  -5.092  0.00  0.00    +0.012 A 
ATOM      8  C   UNL     1      12.082   2.818  -6.065  0.00  0.00    +0.001 A 
ATOM      9  C   UNL     1      11.961   2.265  -7.330  0.00  0.00    +0.002 A 
ATOM     10  C   UNL     1      10.908   1.429  -7.632  0.00  0.00    +0.026 A 
ATOM     11  C   UNL     1       9.954   1.132  -6.664  0.00  0.00    +0.050 A 
ATOM     12  N   UNL     1       8.818   0.340  -6.688  0.00  0.00    -0.338 N 
ATOM     13  H   UNL     1       8.508  -0.160  -7.459  0.00  0.00    +0.167 HD
ATOM     14  N   UNL     1       8.518   1.372  -3.355  0.00  0.00    -0.142 NA
ATOM     15  N   UNL     1       7.446   0.787  -2.942  0.00  0.00    -0.111 NA
ATOM     16  H   UNL     1       5.059  -1.183  -3.820  0.00  0.00    +0.177 HD
ENDROOT
BRANCH   1  19
ATOM     17  C   UNL     1       3.314  -1.841  -2.356  0.00  0.00    +0.063 C 
ATOM     18  C   UNL     1       4.135  -0.945  -1.465  0.00  0.00    +0.038 C 
ATOM     19  N   UNL     1       5.193  -0.385  -1.920  0.00  0.00    -0.189 NA
BRANCH  18  20
ATOM     20  C   UNL     1       3.711  -0.707  -0.039  0.00  0.00    +0.087 C 
BRANCH  20  21
ATOM     21  C   UNL     1       2.396   0.029  -0.022  0.00  0.00    -0.042 A 
ATOM     22  C   UNL     1       1.208  -0.679  -0.014  0.00  0.00    +0.004 A 
ATOM     23  C   UNL     1       0.002  -0.004   0.002  0.00  0.00    +0.000 A 
ATOM     24  C   UNL     1      -0.017   1.378   0.010  0.00  0.00    +0.000 A 
ATOM     25  C   UNL     1       1.171   2.086   0.002  0.00  0.00    +0.000 A 
ATOM     26  C   UNL     1       2.377   1.411  -0.014  0.00  0.00    +0.004 A 
ENDBRANCH  20  21
ENDBRANCH  18  20
ENDBRANCH   1  19
TORSDOF 3
