REMARK  Name = ZINC23057645
REMARK  8 active torsions:
REMARK  status: ('A' for Active; 'I' for Inactive)
REMARK    1  A    between atoms: C_1  and  C_2
REMARK    2  A    between atoms: C_9  and  C_11
REMARK    3  A    between atoms: C_11  and  N_12
REMARK    4  A    between atoms: N_15  and  C_18
REMARK    5  A    between atoms: C_18  and  C_19
REMARK    6  A    between atoms: N_21  and  C_22
REMARK    7  A    between atoms: C_22  and  C_24
REMARK    8  A    between atoms: C_22  and  C_25
REMARK                            x       y       z     vdW  Elec       q    Type
REMARK                         _______ _______ _______ _____ _____    ______ ____
ROOT
ATOM      1  N   UNL     1      -1.589  -6.062   3.928  0.00  0.00    -0.298 NA
ATOM      2  C   UNL     1      -1.436  -5.206   5.112  0.00  0.00    +0.066 C 
ATOM      3  C   UNL     1      -1.802  -3.765   4.747  0.00  0.00    -0.063 C 
ATOM      4  N   UNL     1      -0.936  -3.304   3.653  0.00  0.00    +0.387 N 
ATOM      5  C   UNL     1      -1.089  -4.161   2.468  0.00  0.00    -0.063 C 
ATOM      6  C   UNL     1      -0.723  -5.602   2.833  0.00  0.00    +0.066 C 
ATOM      7  H   UNL     1       0.107  -3.377   3.992  0.00  0.00    -0.081 HD
ENDROOT
BRANCH   1   8
ATOM      8  C   UNL     1      -1.319  -7.468   4.256  0.00  0.00    +0.180 C 
BRANCH   8  16
ATOM      9  C   UNL     1      -4.399  -8.675   6.829  0.00  0.00    +0.028 C 
ATOM     10  C   UNL     1      -3.347  -9.756   6.574  0.00  0.00    +0.073 C 
ATOM     11  C   UNL     1      -2.743 -10.209   7.907  0.00  0.00    +0.022 C 
ATOM     12  C   UNL     1      -1.596 -11.186   7.636  0.00  0.00    +0.003 C 
ATOM     13  C   UNL     1      -0.505 -10.483   6.826  0.00  0.00    +0.019 C 
ATOM     14  C   UNL     1      -1.086 -10.035   5.476  0.00  0.00    +0.108 C 
ATOM     15  N   UNL     1      -2.275  -9.210   5.730  0.00  0.00    -0.298 N 
ATOM     16  C   UNL     1      -2.382  -7.977   5.195  0.00  0.00    +0.230 C 
ATOM     17  O   UNL     1      -3.335  -7.278   5.469  0.00  0.00    -0.274 OA
ENDBRANCH   8  16
ENDBRANCH   1   8
BRANCH   4  18
ATOM     18  C   UNL     1      -1.206  -1.899   3.324  0.00  0.00    +0.019 C 
BRANCH  18  19
ATOM     19  C   UNL     1      -0.147  -1.391   2.380  0.00  0.00    +0.197 C 
ATOM     20  O   UNL     1       0.745  -2.128   2.017  0.00  0.00    -0.278 OA
ATOM     21  N   UNL     1      -0.190  -0.118   1.939  0.00  0.00    -0.310 N 
ATOM     22  H   UNL     1      -0.999   0.550   2.268  0.00  0.00    +0.149 HD
BRANCH  21  23
ATOM     23  C   UNL     1       0.840   0.375   1.021  0.00  0.00    +0.100 C 
ATOM     24  C   UNL     1       0.455   0.019  -0.416  0.00  0.00    +0.033 C 
BRANCH  23  25
ATOM     25  C   UNL     1       0.956   1.871   1.154  0.00  0.00    -0.027 A 
ATOM     26  C   UNL     1      -0.182   2.643   1.298  0.00  0.00    +0.006 A 
ATOM     27  C   UNL     1      -0.076   4.015   1.425  0.00  0.00    +0.015 A 
ATOM     28  C   UNL     1       1.169   4.618   1.396  0.00  0.00    +0.018 A 
ATOM     29  C   UNL     1       2.307   3.846   1.247  0.00  0.00    +0.015 A 
ATOM     30  C   UNL     1       2.200   2.473   1.125  0.00  0.00    +0.006 A 
ATOM     31 BR   UNL     1       1.314   6.496   1.562  0.00  0.00    -0.050 Br
ENDBRANCH  23  25
ENDBRANCH  21  23
ENDBRANCH  18  19
ENDBRANCH   4  18
TORSDOF 6
