REMARK  Name = ZINC59391805
REMARK  3 active torsions:
REMARK  status: ('A' for Active; 'I' for Inactive)
REMARK    1  A    between atoms: C_6  and  N_7
REMARK    2  A    between atoms: N_7  and  C_8
REMARK    3  A    between atoms: C_8  and  N_9
REMARK                            x       y       z     vdW  Elec       q    Type
REMARK                         _______ _______ _______ _____ _____    ______ ____
ROOT
ATOM      1  N   UNL     1      -1.357  -2.575   1.513  0.00  0.00    -0.258 N 
ATOM      2  C   UNL     1      -0.343  -2.682   2.465  0.00  0.00    +0.093 A 
ATOM      3  C   UNL     1       1.027  -2.478   2.422  0.00  0.00    +0.049 A 
ATOM      4  C   UNL     1       1.786  -2.672   3.561  0.00  0.00    +0.043 A 
ATOM      5  C   UNL     1       1.181  -3.069   4.742  0.00  0.00    +0.024 A 
ATOM      6  C   UNL     1      -0.184  -3.275   4.790  0.00  0.00    +0.050 A 
ATOM      7  C   UNL     1      -0.954  -3.082   3.654  0.00  0.00    +0.157 A 
ATOM      8  O   UNL     1      -2.280  -3.204   3.404  0.00  0.00    -0.407 OA
ATOM      9  C   UNL     1      -2.518  -2.893   2.120  0.00  0.00    +0.423 A 
ATOM     10  O   UNL     1      -3.610  -2.899   1.586  0.00  0.00    -0.223 OA
ATOM     11 CL   UNL     1       3.502  -2.417   3.511  0.00  0.00    -0.083 Cl
ENDROOT
BRANCH   1  12
ATOM     12  C   UNL     1      -1.192  -2.182   0.112  0.00  0.00    +0.234 C 
BRANCH  12  13
ATOM     13  N   UNL     1      -1.064  -0.725   0.025  0.00  0.00    -0.326 N 
ATOM     14  H   UNL     1      -0.198  -0.306   0.143  0.00  0.00    +0.148 HD
BRANCH  13  20
ATOM     15  C   UNL     1      -2.100   1.446  -0.179  0.00  0.00    +0.024 A 
ATOM     16  C   UNL     1      -3.215   2.220  -0.430  0.00  0.00    +0.016 A 
ATOM     17  C   UNL     1      -4.424   1.617  -0.731  0.00  0.00    +0.013 A 
ATOM     18  C   UNL     1      -4.518   0.238  -0.781  0.00  0.00    +0.016 A 
ATOM     19  C   UNL     1      -3.406  -0.542  -0.530  0.00  0.00    +0.024 A 
ATOM     20  C   UNL     1      -2.191   0.061  -0.229  0.00  0.00    +0.028 A 
ATOM     21  I   UNL     1      -6.114   2.795  -1.110  0.00  0.00    -0.044 I 
ENDBRANCH  13  20
ENDBRANCH  12  13
ENDBRANCH   1  12
TORSDOF 3
