REMARK  Name = ZINC09334320
REMARK  6 active torsions:
REMARK  status: ('A' for Active; 'I' for Inactive)
REMARK    1  A    between atoms: C_1  and  O_2
REMARK    2  A    between atoms: O_2  and  C_3
REMARK    3  A    between atoms: C_3  and  C_5
REMARK    4  A    between atoms: C_5  and  N_49
REMARK    5  A    between atoms: C_6  and  C_25
REMARK    6  A    between atoms: C_15  and  C_17
REMARK                            x       y       z     vdW  Elec       q    Type
REMARK                         _______ _______ _______ _____ _____    ______ ____
ROOT
ATOM      1  C   UNL     1       0.157   4.290   0.935  0.00  0.00    -0.001 C 
ATOM      2  C   UNL     1      -1.261   3.784   0.921  0.00  0.00    -0.035 A 
ATOM      3  C   UNL     1      -2.293   4.636   1.274  0.00  0.00    +0.019 A 
ATOM      4  C   UNL     1      -3.600   4.185   1.263  0.00  0.00    +0.018 A 
ATOM      5  C   UNL     1      -3.884   2.881   0.899  0.00  0.00    +0.017 A 
ATOM      6  C   UNL     1      -2.859   2.025   0.546  0.00  0.00    +0.024 A 
ATOM      7  C   UNL     1      -1.547   2.477   0.552  0.00  0.00    +0.028 A 
ATOM      8  N   UNL     1      -0.506   1.608   0.202  0.00  0.00    -0.353 N 
ATOM      9  C   UNL     1       0.823   2.184  -0.052  0.00  0.00    +0.049 C 
ATOM     10 BR   UNL     1      -5.004   5.355   1.748  0.00  0.00    -0.050 Br
ATOM     11  H   UNL     1      -0.658   0.653   0.125  0.00  0.00    +0.145 HD
ATOM     12  N   UNL     1       1.096   3.156   1.031  0.00  0.00    +0.409 N 
ATOM     13  H   UNL     1       0.967   2.691   1.938  0.00  0.00    -0.076 HD
ENDROOT
BRANCH   9  14
ATOM     14  C   UNL     1       1.865   1.095  -0.023  0.00  0.00    -0.044 A 
ATOM     15  C   UNL     1       2.661   0.871  -1.130  0.00  0.00    +0.004 A 
ATOM     16  C   UNL     1       3.620  -0.124  -1.102  0.00  0.00    +0.015 A 
ATOM     17  C   UNL     1       3.775  -0.903   0.031  0.00  0.00    +0.018 A 
ATOM     18  C   UNL     1       2.974  -0.682   1.137  0.00  0.00    +0.015 A 
ATOM     19  C   UNL     1       2.019   0.317   1.109  0.00  0.00    +0.004 A 
ATOM     20 BR   UNL     1       5.081  -2.270   0.067  0.00  0.00    -0.050 Br
ENDBRANCH   9  14
BRANCH   1  21
ATOM     21  C   UNL     1       0.355   5.185   2.131  0.00  0.00    -0.057 A 
ATOM     22  C   UNL     1       0.588   4.633   3.377  0.00  0.00    +0.002 A 
ATOM     23  C   UNL     1       0.774   5.454   4.473  0.00  0.00    +0.000 A 
ATOM     24  C   UNL     1       0.717   6.828   4.326  0.00  0.00    +0.000 A 
ATOM     25  C   UNL     1       0.479   7.380   3.081  0.00  0.00    +0.000 A 
ATOM     26  C   UNL     1       0.298   6.559   1.984  0.00  0.00    +0.002 A 
ENDBRANCH   1  21
BRANCH  12  27
ATOM     27  C   UNL     1       2.489   3.642   0.935  0.00  0.00    +0.048 C 
BRANCH  27  28
ATOM     28  C   UNL     1       2.695   4.399  -0.352  0.00  0.00    +0.290 C 
ATOM     29  O   UNL     1       1.814   4.439  -1.177  0.00  0.00    -0.253 OA
BRANCH  28  31
ATOM     30  C   UNL     1       3.987   5.736  -1.842  0.00  0.00    +0.280 C 
ATOM     31  O   UNL     1       3.859   5.028  -0.581  0.00  0.00    -0.469 OA
ENDBRANCH  28  31
ENDBRANCH  27  28
ENDBRANCH  12  27
TORSDOF 5
