REMARK  Name = ZINC06330558
REMARK  5 active torsions:
REMARK  status: ('A' for Active; 'I' for Inactive)
REMARK    1  A    between atoms: C_3  and  C_8
REMARK    2  A    between atoms: N_9  and  N_10
REMARK    3  A    between atoms: C_11  and  C_13
REMARK    4  A    between atoms: C_13  and  S_14
REMARK    5  A    between atoms: S_14  and  C_15
REMARK                            x       y       z     vdW  Elec       q    Type
REMARK                         _______ _______ _______ _____ _____    ______ ____
ROOT
ATOM      1  N   UNL     1       3.597   5.955  -0.002  0.00  0.00    -0.206 N 
ATOM      2  C   UNL     1       3.573   7.302   0.005  0.00  0.00    +0.242 C 
ATOM      3  O   UNL     1       2.513   7.890   0.018  0.00  0.00    -0.273 OA
ATOM      4  H   UNL     1       4.445   5.484  -0.013  0.00  0.00    +0.177 HD
ENDROOT
BRANCH   1   6
ATOM      5  C   UNL     1       2.418   3.936  -0.001  0.00  0.00    +0.138 C 
ATOM      6  N   UNL     1       2.396   5.233   0.006  0.00  0.00    -0.188 NA
BRANCH   5   9
ATOM      7  C   UNL     1      -0.013   1.076   0.008  0.00  0.00    +0.002 A 
ATOM      8  C   UNL     1       1.174   1.780   0.000  0.00  0.00    +0.009 A 
ATOM      9  C   UNL     1       1.153   3.177   0.008  0.00  0.00    -0.004 A 
ATOM     10  C   UNL     1      -0.070   3.851   0.022  0.00  0.00    +0.024 A 
ATOM     11  C   UNL     1      -1.249   3.134   0.030  0.00  0.00    +0.018 A 
ATOM     12  C   UNL     1      -1.221   1.749   0.017  0.00  0.00    +0.015 A 
ATOM     13 BR   UNL     1      -2.907   4.044   0.050  0.00  0.00    -0.050 Br
ENDBRANCH   5   9
ENDBRANCH   1   6
BRANCH   2  14
ATOM     14  C   UNL     1       4.865   8.078  -0.004  0.00  0.00    +0.173 C 
BRANCH  14  15
ATOM     15  S   UNL     1       4.503   9.855   0.009  0.00  0.00    -0.088 S 
BRANCH  15  16
ATOM     16  C   UNL     1       6.093  10.614  -0.003  0.00  0.00    +0.160 A 
ATOM     17  N   UNL     1       7.287  10.053  -0.018  0.00  0.00    -0.133 NA
ATOM     18  N   UNL     1       8.414  10.843  -0.025  0.00  0.00    -0.125 NA
ATOM     19  C   UNL     1       8.296  12.156  -0.018  0.00  0.00    +0.180 A 
ATOM     20  S   UNL     1       6.520  12.349  -0.006  0.00  0.00    -0.025 S 
ATOM     21  N   UNL     1       9.287  13.130  -0.023  0.00  0.00    -0.336 N 
ATOM     22  H   UNL     1      10.222  12.870  -0.034  0.00  0.00    +0.144 HD
ATOM     23  H   UNL     1       9.045  14.069  -0.017  0.00  0.00    +0.144 HD
ENDBRANCH  15  16
ENDBRANCH  14  15
ENDBRANCH   2  14
TORSDOF 5
