REMARK  Name = ZINC42421170
REMARK  6 active torsions:
REMARK  status: ('A' for Active; 'I' for Inactive)
REMARK    1  A    between atoms: C_1  and  C_2
REMARK    2  A    between atoms: C_2  and  C_3
REMARK    3  A    between atoms: C_3  and  O_4
REMARK    4  A    between atoms: O_4  and  C_5
REMARK    5  A    between atoms: N_10  and  C_12
REMARK    6  A    between atoms: C_17  and  N_18
REMARK                            x       y       z     vdW  Elec       q    Type
REMARK                         _______ _______ _______ _____ _____    ______ ____
ROOT
ATOM      1  C   UNL     1       3.898  -4.892  -3.271  0.00  0.00    +0.053 A 
ATOM      2  C   UNL     1       4.884  -4.008  -3.699  0.00  0.00    +0.026 A 
ATOM      3  C   UNL     1       6.202  -4.424  -3.739  0.00  0.00    +0.019 A 
ATOM      4  C   UNL     1       6.523  -5.705  -3.357  0.00  0.00    +0.041 A 
ATOM      5  C   UNL     1       5.553  -6.631  -2.916  0.00  0.00    +0.101 A 
ATOM      6  C   UNL     1       4.212  -6.180  -2.879  0.00  0.00    +0.073 A 
ATOM      7  N   UNL     1       6.070  -7.833  -2.587  0.00  0.00    -0.246 NA
ATOM      8  C   UNL     1       7.342  -8.088  -2.675  0.00  0.00    +0.157 A 
ATOM      9  S   UNL     1       8.017  -6.655  -3.243  0.00  0.00    -0.075 S 
ENDROOT
BRANCH   1  14
ATOM     10  C   UNL     1       1.387  -2.493  -2.405  0.00  0.00    +0.135 C 
ATOM     11  C   UNL     1       0.363  -2.710  -3.521  0.00  0.00    +0.035 C 
ATOM     12  C   UNL     1       1.064  -3.285  -4.753  0.00  0.00    +0.021 C 
ATOM     13  C   UNL     1       1.685  -4.640  -4.397  0.00  0.00    +0.105 C 
ATOM     14  N   UNL     1       2.561  -4.466  -3.231  0.00  0.00    -0.326 N 
ATOM     15  C   UNL     1       2.013  -3.837  -2.021  0.00  0.00    +0.136 C 
BRANCH  10  16
ATOM     16  O   UNL     1       0.738  -1.926  -1.265  0.00  0.00    -0.375 OA
BRANCH  16  17
ATOM     17  C   UNL     1       0.718  -0.497  -1.257  0.00  0.00    +0.160 C 
BRANCH  17  19
ATOM     18  C   UNL     1      -0.019   1.526   0.010  0.00  0.00    +0.006 C 
ATOM     19  C   UNL     1       0.002  -0.004   0.002  0.00  0.00    +0.025 C 
ENDBRANCH  17  19
ENDBRANCH  16  17
ENDBRANCH  10  16
ENDBRANCH   1  14
BRANCH   6  20
ATOM     20  N   UNL     1       3.197  -7.045  -2.448  0.00  0.00    -0.355 N 
ATOM     21  H   UNL     1       2.277  -6.739  -2.425  0.00  0.00    +0.142 HD
ATOM     22  H   UNL     1       3.415  -7.949  -2.172  0.00  0.00    +0.142 HD
ENDBRANCH   6  20
TORSDOF 5
