REMARK  Name = ZINC22748719
REMARK  6 active torsions:
REMARK  status: ('A' for Active; 'I' for Inactive)
REMARK    1  A    between atoms: C_1  and  O_2
REMARK    2  A    between atoms: O_2  and  C_3
REMARK    3  A    between atoms: C_6  and  C_11
REMARK    4  A    between atoms: C_7  and  O_9
REMARK    5  A    between atoms: O_9  and  C_10
REMARK    6  A    between atoms: C_16  and  C_28
REMARK                            x       y       z     vdW  Elec       q    Type
REMARK                         _______ _______ _______ _____ _____    ______ ____
ROOT
ATOM      1  C   UNL     1       1.876  -5.146  -3.695  0.00  0.00    +0.035 C 
ATOM      2  C   UNL     1       1.745  -6.090  -2.499  0.00  0.00    +0.060 C 
ATOM      3  C   UNL     1       1.537  -5.287  -1.236  0.00  0.00    +0.020 C 
ATOM      4  C   UNL     1       0.896  -4.101  -1.267  0.00  0.00    +0.039 C 
ATOM      5  C   UNL     1       0.666  -3.275  -0.021  0.00  0.00    +0.158 C 
ATOM      6  N   UNL     1       0.912  -4.085   1.169  0.00  0.00    -0.301 N 
ATOM      7  C   UNL     1       0.579  -3.846   2.474  0.00  0.00    +0.069 A 
ATOM      8  C   UNL     1      -0.083  -2.800   3.106  0.00  0.00    +0.028 A 
ATOM      9  C   UNL     1      -0.245  -2.894   4.478  0.00  0.00    +0.002 A 
ATOM     10  C   UNL     1       0.227  -3.976   5.201  0.00  0.00    +0.002 A 
ATOM     11  C   UNL     1       0.889  -5.029   4.597  0.00  0.00    +0.028 A 
ATOM     12  C   UNL     1       1.065  -4.956   3.210  0.00  0.00    +0.066 A 
ATOM     13  N   UNL     1       1.652  -5.795   2.333  0.00  0.00    -0.327 N 
ATOM     14  C   UNL     1       1.563  -5.295   1.131  0.00  0.00    +0.179 A 
ATOM     15  N   UNL     1       2.020  -5.821  -0.065  0.00  0.00    -0.290 N 
ATOM     16  C   UNL     1       0.408  -3.575  -2.479  0.00  0.00    +0.164 C 
ATOM     17  O   UNL     1      -0.182  -2.513  -2.471  0.00  0.00    -0.292 OA
ATOM     18  C   UNL     1       0.602  -4.299  -3.782  0.00  0.00    +0.088 C 
ATOM     19  H   UNL     1       2.751  -6.643  -0.095  0.00  0.00    +0.155 HD
ATOM     20  H   UNL     1       2.106  -6.732   2.688  0.00  0.00    +0.169 HD
ENDROOT
BRANCH   5  21
ATOM     21  C   UNL     1       1.603  -2.095  -0.025  0.00  0.00    +0.005 A 
ATOM     22  C   UNL     1       2.945  -2.141  -0.037  0.00  0.00    +0.089 A 
ATOM     23  N   UNL     1       3.455  -0.871  -0.035  0.00  0.00    -0.360 N 
ATOM     24  H   UNL     1       4.544  -0.716  -0.045  0.00  0.00    +0.165 HD
ATOM     25  C   UNL     1       2.428   0.046  -0.021  0.00  0.00    +0.047 A 
ATOM     26  C   UNL     1       1.223  -0.680  -0.013  0.00  0.00    +0.005 A 
ATOM     27  C   UNL     1       0.002  -0.004   0.002  0.00  0.00    +0.010 A 
ATOM     28  C   UNL     1      -0.017   1.362   0.009  0.00  0.00    +0.001 A 
ATOM     29  C   UNL     1       1.169   2.084   0.002  0.00  0.00    +0.002 A 
ATOM     30  C   UNL     1       2.386   1.436  -0.013  0.00  0.00    +0.026 A 
ENDBRANCH   5  21
BRANCH   1  34
ATOM     31  C   UNL     1       2.342  -7.423  -7.285  0.00  0.00    +0.124 A 
ATOM     32  C   UNL     1       1.203  -7.573  -6.506  0.00  0.00    +0.046 A 
ATOM     33  C   UNL     1       1.055  -6.836  -5.347  0.00  0.00    +0.011 A 
ATOM     34  C   UNL     1       2.041  -5.948  -4.960  0.00  0.00    -0.002 A 
ATOM     35  C   UNL     1       3.178  -5.789  -5.739  0.00  0.00    +0.127 A 
ATOM     36  C   UNL     1       3.331  -6.532  -6.899  0.00  0.00    +0.091 A 
BRANCH  31  38
ATOM     37  C   UNL     1       1.427  -9.046  -8.762  0.00  0.00    +0.277 C 
ATOM     38  O   UNL     1       2.486  -8.148  -8.425  0.00  0.00    -0.495 OA
ENDBRANCH  31  38
BRANCH  35  39
ATOM     39  O   UNL     1       4.144  -4.911  -5.361  0.00  0.00    -0.495 OA
ATOM     40  C   UNL     1       5.288  -4.800  -6.210  0.00  0.00    +0.277 C 
ENDBRANCH  35  39
ENDBRANCH   1  34
TORSDOF 4
