REMARK  Name = ZINC15085116
REMARK  7 active torsions:
REMARK  status: ('A' for Active; 'I' for Inactive)
REMARK    1  A    between atoms: C_1  and  O_2
REMARK    2  A    between atoms: O_2  and  C_3
REMARK    3  A    between atoms: C_5  and  C_12
REMARK    4  A    between atoms: C_7  and  O_10
REMARK    5  A    between atoms: C_8  and  O_9
REMARK    6  A    between atoms: O_10  and  C_11
REMARK    7  A    between atoms: N_24  and  C_25
REMARK                            x       y       z     vdW  Elec       q    Type
REMARK                         _______ _______ _______ _____ _____    ______ ____
ROOT
ATOM      1  C   UNL     1       2.724   0.690   4.454  0.00  0.00    +0.065 C 
ATOM      2  C   UNL     1       4.232   0.561   4.690  0.00  0.00    +0.109 C 
ATOM      3  C   UNL     1       4.568  -0.744   5.355  0.00  0.00    +0.219 C 
ATOM      4  O   UNL     1       5.574  -1.333   5.019  0.00  0.00    -0.275 OA
ATOM      5  N   UNL     1       3.786  -1.282   6.315  0.00  0.00    -0.270 N 
ATOM      6  C   UNL     1       2.541  -0.699   6.550  0.00  0.00    +0.126 A 
ATOM      7  C   UNL     1       2.008   0.235   5.700  0.00  0.00    +0.042 A 
ATOM      8  C   UNL     1       0.772   0.624   6.209  0.00  0.00    +0.150 A 
ATOM      9  N   UNL     1       0.551  -0.058   7.313  0.00  0.00    -0.157 NA
ATOM     10  N   UNL     1       1.651  -0.906   7.539  0.00  0.00    -0.262 N 
ATOM     11  H   UNL     1       1.751  -1.528   8.277  0.00  0.00    +0.190 HD
ATOM     12  N   UNL     1      -0.086   1.575   5.644  0.00  0.00    -0.298 N 
ATOM     13  H   UNL     1       4.082  -2.051   6.827  0.00  0.00    +0.156 HD
ATOM     14  H   UNL     1       0.126   1.971   4.784  0.00  0.00    +0.154 HD
ENDROOT
BRANCH   1  17
ATOM     15  C   UNL     1       1.343  -0.393   1.107  0.00  0.00    +0.165 A 
ATOM     16  C   UNL     1       1.719   0.399   2.181  0.00  0.00    +0.054 A 
ATOM     17  C   UNL     1       2.316  -0.174   3.289  0.00  0.00    -0.032 A 
ATOM     18  C   UNL     1       2.539  -1.538   3.331  0.00  0.00    +0.054 A 
ATOM     19  C   UNL     1       2.165  -2.336   2.261  0.00  0.00    +0.165 A 
ATOM     20  C   UNL     1       1.560  -1.765   1.148  0.00  0.00    +0.201 A 
BRANCH  15  22
ATOM     21  C   UNL     1       0.564   1.587   0.045  0.00  0.00    +0.277 C 
ATOM     22  O   UNL     1       0.756   0.171   0.018  0.00  0.00    -0.491 OA
ENDBRANCH  15  22
BRANCH  20  23
ATOM     23  O   UNL     1       1.187  -2.546   0.098  0.00  0.00    -0.501 OA
ATOM     24  H   UNL     1       1.873  -2.657  -0.574  0.00  0.00    +0.292 HD
ENDBRANCH  20  23
BRANCH  19  25
ATOM     25  O   UNL     1       2.385  -3.678   2.303  0.00  0.00    -0.491 OA
ATOM     26  C   UNL     1       3.006  -4.197   3.481  0.00  0.00    +0.277 C 
ENDBRANCH  19  25
ENDBRANCH   1  17
BRANCH  12  27
ATOM     27  C   UNL     1      -1.248   1.955   6.320  0.00  0.00    +0.032 A 
ATOM     28  C   UNL     1      -2.364   2.373   5.605  0.00  0.00    +0.023 A 
ATOM     29  C   UNL     1      -3.511   2.748   6.276  0.00  0.00    +0.002 A 
ATOM     30  C   UNL     1      -3.551   2.708   7.658  0.00  0.00    +0.000 A 
ATOM     31  C   UNL     1      -2.442   2.292   8.373  0.00  0.00    +0.002 A 
ATOM     32  C   UNL     1      -1.293   1.910   7.708  0.00  0.00    +0.023 A 
ENDBRANCH  12  27
TORSDOF 5
