REMARK  Name = ZINC06552216
REMARK  11 active torsions:
REMARK  status: ('A' for Active; 'I' for Inactive)
REMARK    1  A    between atoms: C_1  and  C_2
REMARK    2  A    between atoms: C_7  and  N_52
REMARK    3  A    between atoms: C_9  and  C_11
REMARK    4  A    between atoms: C_12  and  C_13
REMARK    5  A    between atoms: C_12  and  N_52
REMARK    6  A    between atoms: C_13  and  C_15
REMARK    7  A    between atoms: C_13  and  O_27
REMARK    8  A    between atoms: C_15  and  O_16
REMARK    9  A    between atoms: O_16  and  C_17
REMARK   10  A    between atoms: C_17  and  C_19
REMARK   11  A    between atoms: C_17  and  C_20
REMARK                            x       y       z     vdW  Elec       q    Type
REMARK                         _______ _______ _______ _____ _____    ______ ____
ROOT
ATOM      1  C   UNL     1       6.593   0.098  -2.263  0.00  0.00    +0.123 C 
ENDROOT
BRANCH   1   2
ATOM      2  O   UNL     1       7.329   0.933  -1.367  0.00  0.00    -0.391 OA
ATOM      3  H   UNL     1       7.862   0.447  -0.724  0.00  0.00    +0.210 HD
ENDBRANCH   1   2
BRANCH   1   4
ATOM      4  C   UNL     1       7.563  -0.782  -3.054  0.00  0.00    -0.048 C 
BRANCH   4   5
ATOM      5  N   UNL     1       8.480   0.081  -3.822  0.00  0.00    +0.383 N 
ATOM      6  H   UNL     1       7.936   0.666  -4.466  0.00  0.00    -0.085 HD
ATOM      7  H   UNL     1       9.004   0.681  -3.174  0.00  0.00    -0.085 HD
BRANCH   5  13
ATOM      8  C   UNL     1      12.954   0.037  -5.936  0.00  0.00    +0.008 C 
ATOM      9  C   UNL     1      11.685  -0.775  -5.669  0.00  0.00    -0.013 C 
ATOM     10  C   UNL     1      11.046  -1.175  -7.000  0.00  0.00    +0.003 C 
ATOM     11  C   UNL     1       9.778  -1.988  -6.734  0.00  0.00    -0.001 C 
ATOM     12  C   UNL     1       8.790  -1.142  -5.928  0.00  0.00    -0.015 C 
ATOM     13  C   UNL     1       9.429  -0.742  -4.596  0.00  0.00    -0.069 C 
ATOM     14  C   UNL     1      10.698   0.070  -4.863  0.00  0.00    -0.025 C 
ATOM     15  C   UNL     1      10.339   1.329  -5.655  0.00  0.00    +0.006 C 
ENDBRANCH   5  13
ENDBRANCH   4   5
ENDBRANCH   1   4
BRANCH   1  16
ATOM     16  C   UNL     1       5.637  -0.789  -1.462  0.00  0.00    +0.190 C 
BRANCH  16  17
ATOM     17  O   UNL     1       4.658   0.027  -0.816  0.00  0.00    -0.370 OA
BRANCH  17  18
ATOM     18  C   UNL     1       3.711  -0.707  -0.038  0.00  0.00    +0.145 C 
ATOM     19  C   UNL     1       4.231  -0.854   1.394  0.00  0.00    +0.043 C 
BRANCH  18  20
ATOM     20  C   UNL     1       2.396   0.029  -0.021  0.00  0.00    -0.019 A 
ATOM     21  C   UNL     1       1.208  -0.678  -0.013  0.00  0.00    +0.007 A 
ATOM     22  C   UNL     1       0.002  -0.004   0.002  0.00  0.00    +0.020 A 
ATOM     23  C   UNL     1      -0.017   1.379   0.010  0.00  0.00    +0.041 A 
ATOM     24  C   UNL     1       1.172   2.087   0.002  0.00  0.00    +0.020 A 
ATOM     25  C   UNL     1       2.378   1.411  -0.013  0.00  0.00    +0.007 A 
ATOM     26 CL   UNL     1      -1.532   2.227   0.021  0.00  0.00    -0.084 Cl
ENDBRANCH  18  20
ENDBRANCH  17  18
ENDBRANCH  16  17
ENDBRANCH   1  16
TORSDOF 8
