REMARK  Name = ZINC12412985
REMARK  6 active torsions:
REMARK  status: ('A' for Active; 'I' for Inactive)
REMARK    1  A    between atoms: C_1  and  C_2
REMARK    2  A    between atoms: C_2  and  O_3
REMARK    3  A    between atoms: O_3  and  C_4
REMARK    4  A    between atoms: C_4  and  C_6
REMARK    5  A    between atoms: C_8  and  C_28
REMARK    6  A    between atoms: C_15  and  C_21
REMARK                            x       y       z     vdW  Elec       q    Type
REMARK                         _______ _______ _______ _____ _____    ______ ____
ROOT
ATOM      1  C   UNL     1      -0.764  -0.787  -0.439  0.00  0.00    +0.176 C 
ATOM      2  C   UNL     1      -1.000  -2.272  -0.144  0.00  0.00    +0.053 C 
ATOM      3  C   UNL     1      -0.714  -3.073  -1.416  0.00  0.00    +0.061 C 
ATOM      4  C   UNL     1      -1.602  -2.585  -2.535  0.00  0.00    +0.018 C 
ATOM      5  C   UNL     1      -2.024  -1.305  -2.575  0.00  0.00    +0.021 C 
ATOM      6  C   UNL     1      -1.640  -0.376  -1.592  0.00  0.00    +0.176 C 
ATOM      7  O   UNL     1      -2.021   0.775  -1.675  0.00  0.00    -0.291 OA
ATOM      8  C   UNL     1      -2.941  -0.843  -3.684  0.00  0.00    +0.063 C 
ATOM      9  C   UNL     1      -2.590  -1.581  -4.977  0.00  0.00    +0.109 C 
ATOM     10  C   UNL     1      -2.475  -3.055  -4.685  0.00  0.00    +0.218 C 
ATOM     11  O   UNL     1      -2.846  -3.866  -5.507  0.00  0.00    -0.275 OA
ATOM     12  N   UNL     1      -1.963  -3.472  -3.516  0.00  0.00    -0.289 N 
ATOM     13  H   UNL     1      -1.846  -4.423  -3.362  0.00  0.00    +0.155 HD
ENDROOT
BRANCH   8  14
ATOM     14  C   UNL     1      -4.370  -1.138  -3.309  0.00  0.00    -0.038 A 
ATOM     15  C   UNL     1      -5.285  -0.106  -3.207  0.00  0.00    +0.004 A 
ATOM     16  C   UNL     1      -6.596  -0.376  -2.863  0.00  0.00    +0.001 A 
ATOM     17  C   UNL     1      -6.994  -1.678  -2.623  0.00  0.00    +0.015 A 
ATOM     18  C   UNL     1      -6.080  -2.711  -2.725  0.00  0.00    +0.018 A 
ATOM     19  C   UNL     1      -4.768  -2.440  -3.074  0.00  0.00    +0.019 A 
ATOM     20 BR   UNL     1      -6.623  -4.492  -2.396  0.00  0.00    -0.050 Br
ENDBRANCH   8  14
BRANCH   2  21
ATOM     21  C   UNL     1      -0.075  -2.723   0.957  0.00  0.00    -0.006 A 
ATOM     22  C   UNL     1      -0.379  -3.287   2.151  0.00  0.00    +0.011 A 
ATOM     23  C   UNL     1       0.646  -3.624   3.014  0.00  0.00    +0.008 A 
ATOM     24  C   UNL     1       1.926  -3.381   2.641  0.00  0.00    +0.045 A 
ATOM     25  S   UNL     1       1.708  -2.659   1.023  0.00  0.00    -0.101 S 
ENDBRANCH   2  21
BRANCH   1  26
ATOM     26  C   UNL     1       0.683  -0.568  -0.801  0.00  0.00    +0.318 C 
ATOM     27  O   UNL     1       1.125  -1.029  -1.826  0.00  0.00    -0.250 OA
BRANCH  26  28
ATOM     28  O   UNL     1       1.479   0.140   0.015  0.00  0.00    -0.464 OA
BRANCH  28  30
ATOM     29  C   UNL     1       3.607   1.139   0.651  0.00  0.00    +0.048 C 
ATOM     30  C   UNL     1       2.861   0.311  -0.397  0.00  0.00    +0.229 C 
ENDBRANCH  28  30
ENDBRANCH  26  28
ENDBRANCH   1  26
TORSDOF 5
