REMARK  Name = ZINC39684439
REMARK  8 active torsions:
REMARK  status: ('A' for Active; 'I' for Inactive)
REMARK    1  A    between atoms: C_1  and  C_2
REMARK    2  A    between atoms: C_2  and  C_4
REMARK    3  A    between atoms: C_2  and  N_8
REMARK    4  A    between atoms: C_4  and  C_5
REMARK    5  A    between atoms: C_4  and  C_6
REMARK    6  A    between atoms: C_4  and  C_7
REMARK    7  A    between atoms: C_9  and  C_11
REMARK    8  A    between atoms: C_22  and  C_24
REMARK                            x       y       z     vdW  Elec       q    Type
REMARK                         _______ _______ _______ _____ _____    ______ ____
ROOT
ATOM      1  C   UNL     1      -3.465  -1.164  -1.134  0.00  0.00    +0.100 C 
ATOM      2  C   UNL     1      -3.486  -2.652  -0.717  0.00  0.00    +0.121 C 
ATOM      3  N   UNL     1      -4.545  -3.261  -1.556  0.00  0.00    -0.300 N 
ATOM      4  C   UNL     1      -4.383  -2.614  -2.881  0.00  0.00    +0.115 C 
ATOM      5  C   UNL     1      -4.054  -1.143  -2.554  0.00  0.00    -0.004 C 
ATOM      6  C   UNL     1      -5.324  -0.298  -2.587  0.00  0.00    -0.010 C 
ATOM      7  C   UNL     1      -5.859  -0.246  -4.021  0.00  0.00    -0.082 C 
ATOM      8  N   UNL     1      -4.840   0.331  -4.905  0.00  0.00    +0.379 N 
ATOM      9  C   UNL     1      -3.656  -0.537  -4.939  0.00  0.00    -0.082 C 
ATOM     10  C   UNL     1      -3.028  -0.601  -3.545  0.00  0.00    -0.010 C 
ATOM     11  C   UNL     1      -5.450  -4.192  -1.197  0.00  0.00    +0.219 C 
ATOM     12  O   UNL     1      -6.260  -4.595  -2.006  0.00  0.00    -0.275 OA
ATOM     13  H   UNL     1      -5.216   0.421  -5.837  0.00  0.00    -0.086 HD
ATOM     14  H   UNL     1      -4.576   1.243  -4.563  0.00  0.00    -0.086 HD
ENDROOT
BRANCH   1  16
ATOM     15  N   UNL     1      -1.812   0.661  -0.903  0.00  0.00    -0.312 N 
ATOM     16  C   UNL     1      -2.051  -0.643  -1.145  0.00  0.00    +0.218 C 
ATOM     17  O   UNL     1      -1.128  -1.397  -1.371  0.00  0.00    -0.275 OA
ATOM     18  H   UNL     1      -2.550   1.264  -0.722  0.00  0.00    +0.149 HD
BRANCH  15  20
ATOM     19  C   UNL     1      -0.031   1.511  -2.348  0.00  0.00    +0.028 C 
ATOM     20  C   UNL     1      -0.438   1.169  -0.913  0.00  0.00    +0.075 C 
BRANCH  20  21
ATOM     21  C   UNL     1      -0.351   2.425  -0.045  0.00  0.00    -0.020 C 
ATOM     22  C   UNL     1      -1.293   3.495  -0.600  0.00  0.00    +0.012 C 
ATOM     23  C   UNL     1      -0.757   2.083   1.390  0.00  0.00    +0.012 C 
ATOM     24  C   UNL     1       1.084   2.955  -0.056  0.00  0.00    +0.012 C 
ENDBRANCH  20  21
ENDBRANCH  15  20
ENDBRANCH   1  16
BRANCH  11  25
ATOM     25  C   UNL     1      -5.457  -4.734   0.209  0.00  0.00    +0.075 C 
ATOM     26  C   UNL     1      -4.431  -5.856   0.442  0.00  0.00    +0.013 C 
ATOM     27  C   UNL     1      -5.507  -6.556   1.288  0.00  0.00    +0.001 C 
ATOM     28  C   UNL     1      -6.549  -5.787   0.459  0.00  0.00    +0.013 C 
ENDBRANCH  11  25
TORSDOF 4
