REMARK  Name = ZINC15959172
REMARK  8 active torsions:
REMARK  status: ('A' for Active; 'I' for Inactive)
REMARK    1  A    between atoms: C_1  and  C_2
REMARK    2  A    between atoms: C_2  and  C_3
REMARK    3  A    between atoms: C_14  and  C_17
REMARK    4  A    between atoms: C_17  and  C_19
REMARK    5  A    between atoms: C_17  and  O_20
REMARK    6  A    between atoms: N_23  and  C_26
REMARK    7  A    between atoms: C_26  and  C_27
REMARK    8  A    between atoms: C_27  and  C_28
REMARK                            x       y       z     vdW  Elec       q    Type
REMARK                         _______ _______ _______ _____ _____    ______ ____
ROOT
ATOM      1  C   UNL     1      -1.304  -0.321  -0.105  0.00  0.00    -0.047 A 
ATOM      2  C   UNL     1      -1.844  -0.602   1.136  0.00  0.00    +0.005 A 
ATOM      3  C   UNL     1      -3.083  -1.199   1.238  0.00  0.00    +0.024 A 
ATOM      4  C   UNL     1      -3.801  -1.524   0.089  0.00  0.00    +0.039 A 
ATOM      5  C   UNL     1      -3.247  -1.236  -1.155  0.00  0.00    +0.004 A 
ATOM      6  C   UNL     1      -2.012  -0.635  -1.252  0.00  0.00    +0.011 A 
ATOM      7  C   UNL     1      -4.253  -1.701  -2.170  0.00  0.00    +0.136 C 
ATOM      8  C   UNL     1      -4.714  -0.550  -3.072  0.00  0.00    +0.122 C 
ATOM      9  C   UNL     1      -3.864  -0.702  -4.364  0.00  0.00    +0.109 C 
ATOM     10  C   UNL     1      -2.951  -1.917  -4.098  0.00  0.00    +0.096 C 
ATOM     11  N   UNL     1      -3.682  -2.719  -3.071  0.00  0.00    -0.293 NA
ATOM     12  C   UNL     1      -4.890  -1.050  -5.418  0.00  0.00    +0.227 C 
ATOM     13  O   UNL     1      -4.649  -1.268  -6.586  0.00  0.00    -0.275 OA
ATOM     14  N   UNL     1      -6.106  -1.082  -4.862  0.00  0.00    -0.241 N 
ATOM     15  C   UNL     1      -6.131  -0.806  -3.538  0.00  0.00    +0.228 C 
ATOM     16  O   UNL     1      -7.117  -0.769  -2.833  0.00  0.00    -0.275 OA
ATOM     17  C   UNL     1      -5.393  -2.260  -1.363  0.00  0.00    +0.243 C 
ATOM     18  O   UNL     1      -6.418  -2.741  -1.796  0.00  0.00    -0.273 OA
ATOM     19  N   UNL     1      -5.053  -2.122  -0.067  0.00  0.00    -0.283 N 
ATOM     20  H   UNL     1      -3.048  -3.326  -2.575  0.00  0.00    +0.124 HD
ATOM     21  H   UNL     1      -5.613  -2.405   0.673  0.00  0.00    +0.155 HD
ENDROOT
BRANCH   1  23
ATOM     22  C   UNL     1      -0.117   1.854  -0.215  0.00  0.00    +0.009 C 
ATOM     23  C   UNL     1       0.050   0.333  -0.209  0.00  0.00    +0.032 C 
ENDBRANCH   1  23
BRANCH  10  24
ATOM     24  C   UNL     1      -2.779  -2.743  -5.375  0.00  0.00    +0.129 C 
ATOM     25  C   UNL     1      -2.000  -1.927  -6.409  0.00  0.00    +0.039 C 
BRANCH  24  26
ATOM     26  O   UNL     1      -2.060  -3.941  -5.074  0.00  0.00    -0.390 OA
ATOM     27  H   UNL     1      -1.913  -4.514  -5.839  0.00  0.00    +0.210 HD
ENDBRANCH  24  26
ENDBRANCH  10  24
BRANCH  14  28
ATOM     28  C   UNL     1      -7.319  -1.386  -5.625  0.00  0.00    +0.121 C 
BRANCH  28  29
ATOM     29  C   UNL     1      -7.573  -2.895  -5.601  0.00  0.00    +0.054 C 
BRANCH  29  30
ATOM     30  C   UNL     1      -8.821  -3.207  -6.386  0.00  0.00    -0.046 A 
ATOM     31  C   UNL     1     -10.050  -3.219  -5.754  0.00  0.00    +0.004 A 
ATOM     32  C   UNL     1     -11.195  -3.505  -6.474  0.00  0.00    +0.000 A 
ATOM     33  C   UNL     1     -11.110  -3.780  -7.826  0.00  0.00    +0.000 A 
ATOM     34  C   UNL     1      -9.880  -3.767  -8.458  0.00  0.00    +0.000 A 
ATOM     35  C   UNL     1      -8.736  -3.476  -7.739  0.00  0.00    +0.004 A 
ENDBRANCH  29  30
ENDBRANCH  28  29
ENDBRANCH  14  28
TORSDOF 6
