REMARK  Name = ZINC01089454
REMARK  9 active torsions:
REMARK  status: ('A' for Active; 'I' for Inactive)
REMARK    1  A    between atoms: C_1  and  O_2
REMARK    2  A    between atoms: O_2  and  C_3
REMARK    3  A    between atoms: C_6  and  C_17
REMARK    4  A    between atoms: C_7  and  C_9
REMARK    5  A    between atoms: C_9  and  S_10
REMARK    6  A    between atoms: S_10  and  C_11
REMARK    7  A    between atoms: C_20  and  C_31
REMARK    8  A    between atoms: C_26  and  N_30
REMARK    9  A    between atoms: C_27  and  C_28
REMARK                            x       y       z     vdW  Elec       q    Type
REMARK                         _______ _______ _______ _____ _____    ______ ____
ROOT
ATOM      1  C   UNL     1      -4.660  -1.657   0.036  0.00  0.00    +0.102 C 
ATOM      2  C   UNL     1      -4.942  -2.347   1.345  0.00  0.00    +0.054 A 
ATOM      3  C   UNL     1      -4.960  -1.818   2.639  0.00  0.00    +0.100 A 
ATOM      4  N   UNL     1      -5.255  -2.796   3.474  0.00  0.00    -0.171 NA
ATOM      5  N   UNL     1      -5.431  -3.974   2.730  0.00  0.00    -0.246 N 
ATOM      6  H   UNL     1      -5.654  -4.847   3.089  0.00  0.00    +0.192 HD
ATOM      7  C   UNL     1      -5.236  -3.678   1.428  0.00  0.00    +0.223 A 
ATOM      8  O   UNL     1      -5.301  -4.483   0.339  0.00  0.00    -0.423 OA
ATOM      9  C   UNL     1      -5.337  -3.893  -0.873  0.00  0.00    +0.200 C 
ATOM     10  C   UNL     1      -5.055  -2.587  -1.084  0.00  0.00    +0.098 C 
ENDROOT
BRANCH   1  14
ATOM     11  C   UNL     1      -0.494  -0.747  -0.246  0.00  0.00    +0.120 A 
ATOM     12  C   UNL     1      -1.421   0.277  -0.112  0.00  0.00    +0.046 A 
ATOM     13  C   UNL     1      -2.767  -0.020  -0.021  0.00  0.00    +0.008 A 
ATOM     14  C   UNL     1      -3.191  -1.336  -0.064  0.00  0.00    -0.030 A 
ATOM     15  C   UNL     1      -2.269  -2.357  -0.197  0.00  0.00    -0.030 A 
ATOM     16  C   UNL     1      -0.922  -2.066  -0.294  0.00  0.00    +0.050 A 
BRANCH  11  18
ATOM     17  C   UNL     1       1.199   0.922  -0.280  0.00  0.00    +0.277 C 
ATOM     18  O   UNL     1       0.831  -0.458  -0.337  0.00  0.00    -0.495 OA
ENDBRANCH  11  18
BRANCH  15  19
ATOM     19  C   UNL     1      -2.734  -3.790  -0.242  0.00  0.00    +0.111 C 
BRANCH  19  20
ATOM     20  S   UNL     1      -2.908  -4.315  -1.970  0.00  0.00    -0.101 S 
BRANCH  20  21
ATOM     21  C   UNL     1      -3.262  -6.037  -1.858  0.00  0.00    +0.097 A 
ATOM     22  C   UNL     1      -3.558  -6.757  -3.013  0.00  0.00    +0.035 A 
ATOM     23  C   UNL     1      -3.834  -8.108  -2.910  0.00  0.00    +0.004 A 
ATOM     24  C   UNL     1      -3.804  -8.698  -1.653  0.00  0.00    +0.020 A 
ATOM     25  C   UNL     1      -3.503  -7.924  -0.550  0.00  0.00    +0.112 A 
ATOM     26  N   UNL     1      -3.239  -6.638  -0.678  0.00  0.00    -0.249 NA
ENDBRANCH  20  21
ENDBRANCH  19  20
ENDBRANCH  15  19
ENDBRANCH   1  14
BRANCH   3  27
ATOM     27  C   UNL     1      -4.695  -0.405   3.008  0.00  0.00    +0.003 A 
ATOM     28  C   UNL     1      -5.221   0.630   2.237  0.00  0.00    +0.010 A 
ATOM     29  C   UNL     1      -4.971   1.942   2.584  0.00  0.00    +0.001 A 
ATOM     30  C   UNL     1      -4.200   2.230   3.696  0.00  0.00    +0.000 A 
ATOM     31  C   UNL     1      -3.675   1.207   4.465  0.00  0.00    +0.001 A 
ATOM     32  C   UNL     1      -3.924  -0.109   4.130  0.00  0.00    +0.010 A 
ENDBRANCH   3  27
BRANCH   9  33
ATOM     33  N   UNL     1      -5.681  -4.662  -1.956  0.00  0.00    -0.328 N 
ATOM     34  H   UNL     1      -5.890  -5.602  -1.837  0.00  0.00    +0.145 HD
ATOM     35  H   UNL     1      -5.716  -4.266  -2.841  0.00  0.00    +0.145 HD
ENDBRANCH   9  33
BRANCH  10  36
ATOM     36  C   UNL     1      -5.132  -2.070  -2.417  0.00  0.00    +0.101 C 
ATOM     37  N   UNL     1      -5.193  -1.659  -3.474  0.00  0.00    -0.191 NA
ENDBRANCH  10  36
TORSDOF 8
