REMARK  Name = ZINC15826314
REMARK  5 active torsions:
REMARK  status: ('A' for Active; 'I' for Inactive)
REMARK    1  A    between atoms: C_1  and  C_2
REMARK    2  A    between atoms: C_2  and  C_32
REMARK    3  A    between atoms: C_6  and  C_24
REMARK    4  A    between atoms: N_8  and  C_16
REMARK    5  A    between atoms: C_16  and  C_17
REMARK                            x       y       z     vdW  Elec       q    Type
REMARK                         _______ _______ _______ _____ _____    ______ ____
ROOT
ATOM      1  C   UNL     1      -2.828  -0.530  -5.373  0.00  0.00    +0.011 C 
ATOM      2  C   UNL     1      -3.811   0.633  -5.227  0.00  0.00    -0.023 C 
ATOM      3  C   UNL     1      -3.045   1.929  -4.962  0.00  0.00    +0.058 C 
ATOM      4  C   UNL     1      -2.259   1.810  -3.678  0.00  0.00    +0.017 C 
ATOM      5  C   UNL     1      -2.691   1.044  -2.644  0.00  0.00    +0.040 C 
ATOM      6  C   UNL     1      -2.011   0.810  -1.298  0.00  0.00    +0.175 C 
ATOM      7  N   UNL     1      -0.742   1.498  -1.199  0.00  0.00    -0.310 N 
ATOM      8  C   UNL     1      -0.793   2.885  -1.301  0.00  0.00    +0.052 A 
ATOM      9  C   UNL     1      -0.722   3.701  -0.177  0.00  0.00    +0.025 A 
ATOM     10  C   UNL     1      -0.733   5.075  -0.361  0.00  0.00    +0.002 A 
ATOM     11  C   UNL     1      -0.809   5.614  -1.633  0.00  0.00    +0.002 A 
ATOM     12  C   UNL     1      -0.895   4.787  -2.742  0.00  0.00    +0.025 A 
ATOM     13  C   UNL     1      -0.903   3.413  -2.537  0.00  0.00    +0.052 A 
ATOM     14  N   UNL     1      -1.096   2.515  -3.594  0.00  0.00    -0.316 N 
ATOM     15  C   UNL     1      -3.909   0.338  -2.779  0.00  0.00    +0.163 C 
ATOM     16  O   UNL     1      -4.302  -0.332  -1.845  0.00  0.00    -0.292 OA
ATOM     17  C   UNL     1      -4.735   0.385  -4.029  0.00  0.00    +0.086 C 
ATOM     18  C   UNL     1      -4.643   0.772  -6.503  0.00  0.00    +0.011 C 
ATOM     19  H   UNL     1      -0.404   2.395  -4.263  0.00  0.00    +0.152 HD
ENDROOT
BRANCH   6  20
ATOM     20  C   UNL     1      -1.780  -0.669  -1.118  0.00  0.00    +0.130 A 
ATOM     21  C   UNL     1      -2.568  -1.509  -0.423  0.00  0.00    +0.047 A 
ATOM     22  C   UNL     1      -1.983  -2.792  -0.518  0.00  0.00    +0.041 A 
ATOM     23  C   UNL     1      -0.868  -2.658  -1.258  0.00  0.00    +0.195 A 
ATOM     24  O   UNL     1      -0.750  -1.370  -1.619  0.00  0.00    -0.466 OA
ENDBRANCH   6  20
BRANCH   7  25
ATOM     25  C   UNL     1      -0.013   1.086   0.008  0.00  0.00    +0.141 C 
BRANCH  25  26
ATOM     26  C   UNL     1       1.437   1.476  -0.123  0.00  0.00    -0.030 A 
ATOM     27  C   UNL     1       2.314   0.654  -0.806  0.00  0.00    +0.008 A 
ATOM     28  C   UNL     1       3.643   1.013  -0.931  0.00  0.00    +0.038 A 
ATOM     29  C   UNL     1       4.098   2.191  -0.364  0.00  0.00    +0.123 A 
ATOM     30  C   UNL     1       3.219   3.011   0.324  0.00  0.00    +0.038 A 
ATOM     31  C   UNL     1       1.890   2.653   0.444  0.00  0.00    +0.008 A 
ATOM     32  F   UNL     1       5.397   2.541  -0.481  0.00  0.00    -0.205 F 
ENDBRANCH  25  26
ENDBRANCH   7  25
TORSDOF 3
