REMARK  Name = ZINC09125884
REMARK  10 active torsions:
REMARK  status: ('A' for Active; 'I' for Inactive)
REMARK    1  A    between atoms: C_1  and  N_70
REMARK    2  A    between atoms: C_2  and  C_3
REMARK    3  A    between atoms: C_2  and  N_70
REMARK    4  A    between atoms: C_8  and  N_9
REMARK    5  A    between atoms: N_9  and  C_10
REMARK    6  A    between atoms: C_10  and  C_11
REMARK    7  A    between atoms: N_13  and  C_14
REMARK    8  A    between atoms: C_17  and  S_20
REMARK    9  A    between atoms: S_20  and  N_23
REMARK   10  A    between atoms: C_28  and  N_70
REMARK                            x       y       z     vdW  Elec       q    Type
REMARK                         _______ _______ _______ _____ _____    ______ ____
ROOT
ATOM      1  C   UNL     1       1.280   1.980   0.007  0.00  0.00    +0.198 C 
ENDROOT
BRANCH   1   2
ATOM      2  C   UNL     1      -0.014   1.209   0.007  0.00  0.00    +0.234 C 
ATOM      3  O   UNL     1       0.002  -0.004  -0.008  0.00  0.00    -0.274 OA
ATOM      4  N   UNL     1      -1.191   1.867   0.018  0.00  0.00    -0.284 N 
ATOM      5  H   UNL     1      -1.205   2.833   0.098  0.00  0.00    +0.155 HD
BRANCH   4   6
ATOM      6  C   UNL     1      -2.391   1.155  -0.086  0.00  0.00    +0.034 A 
ATOM      7  C   UNL     1      -3.468   1.704  -0.769  0.00  0.00    +0.025 A 
ATOM      8  C   UNL     1      -4.650   0.997  -0.875  0.00  0.00    +0.030 A 
ATOM      9  C   UNL     1      -4.764  -0.252  -0.292  0.00  0.00    +0.106 A 
ATOM     10  C   UNL     1      -3.696  -0.798   0.395  0.00  0.00    +0.030 A 
ATOM     11  C   UNL     1      -2.510  -0.099   0.499  0.00  0.00    +0.025 A 
BRANCH   9  12
ATOM     12  S   UNL     1      -6.276  -1.148  -0.422  0.00  0.00    +0.061 S 
ATOM     13  O   UNL     1      -6.941  -0.656  -1.578  0.00  0.00    -0.153 OA
ATOM     14  O   UNL     1      -5.950  -2.521  -0.258  0.00  0.00    -0.153 OA
BRANCH  12  15
ATOM     15  N   UNL     1      -7.210  -0.724   0.877  0.00  0.00    -0.177 NA
ATOM     16  C   UNL     1      -7.223  -1.403   2.181  0.00  0.00    +0.109 C 
ATOM     17  C   UNL     1      -8.259  -0.678   3.066  0.00  0.00    +0.018 C 
ATOM     18  C   UNL     1      -9.184   0.006   2.025  0.00  0.00    +0.018 C 
ATOM     19  C   UNL     1      -8.172   0.393   0.917  0.00  0.00    +0.109 C 
ENDBRANCH  12  15
ENDBRANCH   9  12
ENDBRANCH   4   6
ENDBRANCH   1   2
BRANCH   1  20
ATOM     20  N   UNL     1       2.407   1.044  -0.012  0.00  0.00    -0.335 N 
ATOM     21  H   UNL     1       2.243   0.088  -0.023  0.00  0.00    +0.147 HD
BRANCH  20  27
ATOM     22  C   UNL     1       4.786   0.641  -0.034  0.00  0.00    -0.043 A 
ATOM     23  C   UNL     1       6.081   1.122  -0.038  0.00  0.00    +0.003 A 
ATOM     24  C   UNL     1       6.313   2.485  -0.023  0.00  0.00    +0.000 A 
ATOM     25  C   UNL     1       5.251   3.371  -0.004  0.00  0.00    +0.002 A 
ATOM     26  C   UNL     1       3.954   2.896  -0.006  0.00  0.00    +0.023 A 
ATOM     27  C   UNL     1       3.717   1.527  -0.016  0.00  0.00    +0.029 A 
BRANCH  22  28
ATOM     28  C   UNL     1       4.534  -0.845  -0.050  0.00  0.00    -0.041 C 
BRANCH  28  30
ATOM     29  C   UNL     1       5.356  -1.103  -2.312  0.00  0.00    -0.095 C 
ATOM     30  N   UNL     1       4.183  -1.255  -1.426  0.00  0.00    +0.382 N 
ATOM     31  H   UNL     1       3.425  -0.653  -1.770  0.00  0.00    -0.081 HD
BRANCH  30  32
ATOM     32  C   UNL     1       3.723  -2.659  -1.433  0.00  0.00    -0.069 C 
ATOM     33  C   UNL     1       4.851  -3.596  -0.998  0.00  0.00    -0.015 C 
ATOM     34  C   UNL     1       4.350  -5.041  -1.015  0.00  0.00    -0.002 C 
ATOM     35  C   UNL     1       3.900  -5.408  -2.431  0.00  0.00    -0.000 C 
ATOM     36  C   UNL     1       2.772  -4.471  -2.866  0.00  0.00    -0.002 C 
ATOM     37  C   UNL     1       3.273  -3.026  -2.849  0.00  0.00    -0.015 C 
ENDBRANCH  30  32
ENDBRANCH  28  30
ENDBRANCH  22  28
ENDBRANCH  20  27
ENDBRANCH   1  20
TORSDOF 9
