REMARK  Name = ZINC39966978
REMARK  7 active torsions:
REMARK  status: ('A' for Active; 'I' for Inactive)
REMARK    1  A    between atoms: C_6  and  N_7
REMARK    2  A    between atoms: C_8  and  C_10
REMARK    3  A    between atoms: C_10  and  S_11
REMARK    4  A    between atoms: S_11  and  C_12
REMARK    5  A    between atoms: C_15  and  C_24
REMARK    6  A    between atoms: N_16  and  C_17
REMARK    7  A    between atoms: C_17  and  C_18
REMARK                            x       y       z     vdW  Elec       q    Type
REMARK                         _______ _______ _______ _____ _____    ______ ____
ROOT
ATOM      1  C   UNL     1      -6.426  -0.796   0.514  0.00  0.00    +0.192 A 
ATOM      2  N   UNL     1      -6.482  -2.099   0.671  0.00  0.00    -0.122 NA
ATOM      3  N   UNL     1      -7.707  -2.483   0.741  0.00  0.00    -0.128 NA
ATOM      4  C   UNL     1      -8.508  -1.449   0.633  0.00  0.00    +0.166 A 
ATOM      5  N   UNL     1      -7.713  -0.335   0.491  0.00  0.00    -0.300 N 
ENDROOT
BRANCH   4   6
ATOM      6  C   UNL     1      -9.986  -1.475   0.666  0.00  0.00    +0.030 A 
ATOM      7  C   UNL     1     -10.671  -0.593   1.449  0.00  0.00    +0.057 A 
ATOM      8  S   UNL     1     -12.365  -1.048   1.119  0.00  0.00    -0.101 S 
ATOM      9  C   UNL     1     -12.047  -2.361  -0.031  0.00  0.00    -0.006 A 
ATOM     10  C   UNL     1     -10.695  -2.409  -0.117  0.00  0.00    -0.026 A 
ATOM     11  C   UNL     1      -9.975  -3.427  -0.997  0.00  0.00    +0.036 C 
ATOM     12  C   UNL     1     -10.875  -3.842  -2.155  0.00  0.00    +0.005 C 
ATOM     13  C   UNL     1     -11.733  -5.045  -1.768  0.00  0.00    +0.001 C 
ATOM     14  C   UNL     1     -12.660  -4.678  -0.614  0.00  0.00    +0.005 C 
ATOM     15  C   UNL     1     -13.049  -3.207  -0.750  0.00  0.00    +0.043 C 
ENDBRANCH   4   6
BRANCH   1  16
ATOM     16  S   UNL     1      -4.964   0.177   0.370  0.00  0.00    -0.077 S 
BRANCH  16  17
ATOM     17  C   UNL     1      -3.618  -1.034   0.478  0.00  0.00    +0.173 C 
BRANCH  17  19
ATOM     18  N   UNL     1      -1.145  -1.028   0.421  0.00  0.00    -0.285 N 
ATOM     19  C   UNL     1      -2.294  -0.325   0.366  0.00  0.00    +0.227 C 
ATOM     20  O   UNL     1      -2.261   0.880   0.228  0.00  0.00    -0.275 OA
ATOM     21  H   UNL     1      -1.172  -1.997   0.459  0.00  0.00    +0.155 HD
BRANCH  18  27
ATOM     22  C   UNL     1       0.206   0.874   1.044  0.00  0.00    +0.023 A 
ATOM     23  C   UNL     1       1.422   1.528   1.043  0.00  0.00    +0.006 A 
ATOM     24  C   UNL     1       2.522   0.957   0.423  0.00  0.00    -0.044 A 
ATOM     25  C   UNL     1       2.404  -0.274  -0.198  0.00  0.00    -0.042 A 
ATOM     26  C   UNL     1       1.187  -0.932  -0.198  0.00  0.00    +0.027 A 
ATOM     27  C   UNL     1       0.085  -0.361   0.422  0.00  0.00    +0.034 A 
ATOM     28  C   UNL     1       3.735  -0.675  -0.794  0.00  0.00    +0.036 C 
ATOM     29  C   UNL     1       4.561   0.628  -0.854  0.00  0.00    +0.009 C 
ATOM     30  C   UNL     1       3.941   1.465   0.285  0.00  0.00    +0.036 C 
ENDBRANCH  18  27
ENDBRANCH  17  19
ENDBRANCH  16  17
ENDBRANCH   1  16
BRANCH   5  31
ATOM     31  C   UNL     1      -8.154   1.054   0.342  0.00  0.00    +0.157 C 
BRANCH  31  32
ATOM     32  C   UNL     1      -8.299   1.386  -1.144  0.00  0.00    +0.138 C 
ATOM     33  C   UNL     1      -8.851   2.823  -1.323  0.00  0.00    +0.035 C 
ATOM     34  C   UNL     1      -8.320   3.169  -2.740  0.00  0.00    +0.031 C 
ATOM     35  C   UNL     1      -6.964   2.431  -2.772  0.00  0.00    +0.160 C 
ATOM     36  O   UNL     1      -7.011   1.395  -1.781  0.00  0.00    -0.375 OA
ENDBRANCH  31  32
ENDBRANCH   5  31
TORSDOF 7
