REMARK  Name = ZINC40287080
REMARK  3 active torsions:
REMARK  status: ('A' for Active; 'I' for Inactive)
REMARK    1  A    between atoms: C_9  and  C_12
REMARK    2  A    between atoms: C_20  and  C_22
REMARK    3  A    between atoms: C_22  and  N_23
REMARK                            x       y       z     vdW  Elec       q    Type
REMARK                         _______ _______ _______ _____ _____    ______ ____
ROOT
ATOM      1  C   UNL     1       4.898  -2.639  -0.071  0.00  0.00    +0.260 C 
ATOM      2  O   UNL     1       5.692  -2.026  -0.753  0.00  0.00    -0.271 OA
ATOM      3  N   UNL     1       5.185  -3.891   0.337  0.00  0.00    -0.295 N 
ATOM      4  C   UNL     1       4.191  -4.685   1.073  0.00  0.00    +0.127 C 
ATOM      5  C   UNL     1       3.978  -6.011   0.333  0.00  0.00    +0.127 C 
ATOM      6  N   UNL     1       5.291  -6.607   0.050  0.00  0.00    -0.297 N 
ATOM      7  C   UNL     1       6.285  -5.814  -0.686  0.00  0.00    +0.127 C 
ATOM      8  C   UNL     1       6.497  -4.489   0.049  0.00  0.00    +0.127 C 
ATOM      9  C   UNL     1       5.578  -7.859   0.458  0.00  0.00    +0.235 C 
ATOM     10  O   UNL     1       4.750  -8.505   1.065  0.00  0.00    -0.274 OA
ENDROOT
BRANCH   1  19
ATOM     11  C   UNL     1       0.081   1.490   0.139  0.00  0.00    +0.004 A 
ATOM     12  C   UNL     1       1.282   2.163   0.260  0.00  0.00    +0.004 A 
ATOM     13  C   UNL     1       2.474   1.464   0.242  0.00  0.00    +0.049 A 
ATOM     14  C   UNL     1       2.468   0.084   0.103  0.00  0.00    +0.163 A 
ATOM     15  C   UNL     1       1.261  -0.593  -0.016  0.00  0.00    +0.162 A 
ATOM     16  C   UNL     1       0.068   0.115   0.001  0.00  0.00    +0.049 A 
ATOM     17  O   UNL     1       1.232  -1.948  -0.146  0.00  0.00    -0.484 OA
ATOM     18  C   UNL     1       2.455  -2.583  -0.533  0.00  0.00    +0.283 C 
ATOM     19  C   UNL     1       3.590  -2.001   0.320  0.00  0.00    +0.296 C 
ATOM     20  O   UNL     1       3.650  -0.590   0.083  0.00  0.00    -0.473 OA
ENDBRANCH   1  19
BRANCH   9  21
ATOM     21  C   UNL     1       6.929  -8.457   0.160  0.00  0.00    +0.217 C 
BRANCH  21  22
ATOM     22  N   UNL     1       6.992  -9.816   0.704  0.00  0.00    -0.338 N 
ATOM     23  C   UNL     1       7.503 -10.150   1.929  0.00  0.00    +0.087 A 
ATOM     24  C   UNL     1       7.409 -11.475   2.119  0.00  0.00    +0.029 A 
ATOM     25  C   UNL     1       6.787 -12.037   0.917  0.00  0.00    +0.014 A 
ATOM     26  C   UNL     1       6.540 -10.947   0.062  0.00  0.00    +0.051 A 
ATOM     27  C   UNL     1       5.942 -11.171  -1.174  0.00  0.00    +0.026 A 
ATOM     28  C   UNL     1       5.593 -12.450  -1.548  0.00  0.00    +0.003 A 
ATOM     29  C   UNL     1       5.832 -13.525  -0.703  0.00  0.00    +0.016 A 
ATOM     30  C   UNL     1       6.431 -13.328   0.522  0.00  0.00    +0.027 A 
ATOM     31 BR   UNL     1       6.753 -14.796   1.669  0.00  0.00    -0.050 Br
ENDBRANCH  21  22
ENDBRANCH   9  21
TORSDOF 3
