REMARK  Name = ZINC09309922
REMARK  5 active torsions:
REMARK  status: ('A' for Active; 'I' for Inactive)
REMARK    1  A    between atoms: C_6  and  N_7
REMARK    2  A    between atoms: C_10  and  C_11
REMARK    3  A    between atoms: N_12  and  C_13
REMARK    4  A    between atoms: C_13  and  C_14
REMARK    5  A    between atoms: C_14  and  N_47
REMARK                            x       y       z     vdW  Elec       q    Type
REMARK                         _______ _______ _______ _____ _____    ______ ____
ROOT
ATOM      1  N   UNL     1       0.007  -0.007   0.017  0.00  0.00    -0.193 N 
ATOM      2  C   UNL     1      -1.154  -0.681   0.148  0.00  0.00    +0.245 C 
ATOM      3  O   UNL     1      -2.206  -0.090   0.306  0.00  0.00    -0.274 OA
ATOM      4  C   UNL     1      -1.115  -2.153   0.089  0.00  0.00    +0.202 C 
ATOM      5  C   UNL     1       0.205  -2.782  -0.099  0.00  0.00    +0.238 C 
ATOM      6  O   UNL     1       0.318  -3.992  -0.153  0.00  0.00    -0.274 OA
ATOM      7  N   UNL     1       1.284  -1.980  -0.210  0.00  0.00    -0.238 N 
ATOM      8  C   UNL     1       1.173  -0.645  -0.152  0.00  0.00    +0.319 C 
ATOM      9  O   UNL     1       2.184   0.021  -0.259  0.00  0.00    -0.251 OA
ATOM     10  H   UNL     1       2.159  -2.378  -0.334  0.00  0.00    +0.159 HD
ENDROOT
BRANCH   1  16
ATOM     11  C   UNL     1      -0.628   2.119  -0.943  0.00  0.00    +0.025 A 
ATOM     12  C   UNL     1      -0.643   3.499  -0.891  0.00  0.00    +0.016 A 
ATOM     13  C   UNL     1      -0.032   4.160   0.159  0.00  0.00    +0.013 A 
ATOM     14  C   UNL     1       0.593   3.440   1.162  0.00  0.00    +0.016 A 
ATOM     15  C   UNL     1       0.607   2.060   1.117  0.00  0.00    +0.025 A 
ATOM     16  C   UNL     1      -0.006   1.394   0.065  0.00  0.00    +0.045 A 
ATOM     17  I   UNL     1      -0.051   6.253   0.230  0.00  0.00    -0.044 I 
ENDBRANCH   1  16
BRANCH   4  18
ATOM     18  C   UNL     1      -2.264  -2.911   0.211  0.00  0.00    +0.099 C 
ATOM     19  N   UNL     1      -2.180  -4.254   0.301  0.00  0.00    -0.296 NA
BRANCH  19  20
ATOM     20  C   UNL     1      -3.398  -5.057   0.430  0.00  0.00    +0.122 C 
BRANCH  20  21
ATOM     21  C   UNL     1      -3.026  -6.539   0.513  0.00  0.00    -0.055 C 
BRANCH  21  27
ATOM     22  C   UNL     1      -4.922  -7.076   1.919  0.00  0.00    -0.079 C 
ATOM     23  C   UNL     1      -6.259  -7.819   1.958  0.00  0.00    -0.019 C 
ATOM     24  C   UNL     1      -6.008  -9.321   1.797  0.00  0.00    -0.004 C 
ATOM     25  C   UNL     1      -5.263  -9.568   0.482  0.00  0.00    -0.019 C 
ATOM     26  C   UNL     1      -3.954  -8.774   0.487  0.00  0.00    -0.079 C 
ATOM     27  N   UNL     1      -4.266  -7.336   0.620  0.00  0.00    +0.381 N 
ATOM     28  H   UNL     1      -4.904  -7.062  -0.136  0.00  0.00    -0.082 HD
ENDBRANCH  21  27
ENDBRANCH  20  21
ENDBRANCH  19  20
ENDBRANCH   4  18
TORSDOF 5
