REMARK  Name = ZINC02755324
REMARK  6 active torsions:
REMARK  status: ('A' for Active; 'I' for Inactive)
REMARK    1  A    between atoms: C_1  and  C_2
REMARK    2  A    between atoms: C_3  and  C_26
REMARK    3  A    between atoms: C_4  and  C_14
REMARK    4  A    between atoms: C_17  and  C_20
REMARK    5  A    between atoms: C_26  and  O_28
REMARK    6  A    between atoms: O_28  and  C_29
REMARK                            x       y       z     vdW  Elec       q    Type
REMARK                         _______ _______ _______ _____ _____    ______ ____
ROOT
ATOM      1  C   UNL     1       2.670  11.124  -2.258  0.00  0.00    +0.061 C 
ATOM      2  C   UNL     1       1.905  10.612  -1.064  0.00  0.00    +0.016 C 
ATOM      3  C   UNL     1       0.645  10.172  -1.218  0.00  0.00    +0.065 C 
ATOM      4  C   UNL     1      -0.145   9.649  -0.053  0.00  0.00    +0.092 C 
ATOM      5  C   UNL     1       0.468  10.083   1.254  0.00  0.00    +0.024 C 
ATOM      6  C   UNL     1       1.743  10.524   1.306  0.00  0.00    +0.015 C 
ATOM      7  N   UNL     1       2.499  10.598   0.167  0.00  0.00    -0.321 N 
ATOM      8  C   UNL     1       2.368  10.941   2.614  0.00  0.00    +0.051 C 
ATOM      9  C   UNL     1       1.291  11.513   3.538  0.00  0.00    +0.014 C 
ATOM     10  C   UNL     1       0.215  10.443   3.752  0.00  0.00    +0.080 C 
ATOM     11  C   UNL     1      -0.325  10.017   2.414  0.00  0.00    +0.162 C 
ATOM     12  O   UNL     1      -1.466   9.609   2.334  0.00  0.00    -0.292 OA
ATOM     13  H   UNL     1       3.595  10.647   0.250  0.00  0.00    +0.152 HD
ENDROOT
BRANCH   4  14
ATOM     14  C   UNL     1      -0.172   8.143  -0.111  0.00  0.00    -0.035 A 
ATOM     15  C   UNL     1      -1.382   7.479  -0.208  0.00  0.00    +0.005 A 
ATOM     16  C   UNL     1      -1.413   6.100  -0.260  0.00  0.00    +0.009 A 
ATOM     17  C   UNL     1      -0.223   5.377  -0.216  0.00  0.00    -0.018 A 
ATOM     18  C   UNL     1       0.993   6.051  -0.114  0.00  0.00    +0.009 A 
ATOM     19  C   UNL     1       1.012   7.430  -0.067  0.00  0.00    +0.005 A 
BRANCH  17  20
ATOM     20  C   UNL     1      -0.250   3.894  -0.273  0.00  0.00    -0.018 A 
ATOM     21  C   UNL     1       0.940   3.171  -0.229  0.00  0.00    +0.008 A 
ATOM     22  C   UNL     1       0.909   1.792  -0.281  0.00  0.00    +0.001 A 
ATOM     23  C   UNL     1      -0.301   1.128  -0.377  0.00  0.00    +0.000 A 
ATOM     24  C   UNL     1      -1.485   1.841  -0.426  0.00  0.00    +0.001 A 
ATOM     25  C   UNL     1      -1.466   3.220  -0.369  0.00  0.00    +0.008 A 
ENDBRANCH  17  20
ENDBRANCH   4  14
BRANCH   3  26
ATOM     26  C   UNL     1       0.051  10.202  -2.501  0.00  0.00    +0.338 C 
ATOM     27  O   UNL     1       0.639  10.719  -3.432  0.00  0.00    -0.245 OA
BRANCH  26  28
ATOM     28  O   UNL     1      -1.169   9.657  -2.693  0.00  0.00    -0.458 OA
BRANCH  28  29
ATOM     29  C   UNL     1      -1.708   9.724  -4.015  0.00  0.00    +0.177 C 
ATOM     30  C   UNL     1      -2.569  10.995  -4.171  0.00  0.00    +0.044 C 
ATOM     31  C   UNL     1      -3.749  10.545  -5.069  0.00  0.00    +0.004 C 
ATOM     32  C   UNL     1      -4.038   9.111  -4.562  0.00  0.00    +0.004 C 
ATOM     33  C   UNL     1      -2.642   8.526  -4.264  0.00  0.00    +0.044 C 
ENDBRANCH  28  29
ENDBRANCH  26  28
ENDBRANCH   3  26
TORSDOF 5
