REMARK  Name = ZINC63900640
REMARK  14 active torsions:
REMARK  status: ('A' for Active; 'I' for Inactive)
REMARK    1  A    between atoms: C_1  and  C_2
REMARK    2  A    between atoms: C_2  and  O_3
REMARK    3  A    between atoms: O_3  and  C_4
REMARK    4  A    between atoms: C_4  and  C_6
REMARK    5  A    between atoms: C_9  and  C_36
REMARK    6  A    between atoms: C_9  and  C_37
REMARK    7  A    between atoms: C_11  and  C_34
REMARK    8  A    between atoms: C_11  and  C_35
REMARK    9  A    between atoms: C_15  and  N_17
REMARK   10  A    between atoms: C_18  and  C_20
REMARK   11  A    between atoms: C_20  and  O_21
REMARK   12  A    between atoms: O_21  and  C_22
REMARK   13  A    between atoms: C_22  and  C_24
REMARK   14  A    between atoms: C_24  and  C_25
REMARK                            x       y       z     vdW  Elec       q    Type
REMARK                         _______ _______ _______ _____ _____    ______ ____
ROOT
ATOM      1  C   UNL     1      -2.193  -2.425   0.273  0.00  0.00    +0.067 C 
ATOM      2  C   UNL     1      -2.586  -3.668   0.183  0.00  0.00    -0.047 C 
ATOM      3  C   UNL     1      -1.680  -4.882  -0.030  0.00  0.00    +0.019 C 
ATOM      4  C   UNL     1      -2.575  -6.109   0.181  0.00  0.00    -0.069 C 
ATOM      5  N   UNL     1      -3.686  -6.157  -0.760  0.00  0.00    +0.387 N 
ATOM      6  C   UNL     1      -4.349  -4.873  -0.987  0.00  0.00    -0.057 C 
ATOM      7  C   UNL     1      -4.100  -3.936   0.196  0.00  0.00    +0.063 C 
ATOM      8  S   UNL     1      -4.752  -2.258  -0.173  0.00  0.00    -0.127 S 
ATOM      9  C   UNL     1      -3.243  -1.331   0.354  0.00  0.00    +0.169 C 
ATOM     10  C   UNL     1      -5.854  -5.100  -1.145  0.00  0.00    -0.009 C 
ATOM     11  C   UNL     1      -3.798  -4.236  -2.264  0.00  0.00    -0.009 C 
ATOM     12  C   UNL     1      -1.729  -7.373   0.013  0.00  0.00    -0.010 C 
ATOM     13  C   UNL     1      -3.133  -6.076   1.605  0.00  0.00    -0.010 C 
ATOM     14  H   UNL     1      -3.341  -6.498  -1.644  0.00  0.00    -0.084 HD
ATOM     15  H   UNL     1      -4.370  -6.812  -0.413  0.00  0.00    -0.084 HD
ENDROOT
BRANCH   9  16
ATOM     16  N   UNL     1      -3.379  -0.831   1.724  0.00  0.00    -0.297 N 
ATOM     17  C   UNL     1      -3.445   0.496   1.954  0.00  0.00    +0.252 C 
ATOM     18  O   UNL     1      -3.390   1.275   1.027  0.00  0.00    -0.272 OA
ATOM     19  H   UNL     1      -3.423  -1.454   2.466  0.00  0.00    +0.150 HD
BRANCH  17  20
ATOM     20  C   UNL     1      -3.585   1.010   3.364  0.00  0.00    +0.327 C 
BRANCH  20  21
ATOM     21  O   UNL     1      -3.632   2.438   3.347  0.00  0.00    -0.455 OA
BRANCH  21  22
ATOM     22  C   UNL     1      -3.756   3.058   4.531  0.00  0.00    +0.312 C 
ATOM     23  O   UNL     1      -3.822   2.409   5.548  0.00  0.00    -0.250 OA
BRANCH  22  24
ATOM     24  C   UNL     1      -3.813   4.563   4.592  0.00  0.00    +0.153 C 
BRANCH  24  25
ATOM     25  C   UNL     1      -3.953   5.002   6.027  0.00  0.00    -0.031 C 
ATOM     26  C   UNL     1      -2.957   5.372   6.865  0.00  0.00    -0.001 A 
ATOM     27  C   UNL     1      -1.502   5.469   6.698  0.00  0.00    +0.010 A 
ATOM     28  C   UNL     1      -0.748   5.878   7.744  0.00  0.00    +0.001 A 
ATOM     29  C   UNL     1      -1.320   6.210   8.980  0.00  0.00    +0.002 A 
ATOM     30  C   UNL     1      -2.649   6.145   9.209  0.00  0.00    +0.026 A 
ATOM     31  C   UNL     1      -3.537   5.728   8.180  0.00  0.00    +0.043 A 
ATOM     32  N   UNL     1      -4.840   5.585   8.155  0.00  0.00    -0.380 N 
ATOM     33  C   UNL     1      -5.235   5.127   6.819  0.00  0.00    +0.145 C 
ATOM     34  H   UNL     1      -5.442   5.757   8.896  0.00  0.00    +0.160 HD
ENDBRANCH  24  25
ENDBRANCH  22  24
ENDBRANCH  21  22
ENDBRANCH  20  21
ENDBRANCH  17  20
ENDBRANCH   9  16
BRANCH   1  35
ATOM     35  C   UNL     1      -0.762  -2.092   0.300  0.00  0.00    +0.338 C 
ATOM     36  O   UNL     1       0.069  -2.976   0.235  0.00  0.00    -0.245 OA
BRANCH  35  37
ATOM     37  O   UNL     1      -0.371  -0.805   0.398  0.00  0.00    -0.462 OA
BRANCH  37  39
ATOM     38  C   UNL     1       1.284   0.951   0.534  0.00  0.00    +0.048 C 
ATOM     39  C   UNL     1       1.036  -0.555   0.420  0.00  0.00    +0.229 C 
ENDBRANCH  37  39
ENDBRANCH  35  37
ENDBRANCH   1  35
TORSDOF 9
