REMARK  Name = ZINC04063624
REMARK  10 active torsions:
REMARK  status: ('A' for Active; 'I' for Inactive)
REMARK    1  A    between atoms: C_1  and  C_2
REMARK    2  A    between atoms: C_7  and  N_8
REMARK    3  A    between atoms: N_8  and  C_9
REMARK    4  A    between atoms: C_10  and  C_11
REMARK    5  A    between atoms: C_10  and  C_13
REMARK    6  A    between atoms: C_15  and  C_18
REMARK    7  A    between atoms: C_21  and  C_24
REMARK    8  A    between atoms: C_24  and  C_25
REMARK    9  A    between atoms: C_25  and  C_26
REMARK   10  A    between atoms: C_25  and  C_27
REMARK                            x       y       z     vdW  Elec       q    Type
REMARK                         _______ _______ _______ _____ _____    ______ ____
ROOT
ATOM      1  C   UNL     1       1.250   2.183   0.002  0.00  0.00    +0.120 A 
ATOM      2  N   UNL     1       2.496   1.731  -0.013  0.00  0.00    -0.238 NA
ATOM      3  C   UNL     1       3.525   2.560  -0.018  0.00  0.00    +0.079 A 
ATOM      4  C   UNL     1       3.302   3.910  -0.008  0.00  0.00    +0.075 A 
ATOM      5  S   UNL     1       1.514   3.951   0.001  0.00  0.00    -0.074 S 
ENDROOT
BRANCH   3   6
ATOM      6  C   UNL     1       4.911   2.031  -0.034  0.00  0.00    +0.001 A 
ATOM      7  C   UNL     1       5.994   2.908  -0.046  0.00  0.00    +0.010 A 
ATOM      8  C   UNL     1       7.282   2.411  -0.057  0.00  0.00    +0.004 A 
ATOM      9  C   UNL     1       7.498   1.044  -0.066  0.00  0.00    -0.047 A 
ATOM     10  C   UNL     1       6.426   0.169  -0.059  0.00  0.00    +0.004 A 
ATOM     11  C   UNL     1       5.135   0.655  -0.044  0.00  0.00    +0.010 A 
BRANCH   9  12
ATOM     12  C   UNL     1       8.906   0.507  -0.083  0.00  0.00    +0.038 C 
BRANCH  12  13
ATOM     13  C   UNL     1       9.367   0.333  -1.531  0.00  0.00    -0.013 C 
ATOM     14  C   UNL     1      10.837  -0.093  -1.550  0.00  0.00    +0.007 C 
ATOM     15  C   UNL     1       8.516  -0.741  -2.212  0.00  0.00    +0.007 C 
ENDBRANCH  12  13
ENDBRANCH   9  12
ENDBRANCH   3   6
BRANCH   1  17
ATOM     16  C   UNL     1      -1.207   2.093   0.019  0.00  0.00    +0.093 C 
ATOM     17  C   UNL     1      -0.017   1.428   0.010  0.00  0.00    +0.098 C 
BRANCH  16  18
ATOM     18  N   UNL     1      -2.381   1.394   0.021  0.00  0.00    -0.319 N 
ATOM     19  H   UNL     1      -2.368   0.424   0.016  0.00  0.00    +0.152 HD
BRANCH  18  26
ATOM     20  C   UNL     1      -4.777  -0.140   0.012  0.00  0.00    +0.045 C 
ATOM     21  C   UNL     1      -4.795   1.367   0.026  0.00  0.00    -0.029 A 
ATOM     22  C   UNL     1      -5.998   2.044   0.040  0.00  0.00    +0.005 A 
ATOM     23  C   UNL     1      -6.015   3.427   0.048  0.00  0.00    +0.000 A 
ATOM     24  C   UNL     1      -4.827   4.136   0.047  0.00  0.00    +0.002 A 
ATOM     25  C   UNL     1      -3.621   3.465   0.038  0.00  0.00    +0.023 A 
ATOM     26  C   UNL     1      -3.600   2.076   0.030  0.00  0.00    +0.034 A 
ENDBRANCH  18  26
ENDBRANCH  16  18
BRANCH  17  27
ATOM     27  C   UNL     1       0.002  -0.004   0.002  0.00  0.00    +0.103 C 
ATOM     28  N   UNL     1       0.018  -1.140  -0.004  0.00  0.00    -0.191 NA
ENDBRANCH  17  27
ENDBRANCH   1  17
TORSDOF 7
