REMARK  Name = ZINC22380463
REMARK  8 active torsions:
REMARK  status: ('A' for Active; 'I' for Inactive)
REMARK    1  A    between atoms: C_1  and  S_2
REMARK    2  A    between atoms: S_2  and  C_3
REMARK    3  A    between atoms: C_6  and  S_9
REMARK    4  A    between atoms: S_9  and  N_12
REMARK    5  A    between atoms: N_12  and  C_13
REMARK    6  A    between atoms: N_12  and  C_24
REMARK    7  A    between atoms: C_13  and  C_14
REMARK    8  A    between atoms: N_16  and  C_17
REMARK                            x       y       z     vdW  Elec       q    Type
REMARK                         _______ _______ _______ _____ _____    ______ ____
ROOT
ATOM      1  N   UNL     1      -0.838   1.581  -0.920  0.00  0.00    -0.194 N 
ENDROOT
BRANCH   1   2
ATOM      2  C   UNL     1      -2.079   1.067  -1.303  0.00  0.00    +0.055 A 
ATOM      3  C   UNL     1      -2.925   0.508  -0.352  0.00  0.00    +0.025 A 
ATOM      4  C   UNL     1      -4.151   0.000  -0.733  0.00  0.00    +0.005 A 
ATOM      5  C   UNL     1      -4.539   0.047  -2.059  0.00  0.00    +0.038 A 
ATOM      6  C   UNL     1      -3.700   0.603  -3.010  0.00  0.00    +0.125 A 
ATOM      7  C   UNL     1      -2.472   1.118  -2.634  0.00  0.00    +0.063 A 
ATOM      8  F   UNL     1      -4.082   0.647  -4.305  0.00  0.00    -0.205 F 
ENDBRANCH   1   2
BRANCH   1   9
ATOM      9  S   UNL     1      -0.122   2.772  -1.820  0.00  0.00    +0.075 S 
ATOM     10  O   UNL     1      -1.149   3.362  -2.605  0.00  0.00    -0.150 OA
ATOM     11  O   UNL     1       0.683   3.529  -0.926  0.00  0.00    -0.150 OA
BRANCH   9  15
ATOM     12  C   UNL     1       2.712   0.744  -4.713  0.00  0.00    +0.008 A 
ATOM     13  C   UNL     1       1.425   1.078  -5.117  0.00  0.00    +0.016 A 
ATOM     14  C   UNL     1       0.564   1.696  -4.233  0.00  0.00    +0.030 A 
ATOM     15  C   UNL     1       0.980   1.983  -2.946  0.00  0.00    +0.109 A 
ATOM     16  C   UNL     1       2.262   1.656  -2.541  0.00  0.00    +0.030 A 
ATOM     17  C   UNL     1       3.127   1.033  -3.419  0.00  0.00    +0.016 A 
BRANCH  12  19
ATOM     18  C   UNL     1       5.334  -0.275  -4.875  0.00  0.00    +0.090 C 
ATOM     19  S   UNL     1       3.814  -0.046  -5.838  0.00  0.00    -0.129 S 
ENDBRANCH  12  19
ENDBRANCH   9  15
ENDBRANCH   1   9
BRANCH   1  20
ATOM     20  C   UNL     1      -0.171   1.067   0.278  0.00  0.00    +0.227 C 
BRANCH  20  21
ATOM     21  C   UNL     1      -0.686   1.796   1.492  0.00  0.00    +0.236 C 
ATOM     22  O   UNL     1      -1.528   2.660   1.369  0.00  0.00    -0.274 OA
ATOM     23  N   UNL     1      -0.211   1.488   2.716  0.00  0.00    -0.284 N 
ATOM     24  H   UNL     1       0.488   0.648   2.838  0.00  0.00    +0.155 HD
BRANCH  23  25
ATOM     25  C   UNL     1      -0.607   2.238   3.829  0.00  0.00    +0.033 A 
ATOM     26  C   UNL     1      -0.993   3.563   3.675  0.00  0.00    +0.024 A 
ATOM     27  C   UNL     1      -1.388   4.298   4.774  0.00  0.00    +0.017 A 
ATOM     28  C   UNL     1      -1.390   3.720   6.031  0.00  0.00    +0.018 A 
ATOM     29  C   UNL     1      -1.000   2.401   6.189  0.00  0.00    +0.017 A 
ATOM     30  C   UNL     1      -0.610   1.659   5.092  0.00  0.00    +0.024 A 
ATOM     31 BR   UNL     1      -1.926   4.732   7.536  0.00  0.00    -0.050 Br
ENDBRANCH  23  25
ENDBRANCH  20  21
ENDBRANCH   1  20
TORSDOF 7
