REMARK  Name = ZINC58848788
REMARK  8 active torsions:
REMARK  status: ('A' for Active; 'I' for Inactive)
REMARK    1  A    between atoms: C_1  and  O_2
REMARK    2  A    between atoms: O_2  and  C_3
REMARK    3  A    between atoms: C_6  and  C_9
REMARK    4  A    between atoms: C_20  and  S_25
REMARK    5  A    between atoms: S_25  and  N_28
REMARK    6  A    between atoms: N_28  and  C_29
REMARK    7  A    between atoms: C_33  and  O_35
REMARK    8  A    between atoms: O_35  and  C_36
REMARK                            x       y       z     vdW  Elec       q    Type
REMARK                         _______ _______ _______ _____ _____    ______ ____
ROOT
ATOM      1  C   UNL     1      -7.142  -2.451  -3.873  0.00  0.00    +0.105 C 
ATOM      2  C   UNL     1      -6.607  -2.287  -2.482  0.00  0.00    +0.029 C 
ATOM      3  C   UNL     1      -5.070  -2.405  -2.428  0.00  0.00    +0.033 C 
ATOM      4  C   UNL     1      -4.795  -2.913  -1.028  0.00  0.00    -0.030 C 
ATOM      5  C   UNL     1      -5.875  -3.422  -0.496  0.00  0.00    -0.023 C 
ATOM      6  C   UNL     1      -7.021  -3.357  -1.474  0.00  0.00    +0.049 C 
ATOM      7  C   UNL     1      -7.183  -4.718  -2.091  0.00  0.00    -0.018 A 
ATOM      8  C   UNL     1      -7.255  -5.818  -1.248  0.00  0.00    +0.034 A 
ATOM      9  C   UNL     1      -7.393  -7.089  -1.767  0.00  0.00    +0.109 A 
ATOM     10  C   UNL     1      -7.459  -7.277  -3.135  0.00  0.00    +0.030 A 
ATOM     11  C   UNL     1      -7.393  -6.189  -3.981  0.00  0.00    +0.025 A 
ATOM     12  C   UNL     1      -7.260  -4.905  -3.459  0.00  0.00    +0.031 A 
ATOM     13  N   UNL     1      -7.244  -3.824  -4.320  0.00  0.00    -0.336 N 
ATOM     14  H   UNL     1      -7.275  -4.002  -5.273  0.00  0.00    +0.147 HD
ENDROOT
BRANCH   1  18
ATOM     15  C   UNL     1      -4.582  -0.338  -6.564  0.00  0.00    +0.120 A 
ATOM     16  C   UNL     1      -5.751   0.254  -6.108  0.00  0.00    +0.046 A 
ATOM     17  C   UNL     1      -6.577  -0.431  -5.238  0.00  0.00    +0.009 A 
ATOM     18  C   UNL     1      -6.240  -1.706  -4.822  0.00  0.00    -0.027 A 
ATOM     19  C   UNL     1      -5.075  -2.297  -5.275  0.00  0.00    +0.009 A 
ATOM     20  C   UNL     1      -4.249  -1.619  -6.149  0.00  0.00    +0.046 A 
BRANCH  15  22
ATOM     21  C   UNL     1      -4.175   1.649  -7.804  0.00  0.00    +0.277 C 
ATOM     22  O   UNL     1      -3.768   0.335  -7.420  0.00  0.00    -0.495 OA
ENDBRANCH  15  22
ENDBRANCH   1  18
BRANCH   9  23
ATOM     23  S   UNL     1      -7.483  -8.476  -0.683  0.00  0.00    +0.072 S 
ATOM     24  O   UNL     1      -6.943  -9.582  -1.394  0.00  0.00    -0.150 OA
ATOM     25  O   UNL     1      -6.965  -8.048   0.568  0.00  0.00    -0.150 OA
BRANCH  23  26
ATOM     26  N   UNL     1      -9.088  -8.806  -0.444  0.00  0.00    -0.216 N 
ATOM     27  H   UNL     1      -9.457  -9.655  -0.735  0.00  0.00    +0.174 HD
BRANCH  26  28
ATOM     28  C   UNL     1      -9.909  -7.863   0.178  0.00  0.00    +0.052 A 
ATOM     29  C   UNL     1      -9.825  -7.663   1.551  0.00  0.00    +0.025 A 
ATOM     30  C   UNL     1     -10.638  -6.731   2.165  0.00  0.00    +0.005 A 
ATOM     31  C   UNL     1     -11.536  -5.993   1.417  0.00  0.00    +0.046 A 
ATOM     32  C   UNL     1     -11.624  -6.188   0.046  0.00  0.00    +0.122 A 
ATOM     33  C   UNL     1     -10.807  -7.120  -0.576  0.00  0.00    +0.070 A 
BRANCH  32  34
ATOM     34  O   UNL     1     -12.508  -5.462  -0.688  0.00  0.00    -0.495 OA
ATOM     35  C   UNL     1     -13.315  -4.516   0.017  0.00  0.00    +0.277 C 
ENDBRANCH  32  34
ENDBRANCH  26  28
ENDBRANCH  23  26
ENDBRANCH   9  23
TORSDOF 6
