REMARK  Name = ZINC16010115
REMARK  1 active torsions:
REMARK  status: ('A' for Active; 'I' for Inactive)
REMARK    1  A    between atoms: C_6  and  N_11
REMARK                            x       y       z     vdW  Elec       q    Type
REMARK                         _______ _______ _______ _____ _____    ______ ____
ROOT
ATOM      1  N   UNL     1       4.748   3.992  -0.024  0.00  0.00    -0.210 N 
ATOM      2  C   UNL     1       4.788   5.327  -0.116  0.00  0.00    +0.228 C 
ATOM      3  O   UNL     1       3.821   6.052  -0.203  0.00  0.00    -0.275 OA
ATOM      4  C   UNL     1       6.228   5.788  -0.095  0.00  0.00    +0.074 C 
ATOM      5  C   UNL     1       6.602   6.363  -1.474  0.00  0.00    -0.054 C 
ATOM      6  C   UNL     1       5.325   6.835  -2.193  0.00  0.00    -0.016 C 
ATOM      7  C   UNL     1       4.844   5.625  -3.016  0.00  0.00    -0.020 C 
ATOM      8  C   UNL     1       5.852   4.500  -2.707  0.00  0.00    -0.076 C 
ATOM      9  N   UNL     1       7.087   5.194  -2.268  0.00  0.00    +0.395 N 
ATOM     10  C   UNL     1       7.809   4.361  -1.292  0.00  0.00    +0.053 C 
ATOM     11  C   UNL     1       7.027   4.462   0.023  0.00  0.00    +0.089 C 
ATOM     12  C   UNL     1       5.947   3.405   0.064  0.00  0.00    +0.229 C 
ATOM     13  O   UNL     1       6.137   2.212   0.159  0.00  0.00    -0.275 OA
ATOM     14  C   UNL     1       9.231   4.817  -1.123  0.00  0.00    -0.027 A 
ATOM     15  C   UNL     1       9.804   6.005  -0.727  0.00  0.00    +0.004 A 
ATOM     16  C   UNL     1      11.181   6.125  -0.670  0.00  0.00    +0.000 A 
ATOM     17  C   UNL     1      11.980   5.048  -1.012  0.00  0.00    +0.002 A 
ATOM     18  C   UNL     1      11.410   3.856  -1.409  0.00  0.00    +0.023 A 
ATOM     19  C   UNL     1      10.025   3.728  -1.469  0.00  0.00    +0.036 A 
ATOM     20  N   UNL     1       9.224   2.644  -1.835  0.00  0.00    -0.286 N 
ATOM     21  C   UNL     1       7.911   2.933  -1.758  0.00  0.00    +0.212 C 
ATOM     22  O   UNL     1       6.989   2.188  -2.014  0.00  0.00    -0.277 OA
ATOM     23  H   UNL     1       9.689   1.694  -2.139  0.00  0.00    +0.155 HD
ATOM     24  H   UNL     1       7.731   5.425  -3.129  0.00  0.00    -0.079 HD
ENDROOT
BRANCH   1  30
ATOM     25  C   UNL     1      -0.878   1.224   1.026  0.00  0.00    +0.001 A 
ATOM     26  C   UNL     1      -0.570   2.053   2.103  0.00  0.00    +0.001 A 
ATOM     27  C   UNL     1       0.588   2.769   2.127  0.00  0.00    +0.008 A 
ATOM     28  C   UNL     1       1.490   2.668   1.054  0.00  0.00    -0.016 A 
ATOM     29  C   UNL     1       2.694   3.392   1.045  0.00  0.00    +0.032 A 
ATOM     30  C   UNL     1       3.547   3.269  -0.015  0.00  0.00    +0.044 A 
ATOM     31  C   UNL     1       3.238   2.431  -1.093  0.00  0.00    +0.024 A 
ATOM     32  C   UNL     1       2.080   1.718  -1.113  0.00  0.00    +0.010 A 
ATOM     33  C   UNL     1       1.179   1.820  -0.038  0.00  0.00    -0.018 A 
ATOM     34  C   UNL     1      -0.026   1.097  -0.027  0.00  0.00    +0.008 A 
ENDBRANCH   1  30
TORSDOF 1
