REMARK  Name = ZINC06651957
REMARK  4 active torsions:
REMARK  status: ('A' for Active; 'I' for Inactive)
REMARK    1  A    between atoms: C_4  and  S_7
REMARK    2  A    between atoms: S_7  and  N_10
REMARK    3  A    between atoms: N_10  and  C_11
REMARK    4  A    between atoms: C_20  and  N_55
REMARK                            x       y       z     vdW  Elec       q    Type
REMARK                         _______ _______ _______ _____ _____    ______ ____
ROOT
ATOM      1  C   UNL     1       2.915   3.564  -0.365  0.00  0.00    +0.072 C 
ATOM      2  C   UNL     1       3.346   2.146   0.066  0.00  0.00    +0.054 C 
ATOM      3  C   UNL     1       2.086   1.310  -0.009  0.00  0.00    -0.044 A 
ATOM      4  C   UNL     1       1.922  -0.065  -0.045  0.00  0.00    +0.004 A 
ATOM      5  C   UNL     1       0.656  -0.613  -0.113  0.00  0.00    +0.000 A 
ATOM      6  C   UNL     1      -0.452   0.214  -0.146  0.00  0.00    +0.000 A 
ATOM      7  C   UNL     1      -0.290   1.585  -0.110  0.00  0.00    +0.002 A 
ATOM      8  C   UNL     1       0.978   2.136  -0.042  0.00  0.00    -0.056 A 
ATOM      9  C   UNL     1       1.418   3.583   0.009  0.00  0.00    -0.018 C 
ENDROOT
BRANCH   9  17
ATOM     10  C   UNL     1       1.877   5.441   1.491  0.00  0.00    -0.078 C 
ATOM     11  C   UNL     1       1.441   6.111   2.794  0.00  0.00    -0.019 C 
ATOM     12  C   UNL     1       2.199   5.481   3.968  0.00  0.00    -0.002 C 
ATOM     13  C   UNL     1       1.611   4.096   4.249  0.00  0.00    -0.000 C 
ATOM     14  C   UNL     1       0.085   4.173   4.199  0.00  0.00    -0.002 C 
ATOM     15  C   UNL     1      -0.429   3.384   2.996  0.00  0.00    -0.019 C 
ATOM     16  C   UNL     1      -0.188   4.192   1.717  0.00  0.00    -0.078 C 
ATOM     17  N   UNL     1       1.250   4.107   1.381  0.00  0.00    +0.385 N 
ATOM     18  H   UNL     1       1.710   3.468   2.040  0.00  0.00    -0.081 HD
ENDBRANCH   9  17
BRANCH   1  19
ATOM     19  N   UNL     1       3.094   3.748  -1.807  0.00  0.00    -0.188 NA
ATOM     20  H   UNL     1       2.410   3.445  -2.423  0.00  0.00    +0.148 HD
BRANCH  19  21
ATOM     21  S   UNL     1       4.466   4.473  -2.385  0.00  0.00    +0.059 S 
ATOM     22  O   UNL     1       4.356   4.480  -3.802  0.00  0.00    -0.153 OA
ATOM     23  O   UNL     1       4.646   5.663  -1.629  0.00  0.00    -0.153 OA
BRANCH  21  27
ATOM     24  C   UNL     1       7.945   1.760  -1.371  0.00  0.00    +0.000 A 
ATOM     25  C   UNL     1       7.274   1.606  -2.570  0.00  0.00    +0.002 A 
ATOM     26  C   UNL     1       6.212   2.434  -2.879  0.00  0.00    +0.028 A 
ATOM     27  C   UNL     1       5.820   3.417  -1.990  0.00  0.00    +0.105 A 
ATOM     28  C   UNL     1       6.494   3.575  -0.794  0.00  0.00    +0.028 A 
ATOM     29  C   UNL     1       7.553   2.743  -0.481  0.00  0.00    +0.002 A 
ENDBRANCH  21  27
ENDBRANCH  19  21
ENDBRANCH   1  19
TORSDOF 4
