REMARK  Name = ZINC59293334
REMARK  6 active torsions:
REMARK  status: ('A' for Active; 'I' for Inactive)
REMARK    1  A    between atoms: C_5  and  N_7
REMARK    2  A    between atoms: C_8  and  C_10
REMARK    3  A    between atoms: C_16  and  C_17
REMARK    4  A    between atoms: C_23  and  N_34
REMARK    5  A    between atoms: C_24  and  C_32
REMARK    6  A    between atoms: C_25  and  C_27
REMARK                            x       y       z     vdW  Elec       q    Type
REMARK                         _______ _______ _______ _____ _____    ______ ____
ROOT
ATOM      1  C   UNL     1       0.116  -4.173   0.184  0.00  0.00    +0.061 C 
ATOM      2  C   UNL     1      -1.043  -4.896   0.286  0.00  0.00    +0.099 A 
ATOM      3  N   UNL     1      -1.093  -6.271   0.386  0.00  0.00    -0.257 N 
ATOM      4  C   UNL     1      -2.308  -6.846   0.480  0.00  0.00    +0.271 A 
ATOM      5  O   UNL     1      -2.419  -8.056   0.571  0.00  0.00    -0.266 OA
ATOM      6  C   UNL     1      -3.492  -5.987   0.472  0.00  0.00    +0.082 A 
ATOM      7  C   UNL     1      -4.810  -6.327   0.556  0.00  0.00    +0.066 C 
ATOM      8  S   UNL     1      -2.745  -4.372   0.325  0.00  0.00    -0.065 S 
ATOM      9  C   UNL     1       0.103  -6.998   0.383  0.00  0.00    +0.119 C 
ATOM     10  C   UNL     1       1.326  -6.433   0.288  0.00  0.00    +0.082 C 
ATOM     11  C   UNL     1       1.431  -4.926   0.172  0.00  0.00    +0.136 C 
ENDROOT
BRANCH   7  12
ATOM     12  C   UNL     1      -5.803  -5.321   0.529  0.00  0.00    +0.129 A 
ATOM     13  C   UNL     1      -7.166  -5.521   0.610  0.00  0.00    +0.049 A 
ATOM     14  C   UNL     1      -7.761  -4.251   0.544  0.00  0.00    +0.042 A 
ATOM     15  C   UNL     1      -6.762  -3.348   0.429  0.00  0.00    +0.195 A 
ATOM     16  O   UNL     1      -5.587  -3.993   0.425  0.00  0.00    -0.463 OA
ENDBRANCH   7  12
BRANCH  11  17
ATOM     17  C   UNL     1       2.152  -4.597  -1.110  0.00  0.00    +0.118 A 
ATOM     18  C   UNL     1       3.365  -4.024  -1.206  0.00  0.00    +0.045 A 
ATOM     19  C   UNL     1       3.652  -3.901  -2.584  0.00  0.00    +0.041 A 
ATOM     20  C   UNL     1       2.597  -4.406  -3.249  0.00  0.00    +0.195 A 
ATOM     21  O   UNL     1       1.694  -4.832  -2.350  0.00  0.00    -0.467 OA
ENDBRANCH  11  17
BRANCH   1  23
ATOM     22  N   UNL     1       1.236  -2.080  -0.019  0.00  0.00    -0.279 N 
ATOM     23  C   UNL     1       0.085  -2.773   0.086  0.00  0.00    +0.248 C 
ATOM     24  O   UNL     1      -0.982  -2.184   0.097  0.00  0.00    -0.270 OA
ATOM     25  H   UNL     1       2.081  -2.551  -0.090  0.00  0.00    +0.155 HD
BRANCH  22  30
ATOM     26  C   UNL     1       0.137   1.376  -0.631  0.00  0.00    +0.002 A 
ATOM     27  C   UNL     1       1.166   2.087  -0.042  0.00  0.00    +0.003 A 
ATOM     28  C   UNL     1       2.219   1.420   0.556  0.00  0.00    +0.040 A 
ATOM     29  C   UNL     1       2.246   0.037   0.565  0.00  0.00    +0.144 A 
ATOM     30  C   UNL     1       1.212  -0.680  -0.026  0.00  0.00    +0.069 A 
ATOM     31  C   UNL     1       0.157  -0.006  -0.625  0.00  0.00    +0.026 A 
ATOM     32  F   UNL     1       3.276  -0.615   1.148  0.00  0.00    -0.204 F 
ENDBRANCH  22  30
ENDBRANCH   1  23
BRANCH   9  33
ATOM     33  N   UNL     1       0.029  -8.366   0.483  0.00  0.00    -0.343 N 
ATOM     34  H   UNL     1       0.744  -8.918   0.131  0.00  0.00    +0.144 HD
ATOM     35  H   UNL     1      -0.740  -8.780   0.906  0.00  0.00    +0.144 HD
ENDBRANCH   9  33
BRANCH  10  36
ATOM     36  C   UNL     1       2.505  -7.246   0.293  0.00  0.00    +0.099 C 
ATOM     37  N   UNL     1       3.440  -7.891   0.297  0.00  0.00    -0.191 NA
ENDBRANCH  10  36
TORSDOF 6
