REMARK  Name = ZINC13149267
REMARK  8 active torsions:
REMARK  status: ('A' for Active; 'I' for Inactive)
REMARK    1  A    between atoms: C_1  and  O_2
REMARK    2  A    between atoms: O_2  and  C_3
REMARK    3  A    between atoms: C_5  and  C_18
REMARK    4  A    between atoms: C_8  and  O_9
REMARK    5  A    between atoms: O_9  and  C_10
REMARK    6  A    between atoms: C_10  and  C_11
REMARK    7  A    between atoms: N_25  and  C_26
REMARK    8  A    between atoms: C_29  and  O_32
REMARK                            x       y       z     vdW  Elec       q    Type
REMARK                         _______ _______ _______ _____ _____    ______ ____
ROOT
ATOM      1  C   UNL     1       0.800   1.092  -1.897  0.00  0.00    +0.162 A 
ATOM      2  C   UNL     1       2.069   0.637  -1.601  0.00  0.00    +0.057 A 
ATOM      3  C   UNL     1       2.232  -0.556  -0.886  0.00  0.00    -0.020 A 
ATOM      4  C   UNL     1       1.105  -1.280  -0.475  0.00  0.00    +0.012 A 
ATOM      5  C   UNL     1      -0.157  -0.818  -0.775  0.00  0.00    +0.050 A 
ATOM      6  C   UNL     1      -0.317   0.365  -1.485  0.00  0.00    +0.162 A 
ENDROOT
BRANCH   3   7
ATOM      7  C   UNL     1       3.578  -1.047  -0.568  0.00  0.00    +0.028 C 
ATOM      8  C   UNL     1       3.734  -2.131   0.234  0.00  0.00    +0.079 C 
ATOM      9  C   UNL     1       4.952  -2.918   0.540  0.00  0.00    +0.276 C 
ATOM     10  O   UNL     1       6.037  -2.640   0.054  0.00  0.00    -0.267 OA
ATOM     11  N   UNL     1       4.800  -3.930   1.364  0.00  0.00    -0.154 NA
ATOM     12  C   UNL     1       3.629  -4.242   1.898  0.00  0.00    +0.156 C 
ATOM     13  S   UNL     1       2.529  -3.006   1.223  0.00  0.00    -0.051 S 
ATOM     14  N   UNL     1       3.333  -5.262   2.764  0.00  0.00    -0.296 N 
ATOM     15  H   UNL     1       2.428  -5.370   3.095  0.00  0.00    +0.154 HD
BRANCH  14  16
ATOM     16  C   UNL     1       4.338  -6.148   3.171  0.00  0.00    +0.033 A 
ATOM     17  C   UNL     1       5.426  -6.393   2.343  0.00  0.00    +0.027 A 
ATOM     18  C   UNL     1       6.419  -7.263   2.747  0.00  0.00    +0.047 A 
ATOM     19  C   UNL     1       6.325  -7.901   3.975  0.00  0.00    +0.117 A 
ATOM     20  C   UNL     1       5.236  -7.660   4.801  0.00  0.00    +0.047 A 
ATOM     21  C   UNL     1       4.245  -6.786   4.401  0.00  0.00    +0.027 A 
BRANCH  19  22
ATOM     22  O   UNL     1       7.300  -8.762   4.370  0.00  0.00    -0.507 OA
ATOM     23  H   UNL     1       7.147  -9.679   4.105  0.00  0.00    +0.292 HD
ENDBRANCH  19  22
ENDBRANCH  14  16
ENDBRANCH   3   7
BRANCH   1  25
ATOM     24  C   UNL     1       1.825   2.943  -2.983  0.00  0.00    +0.277 C 
ATOM     25  O   UNL     1       0.638   2.250  -2.592  0.00  0.00    -0.491 OA
ENDBRANCH   1  25
BRANCH   6  26
ATOM     26  O   UNL     1      -1.564   0.813  -1.783  0.00  0.00    -0.484 OA
BRANCH  26  27
ATOM     27  C   UNL     1      -2.663   0.017  -1.335  0.00  0.00    +0.264 C 
BRANCH  27  28
ATOM     28  C   UNL     1      -3.957   0.665  -1.754  0.00  0.00    -0.010 A 
ATOM     29  C   UNL     1      -4.579   1.572  -0.916  0.00  0.00    +0.010 A 
ATOM     30  C   UNL     1      -5.763   2.171  -1.301  0.00  0.00    +0.039 A 
ATOM     31  C   UNL     1      -6.332   1.856  -2.523  0.00  0.00    +0.123 A 
ATOM     32  C   UNL     1      -5.711   0.944  -3.360  0.00  0.00    +0.039 A 
ATOM     33  C   UNL     1      -4.524   0.350  -2.975  0.00  0.00    +0.010 A 
ATOM     34  F   UNL     1      -7.492   2.437  -2.899  0.00  0.00    -0.205 F 
ENDBRANCH  27  28
ENDBRANCH  26  27
ENDBRANCH   6  26
TORSDOF 7
