REMARK  Name = ZINC12853900
REMARK  7 active torsions:
REMARK  status: ('A' for Active; 'I' for Inactive)
REMARK    1  A    between atoms: C_1  and  N_61
REMARK    2  A    between atoms: C_2  and  C_3
REMARK    3  A    between atoms: C_2  and  N_61
REMARK    4  A    between atoms: C_10  and  C_11
REMARK    5  A    between atoms: C_10  and  N_61
REMARK    6  A    between atoms: N_16  and  S_19
REMARK    7  A    between atoms: S_19  and  C_22
REMARK                            x       y       z     vdW  Elec       q    Type
REMARK                         _______ _______ _______ _____ _____    ______ ____
ROOT
ATOM      1  C   UNL     1      -0.580   3.909  -2.014  0.00  0.00    +0.199 C 
ATOM      2  O   UNL     1      -0.004   3.503  -3.002  0.00  0.00    -0.278 OA
ATOM      3  N   UNL     1      -0.997   3.039  -1.073  0.00  0.00    -0.300 N 
ATOM      4  C   UNL     1      -0.761   1.597  -1.229  0.00  0.00    +0.125 C 
ATOM      5  C   UNL     1      -0.013   1.086   0.008  0.00  0.00    +0.128 C 
ATOM      6  N   UNL     1      -0.707   1.563   1.212  0.00  0.00    -0.174 NA
ATOM      7  C   UNL     1      -0.947   3.005   1.367  0.00  0.00    +0.128 C 
ATOM      8  C   UNL     1      -1.695   3.517   0.130  0.00  0.00    +0.125 C 
ENDROOT
BRANCH   6   9
ATOM      9  S   UNL     1      -1.216   0.495   2.371  0.00  0.00    +0.061 S 
ATOM     10  O   UNL     1      -2.282   1.127   3.066  0.00  0.00    -0.153 OA
ATOM     11  O   UNL     1      -1.367  -0.762   1.726  0.00  0.00    -0.153 OA
BRANCH   9  12
ATOM     12  C   UNL     1       0.102   0.313   3.526  0.00  0.00    +0.109 A 
ATOM     13  C   UNL     1       1.054  -0.671   3.336  0.00  0.00    +0.032 A 
ATOM     14  C   UNL     1       2.094  -0.817   4.237  0.00  0.00    +0.051 A 
ATOM     15  C   UNL     1       2.172   0.021   5.336  0.00  0.00    +0.162 A 
ATOM     16  C   UNL     1       1.213   1.006   5.530  0.00  0.00    +0.164 A 
ATOM     17  C   UNL     1       0.176   1.152   4.624  0.00  0.00    +0.078 A 
ATOM     18  O   UNL     1       1.300   1.827   6.616  0.00  0.00    -0.488 OA
ATOM     19  C   UNL     1       1.075   1.210   7.885  0.00  0.00    +0.232 C 
ATOM     20  C   UNL     1       2.351   0.569   8.408  0.00  0.00    +0.082 C 
ATOM     21  C   UNL     1       2.820  -0.583   7.533  0.00  0.00    +0.232 C 
ATOM     22  O   UNL     1       3.190  -0.114   6.234  0.00  0.00    -0.488 OA
ENDBRANCH   9  12
ENDBRANCH   6   9
BRANCH   1  23
ATOM     23  C   UNL     1      -0.829   5.385  -1.840  0.00  0.00    +0.019 C 
BRANCH  23  25
ATOM     24  C   UNL     1      -1.014   5.778  -4.222  0.00  0.00    -0.095 C 
ATOM     25  N   UNL     1      -0.255   6.105  -2.997  0.00  0.00    +0.386 N 
ATOM     26  H   UNL     1       0.721   5.812  -3.121  0.00  0.00    -0.081 HD
BRANCH  25  27
ATOM     27  C   UNL     1      -0.292   7.562  -2.753  0.00  0.00    -0.040 C 
BRANCH  27  28
ATOM     28  C   UNL     1       0.491   8.256  -3.838  0.00  0.00    -0.029 A 
ATOM     29  C   UNL     1       1.791   8.663  -3.599  0.00  0.00    +0.004 A 
ATOM     30  C   UNL     1       2.512   9.294  -4.596  0.00  0.00    +0.000 A 
ATOM     31  C   UNL     1       1.930   9.529  -5.828  0.00  0.00    +0.003 A 
ATOM     32  C   UNL     1       0.629   9.129  -6.066  0.00  0.00    +0.038 A 
ATOM     33  C   UNL     1      -0.092   8.491  -5.071  0.00  0.00    +0.125 A 
ATOM     34  F   UNL     1      -1.364   8.100  -5.303  0.00  0.00    -0.205 F 
ENDBRANCH  27  28
ENDBRANCH  25  27
ENDBRANCH  23  25
ENDBRANCH   1  23
TORSDOF 6
