REMARK  Name = ZINC22283672
REMARK  6 active torsions:
REMARK  status: ('A' for Active; 'I' for Inactive)
REMARK    1  A    between atoms: C_8  and  C_10
REMARK    2  A    between atoms: C_13  and  N_16
REMARK    3  A    between atoms: C_17  and  C_19
REMARK    4  A    between atoms: C_19  and  C_20
REMARK    5  A    between atoms: C_20  and  C_21
REMARK    6  A    between atoms: C_21  and  C_22
REMARK                            x       y       z     vdW  Elec       q    Type
REMARK                         _______ _______ _______ _____ _____    ______ ____
ROOT
ATOM      1  C   UNL     1      -3.567   3.133   0.164  0.00  0.00    +0.037 A 
ATOM      2  C   UNL     1      -3.594   1.739   0.240  0.00  0.00    +0.015 A 
ATOM      3  C   UNL     1      -2.416   1.025   0.189  0.00  0.00    +0.024 A 
ATOM      4  C   UNL     1      -1.203   1.692   0.060  0.00  0.00    +0.033 A 
ATOM      5  C   UNL     1      -1.173   3.080  -0.011  0.00  0.00    +0.024 A 
ATOM      6  C   UNL     1      -2.347   3.800   0.035  0.00  0.00    +0.015 A 
ENDROOT
BRANCH   1  14
ATOM      7  C   UNL     1      -8.266   6.815   0.324  0.00  0.00    +0.002 A 
ATOM      8  C   UNL     1      -8.987   5.636   0.441  0.00  0.00    +0.004 A 
ATOM      9  C   UNL     1      -8.339   4.418   0.457  0.00  0.00    +0.048 A 
ATOM     10  C   UNL     1      -6.957   4.369   0.356  0.00  0.00    +0.156 A 
ATOM     11  C   UNL     1      -6.223   5.560   0.236  0.00  0.00    +0.110 A 
ATOM     12  C   UNL     1      -6.894   6.786   0.221  0.00  0.00    +0.031 A 
ATOM     13  N   UNL     1      -4.915   5.206   0.156  0.00  0.00    -0.209 NA
ATOM     14  C   UNL     1      -4.828   3.901   0.219  0.00  0.00    +0.228 A 
ATOM     15  O   UNL     1      -6.056   3.362   0.335  0.00  0.00    -0.435 OA
ENDBRANCH   1  14
BRANCH   4  16
ATOM     16  N   UNL     1      -0.011   0.966   0.007  0.00  0.00    -0.285 N 
ATOM     17  C   UNL     1       0.020  -0.234  -0.605  0.00  0.00    +0.217 C 
ATOM     18  O   UNL     1      -1.002  -0.719  -1.042  0.00  0.00    -0.275 OA
ATOM     19  H   UNL     1       0.902   1.373   0.466  0.00  0.00    +0.155 HD
BRANCH  17  20
ATOM     20  C   UNL     1       1.326  -0.974  -0.747  0.00  0.00    +0.096 C 
BRANCH  20  21
ATOM     21  C   UNL     1       1.085  -2.299  -1.474  0.00  0.00    +0.014 C 
BRANCH  21  22
ATOM     22  C   UNL     1       2.410  -3.049  -1.618  0.00  0.00    +0.043 C 
BRANCH  22  23
ATOM     23  C   UNL     1       2.173  -4.354  -2.334  0.00  0.00    -0.010 A 
ATOM     24  C   UNL     1       2.202  -4.616  -3.663  0.00  0.00    +0.011 A 
ATOM     25  C   UNL     1       1.954  -5.905  -4.098  0.00  0.00    +0.008 A 
ATOM     26  C   UNL     1       1.679  -6.866  -3.183  0.00  0.00    +0.045 A 
ATOM     27  S   UNL     1       1.773  -5.954  -1.651  0.00  0.00    -0.102 S 
ENDBRANCH  22  23
ENDBRANCH  21  22
ENDBRANCH  20  21
ENDBRANCH  17  20
ENDBRANCH   4  16
TORSDOF 6
