REMARK  Name = ZINC50891038
REMARK  11 active torsions:
REMARK  status: ('A' for Active; 'I' for Inactive)
REMARK    1  A    between atoms: C_1  and  C_2
REMARK    2  A    between atoms: C_2  and  C_3
REMARK    3  A    between atoms: C_3  and  C_4
REMARK    4  A    between atoms: C_4  and  C_5
REMARK    5  A    between atoms: C_5  and  C_7
REMARK    6  A    between atoms: C_5  and  N_8
REMARK    7  A    between atoms: N_8  and  S_9
REMARK    8  A    between atoms: S_9  and  C_12
REMARK    9  A    between atoms: C_15  and  C_19
REMARK   10  A    between atoms: C_20  and  C_21
REMARK   11  A    between atoms: C_21  and  O_22
REMARK                            x       y       z     vdW  Elec       q    Type
REMARK                         _______ _______ _______ _____ _____    ______ ____
ROOT
ATOM      1  C   UNL     1       2.821  -0.207   4.359  0.00  0.00    +0.124 A 
ATOM      2  C   UNL     1       2.268  -0.218   5.627  0.00  0.00    +0.031 A 
ATOM      3  C   UNL     1       1.587   0.886   6.096  0.00  0.00    +0.019 A 
ATOM      4  C   UNL     1       1.455   2.016   5.288  0.00  0.00    +0.026 A 
ATOM      5  C   UNL     1       2.015   2.022   4.011  0.00  0.00    +0.038 A 
ATOM      6  C   UNL     1       2.699   0.913   3.555  0.00  0.00    +0.068 A 
ATOM      7 CL   UNL     1       3.402   0.920   1.967  0.00  0.00    -0.081 Cl
ENDROOT
BRANCH   1   8
ATOM      8  S   UNL     1       3.689  -1.622   3.768  0.00  0.00    +0.060 S 
ATOM      9  O   UNL     1       3.623  -2.598   4.798  0.00  0.00    -0.153 OA
ATOM     10  O   UNL     1       4.922  -1.151   3.242  0.00  0.00    -0.153 OA
BRANCH   8  11
ATOM     11  N   UNL     1       2.829  -2.225   2.488  0.00  0.00    -0.187 NA
ATOM     12  H   UNL     1       3.210  -2.209   1.597  0.00  0.00    +0.148 HD
BRANCH  11  13
ATOM     13  C   UNL     1       1.491  -2.783   2.703  0.00  0.00    +0.073 C 
ATOM     14  C   UNL     1       1.595  -4.298   2.889  0.00  0.00    +0.025 C 
BRANCH  13  15
ATOM     15  C   UNL     1       0.610  -2.477   1.490  0.00  0.00    +0.020 C 
BRANCH  15  16
ATOM     16  C   UNL     1       0.405  -0.965   1.377  0.00  0.00    +0.001 C 
BRANCH  16  18
ATOM     17  C   UNL     1      -0.682   0.853   0.052  0.00  0.00    +0.004 C 
ATOM     18  C   UNL     1      -0.476  -0.659   0.165  0.00  0.00    -0.003 C 
ENDBRANCH  16  18
ENDBRANCH  15  16
ENDBRANCH  13  15
ENDBRANCH  11  13
ENDBRANCH   8  11
ENDBRANCH   1   8
BRANCH   4  19
ATOM     19  C   UNL     1       0.749   3.165   5.770  0.00  0.00    -0.064 C 
ATOM     20  C   UNL     1       0.170   4.107   6.164  0.00  0.00    -0.069 C 
BRANCH  20  21
ATOM     21  C   UNL     1      -0.556   5.288   6.659  0.00  0.00    +0.244 C 
BRANCH  21  22
ATOM     22  O   UNL     1      -0.552   6.305   5.654  0.00  0.00    -0.383 OA
ATOM     23  H   UNL     1      -1.014   7.115   5.912  0.00  0.00    +0.211 HD
ENDBRANCH  21  22
ENDBRANCH  20  21
ENDBRANCH   4  19
TORSDOF 9
