REMARK  Name = ZINC39518267
REMARK  8 active torsions:
REMARK  status: ('A' for Active; 'I' for Inactive)
REMARK    1  A    between atoms: C_5  and  C_6
REMARK    2  A    between atoms: C_6  and  N_7
REMARK    3  A    between atoms: N_10  and  C_17
REMARK    4  A    between atoms: C_12  and  C_14
REMARK    5  A    between atoms: C_14  and  C_15
REMARK    6  A    between atoms: C_15  and  O_16
REMARK    7  A    between atoms: C_17  and  C_18
REMARK    8  A    between atoms: C_23  and  C_24
REMARK                            x       y       z     vdW  Elec       q    Type
REMARK                         _______ _______ _______ _____ _____    ______ ____
ROOT
ATOM      1  N   UNL     1      -1.769  -0.539  -1.775  0.00  0.00    +0.386 N 
ATOM      2  C   UNL     1      -0.753  -1.538  -2.132  0.00  0.00    -0.062 C 
ATOM      3  C   UNL     1      -1.032  -2.068  -3.540  0.00  0.00    +0.066 C 
ATOM      4  N   UNL     1      -2.371  -2.672  -3.577  0.00  0.00    -0.305 NA
ATOM      5  C   UNL     1      -3.397  -1.691  -3.197  0.00  0.00    +0.069 C 
ATOM      6  C   UNL     1      -3.099  -1.163  -1.792  0.00  0.00    -0.052 C 
ATOM      7  H   UNL     1      -1.745   0.218  -2.441  0.00  0.00    -0.081 HD
ENDROOT
BRANCH   1   8
ATOM      8  C   UNL     1      -1.491  -0.017  -0.430  0.00  0.00    -0.042 C 
BRANCH   8  13
ATOM      9  C   UNL     1      -0.161   2.091  -0.720  0.00  0.00    +0.009 A 
ATOM     10  C   UNL     1       1.029   2.739  -0.724  0.00  0.00    +0.045 A 
ATOM     11  S   UNL     1       2.168   1.422  -0.330  0.00  0.00    -0.105 S 
ATOM     12  C   UNL     1       0.981   0.097  -0.186  0.00  0.00    +0.047 A 
ATOM     13  C   UNL     1      -0.186   0.737  -0.444  0.00  0.00    -0.057 A 
ENDBRANCH   8  13
ENDBRANCH   1   8
BRANCH   6  14
ATOM     14  C   UNL     1      -4.154  -0.126  -1.402  0.00  0.00    +0.014 C 
BRANCH  14  15
ATOM     15  C   UNL     1      -5.530  -0.793  -1.349  0.00  0.00    +0.154 C 
BRANCH  15  16
ATOM     16  O   UNL     1      -6.502   0.154  -0.901  0.00  0.00    -0.395 OA
ATOM     17  H   UNL     1      -7.399  -0.201  -0.844  0.00  0.00    +0.209 HD
ENDBRANCH  15  16
ENDBRANCH  14  15
ENDBRANCH   6  14
BRANCH   4  18
ATOM     18  C   UNL     1      -2.655  -3.245  -4.899  0.00  0.00    +0.099 C 
BRANCH  18  19
ATOM     19  C   UNL     1      -3.850  -4.194  -4.799  0.00  0.00    +0.092 C 
ATOM     20  C   UNL     1      -3.465  -5.463  -4.065  0.00  0.00    +0.118 C 
ATOM     21  N   UNL     1      -3.639  -6.427  -4.908  0.00  0.00    -0.161 NA
ATOM     22  N   UNL     1      -4.100  -5.977  -6.141  0.00  0.00    -0.158 NA
ATOM     23  C   UNL     1      -4.256  -4.691  -6.173  0.00  0.00    +0.054 C 
BRANCH  23  24
ATOM     24  C   UNL     1      -4.738  -3.859  -7.333  0.00  0.00    +0.036 C 
ATOM     25  C   UNL     1      -6.077  -3.211  -6.974  0.00  0.00    +0.009 C 
ATOM     26  C   UNL     1      -6.566  -2.366  -8.152  0.00  0.00    +0.001 C 
ATOM     27  C   UNL     1      -6.745  -3.260  -9.381  0.00  0.00    +0.000 C 
ATOM     28  C   UNL     1      -5.407  -3.908  -9.740  0.00  0.00    +0.001 C 
ATOM     29  C   UNL     1      -4.917  -4.753  -8.562  0.00  0.00    +0.009 C 
ENDBRANCH  23  24
ENDBRANCH  18  19
ENDBRANCH   4  18
TORSDOF 8
