REMARK  Name = ZINC05119876
REMARK  3 active torsions:
REMARK  status: ('A' for Active; 'I' for Inactive)
REMARK    1  A    between atoms: C_4  and  O_7
REMARK    2  A    between atoms: O_7  and  C_8
REMARK    3  A    between atoms: C_10  and  C_15
REMARK                            x       y       z     vdW  Elec       q    Type
REMARK                         _______ _______ _______ _____ _____    ______ ____
ROOT
ATOM      1  C   UNL     1       2.447   0.989  -0.074  0.00  0.00    +0.136 C 
ATOM      2  C   UNL     1       2.851   0.733  -1.506  0.00  0.00    +0.036 C 
ATOM      3  C   UNL     1       3.882   1.298  -2.150  0.00  0.00    +0.017 C 
ATOM      4  C   UNL     1       4.184   0.935  -3.594  0.00  0.00    +0.051 C 
ATOM      5  C   UNL     1       2.889   0.597  -4.330  0.00  0.00    +0.014 C 
ATOM      6  C   UNL     1       2.235  -0.585  -3.606  0.00  0.00    +0.080 C 
ATOM      7  C   UNL     1       2.021  -0.205  -2.171  0.00  0.00    +0.163 C 
ATOM      8  O   UNL     1       1.105  -0.719  -1.559  0.00  0.00    -0.292 OA
ATOM      9  N   UNL     1       4.732   2.201  -1.599  0.00  0.00    -0.316 N 
ATOM     10  C   UNL     1       4.346   3.302  -0.843  0.00  0.00    +0.052 A 
ATOM     11  C   UNL     1       4.616   4.601  -1.237  0.00  0.00    +0.025 A 
ATOM     12  C   UNL     1       4.310   5.646  -0.382  0.00  0.00    +0.002 A 
ATOM     13  C   UNL     1       3.739   5.394   0.852  0.00  0.00    +0.002 A 
ATOM     14  C   UNL     1       3.447   4.097   1.237  0.00  0.00    +0.025 A 
ATOM     15  C   UNL     1       3.736   3.050   0.377  0.00  0.00    +0.049 A 
ATOM     16  N   UNL     1       3.419   1.732   0.700  0.00  0.00    -0.331 N 
ATOM     17  H   UNL     1       5.682   2.068  -1.743  0.00  0.00    +0.152 HD
ATOM     18  H   UNL     1       3.856   1.306   1.453  0.00  0.00    +0.147 HD
ENDROOT
BRANCH   1  21
ATOM     19  C   UNL     1      -1.191   1.879   0.427  0.00  0.00    +0.164 A 
ATOM     20  C   UNL     1       0.004   1.175   0.432  0.00  0.00    +0.055 A 
ATOM     21  C   UNL     1       1.150   1.757  -0.074  0.00  0.00    -0.019 A 
ATOM     22  C   UNL     1       1.109   3.043  -0.581  0.00  0.00    +0.009 A 
ATOM     23  C   UNL     1      -0.079   3.751  -0.583  0.00  0.00    +0.042 A 
ATOM     24  C   UNL     1      -1.230   3.173  -0.078  0.00  0.00    +0.165 A 
ATOM     25  F   UNL     1      -2.390   3.864  -0.080  0.00  0.00    -0.202 F 
BRANCH  19  26
ATOM     26  O   UNL     1      -2.321   1.307   0.920  0.00  0.00    -0.453 OA
BRANCH  26  30
ATOM     27  C   UNL     1      -4.876  -0.539  -1.741  0.00  0.00    +0.000 A 
ATOM     28  C   UNL     1      -5.235  -0.418  -0.411  0.00  0.00    +0.004 A 
ATOM     29  C   UNL     1      -4.381   0.199   0.482  0.00  0.00    +0.046 A 
ATOM     30  C   UNL     1      -3.163   0.699   0.044  0.00  0.00    +0.129 A 
ATOM     31  C   UNL     1      -2.808   0.581  -1.293  0.00  0.00    +0.046 A 
ATOM     32  C   UNL     1      -3.663  -0.043  -2.181  0.00  0.00    +0.004 A 
ENDBRANCH  26  30
ENDBRANCH  19  26
ENDBRANCH   1  21
TORSDOF 3
