REMARK  Name = ZINC18051047
REMARK  11 active torsions:
REMARK  status: ('A' for Active; 'I' for Inactive)
REMARK    1  A    between atoms: C_1  and  C_2
REMARK    2  A    between atoms: C_2  and  C_4
REMARK    3  A    between atoms: C_2  and  O_27
REMARK    4  A    between atoms: N_6  and  N_7
REMARK    5  A    between atoms: C_8  and  C_10
REMARK    6  A    between atoms: C_10  and  N_11
REMARK    7  A    between atoms: C_14  and  C_18
REMARK    8  A    between atoms: C_14  and  C_19
REMARK    9  A    between atoms: C_22  and  O_25
REMARK   10  A    between atoms: O_25  and  C_26
REMARK   11  A    between atoms: O_27  and  C_28
REMARK                            x       y       z     vdW  Elec       q    Type
REMARK                         _______ _______ _______ _____ _____    ______ ____
ROOT
ATOM      1  N   UNL     1       6.702   0.999  -1.954  0.00  0.00    -0.233 N 
ATOM      2  C   UNL     1       7.908   1.549  -2.198  0.00  0.00    +0.247 C 
ATOM      3  O   UNL     1       8.172   2.649  -1.759  0.00  0.00    -0.273 OA
ATOM      4  H   UNL     1       6.491   0.119  -2.304  0.00  0.00    +0.173 HD
ENDROOT
BRANCH   1   7
ATOM      5  C   UNL     1       4.549   1.146  -0.949  0.00  0.00    +0.270 C 
ATOM      6  O   UNL     1       4.284   0.046  -1.388  0.00  0.00    -0.270 OA
ATOM      7  N   UNL     1       5.754   1.696  -1.193  0.00  0.00    -0.231 N 
ATOM      8  H   UNL     1       5.966   2.575  -0.843  0.00  0.00    +0.173 HD
BRANCH   5  10
ATOM      9  C   UNL     1       4.097   2.174   1.262  0.00  0.00    +0.062 C 
ATOM     10  C   UNL     1       3.529   1.896  -0.132  0.00  0.00    +0.257 C 
BRANCH  10  11
ATOM     11  O   UNL     1       2.341   1.110  -0.013  0.00  0.00    -0.480 OA
BRANCH  11  12
ATOM     12  C   UNL     1       1.181   1.778   0.218  0.00  0.00    +0.122 A 
ATOM     13  C   UNL     1       1.211   3.158   0.442  0.00  0.00    +0.046 A 
ATOM     14  C   UNL     1       0.067   3.853   0.677  0.00  0.00    +0.012 A 
ATOM     15  C   UNL     1      -1.167   3.179   0.698  0.00  0.00    -0.018 A 
ATOM     16  C   UNL     1      -2.369   3.866   0.939  0.00  0.00    +0.008 A 
ATOM     17  C   UNL     1      -3.546   3.182   0.951  0.00  0.00    +0.001 A 
ATOM     18  C   UNL     1      -3.579   1.807   0.728  0.00  0.00    +0.001 A 
ATOM     19  C   UNL     1      -2.435   1.108   0.491  0.00  0.00    +0.008 A 
ATOM     20  C   UNL     1      -1.201   1.781   0.466  0.00  0.00    -0.014 A 
ATOM     21  C   UNL     1      -0.000   1.092   0.231  0.00  0.00    +0.054 A 
ENDBRANCH  11  12
ENDBRANCH  10  11
ENDBRANCH   5  10
ENDBRANCH   1   7
BRANCH   2  22
ATOM     22  C   UNL     1       8.927   0.799  -3.015  0.00  0.00    +0.215 C 
BRANCH  22  23
ATOM     23  N   UNL     1      10.145   1.604  -3.136  0.00  0.00    -0.215 N 
ATOM     24  C   UNL     1      11.176   1.554  -2.270  0.00  0.00    +0.251 C 
ATOM     25  O   UNL     1      11.266   0.860  -1.280  0.00  0.00    -0.272 OA
ATOM     26  C   UNL     1      12.198   2.545  -2.790  0.00  0.00    +0.135 C 
ATOM     27  N   UNL     1      11.565   3.090  -4.003  0.00  0.00    -0.281 N 
ATOM     28  C   UNL     1      10.373   2.477  -4.124  0.00  0.00    +0.310 C 
ATOM     29  O   UNL     1       9.591   2.695  -5.028  0.00  0.00    -0.252 OA
ATOM     30  C   UNL     1      12.445   3.652  -1.763  0.00  0.00    +0.047 C 
ATOM     31  H   UNL     1      11.936   3.758  -4.600  0.00  0.00    +0.152 HD
BRANCH  26  32
ATOM     32  C   UNL     1      13.488   1.845  -3.133  0.00  0.00    -0.015 A 
ATOM     33  C   UNL     1      13.865   0.712  -2.437  0.00  0.00    +0.010 A 
ATOM     34  C   UNL     1      15.044   0.066  -2.754  0.00  0.00    +0.046 A 
ATOM     35  C   UNL     1      15.855   0.561  -3.764  0.00  0.00    +0.120 A 
ATOM     36  C   UNL     1      15.477   1.702  -4.458  0.00  0.00    +0.046 A 
ATOM     37  C   UNL     1      14.295   2.341  -4.141  0.00  0.00    +0.010 A 
BRANCH  35  38
ATOM     38  O   UNL     1      17.018  -0.070  -4.074  0.00  0.00    -0.495 OA
ATOM     39  C   UNL     1      17.344  -1.238  -3.319  0.00  0.00    +0.277 C 
ENDBRANCH  35  38
ENDBRANCH  26  32
ENDBRANCH  22  23
ENDBRANCH   2  22
TORSDOF 8
