REMARK  Name = ZINC40422191
REMARK  3 active torsions:
REMARK  status: ('A' for Active; 'I' for Inactive)
REMARK    1  A    between atoms: C_3  and  N_11
REMARK    2  A    between atoms: C_6  and  N_7
REMARK    3  A    between atoms: C_12  and  C_14
REMARK                            x       y       z     vdW  Elec       q    Type
REMARK                         _______ _______ _______ _____ _____    ______ ____
ROOT
ATOM      1  N   UNL     1       3.583   2.125  -0.021  0.00  0.00    -0.280 N 
ATOM      2  C   UNL     1       3.567   3.470  -0.116  0.00  0.00    +0.251 C 
ATOM      3  O   UNL     1       2.509   4.067  -0.103  0.00  0.00    -0.270 OA
ATOM      4  H   UNL     1       4.428   1.654   0.049  0.00  0.00    +0.155 HD
ENDROOT
BRANCH   2   5
ATOM      5  C   UNL     1       4.836   4.216  -0.236  0.00  0.00    +0.074 A 
ATOM      6  C   UNL     1       6.053   3.533  -0.257  0.00  0.00    +0.036 A 
ATOM      7  C   UNL     1       7.235   4.237  -0.369  0.00  0.00    +0.042 A 
ATOM      8  C   UNL     1       7.216   5.619  -0.461  0.00  0.00    +0.023 A 
ATOM      9  C   UNL     1       6.016   6.304  -0.440  0.00  0.00    +0.040 A 
ATOM     10  C   UNL     1       4.823   5.611  -0.335  0.00  0.00    +0.136 A 
ATOM     11  F   UNL     1       3.650   6.281  -0.321  0.00  0.00    -0.205 F 
ATOM     12 CL   UNL     1       8.749   3.388  -0.395  0.00  0.00    -0.084 Cl
ENDBRANCH   2   5
BRANCH   1  15
ATOM     13  C   UNL     1       0.065   1.242  -0.621  0.00  0.00    +0.034 A 
ATOM     14  C   UNL     1       1.250   1.952  -0.619  0.00  0.00    +0.027 A 
ATOM     15  C   UNL     1       2.381   1.409  -0.024  0.00  0.00    +0.052 A 
ATOM     16  C   UNL     1       2.317   0.153   0.567  0.00  0.00    +0.064 A 
ATOM     17  C   UNL     1       1.128  -0.551   0.562  0.00  0.00    +0.054 A 
ATOM     18  C   UNL     1       0.004  -0.007  -0.031  0.00  0.00    +0.128 A 
ATOM     19 CL   UNL     1       3.729  -0.530   1.312  0.00  0.00    -0.082 Cl
BRANCH  18  20
ATOM     20  N   UNL     1      -1.268  -0.764  -0.035  0.00  0.00    +0.056 N 
ATOM     21  O   UNL     1      -2.252  -0.289  -0.553  0.00  0.00    -0.126 OA
ATOM     22  O   UNL     1      -1.323  -1.856   0.480  0.00  0.00    -0.126 OA
ENDBRANCH  18  20
ENDBRANCH   1  15
TORSDOF 3
