REMARK  Name = ZINC21559473
REMARK  12 active torsions:
REMARK  status: ('A' for Active; 'I' for Inactive)
REMARK    1  A    between atoms: C_1  and  C_2
REMARK    2  A    between atoms: C_3  and  C_4
REMARK    3  A    between atoms: C_7  and  O_12
REMARK    4  A    between atoms: C_8  and  O_10
REMARK    5  A    between atoms: O_10  and  C_11
REMARK    6  A    between atoms: O_12  and  C_13
REMARK    7  A    between atoms: C_13  and  C_14
REMARK    8  A    between atoms: C_14  and  C_16
REMARK    9  A    between atoms: C_14  and  O_35
REMARK   10  A    between atoms: C_16  and  N_17
REMARK   11  A    between atoms: C_20  and  C_24
REMARK   12  A    between atoms: C_20  and  C_25
REMARK                            x       y       z     vdW  Elec       q    Type
REMARK                         _______ _______ _______ _____ _____    ______ ____
ROOT
ATOM      1  N   UNL     1      -4.395   1.656   7.501  0.00  0.00    -0.221 N 
ATOM      2  C   UNL     1      -5.585   1.039   7.359  0.00  0.00    +0.251 C 
ATOM      3  O   UNL     1      -6.417   1.241   6.501  0.00  0.00    -0.272 OA
ATOM      4  C   UNL     1      -5.666   0.040   8.496  0.00  0.00    +0.135 C 
ATOM      5  N   UNL     1      -4.396   0.233   9.218  0.00  0.00    -0.281 N 
ATOM      6  C   UNL     1      -3.723   1.195   8.562  0.00  0.00    +0.310 C 
ATOM      7  O   UNL     1      -2.627   1.601   8.896  0.00  0.00    -0.252 OA
ATOM      8  C   UNL     1      -5.767  -1.388   7.957  0.00  0.00    +0.047 C 
ATOM      9  H   UNL     1      -4.174  -0.369  10.111  0.00  0.00    +0.152 HD
ENDROOT
BRANCH   4  10
ATOM     10  C   UNL     1      -6.837   0.354   9.391  0.00  0.00    -0.012 A 
ATOM     11  C   UNL     1      -7.999   0.871   8.850  0.00  0.00    +0.010 A 
ATOM     12  C   UNL     1      -9.076   1.161   9.667  0.00  0.00    +0.050 A 
ATOM     13  C   UNL     1      -8.992   0.934  11.032  0.00  0.00    +0.162 A 
ATOM     14  C   UNL     1      -7.824   0.413  11.576  0.00  0.00    +0.162 A 
ATOM     15  C   UNL     1      -6.749   0.120  10.750  0.00  0.00    +0.055 A 
ATOM     16  O   UNL     1      -7.722   0.179  12.913  0.00  0.00    -0.485 OA
ATOM     17  C   UNL     1      -8.681   0.828  13.755  0.00  0.00    +0.270 C 
ATOM     18  C   UNL     1     -10.071   0.642  13.131  0.00  0.00    +0.270 C 
ATOM     19  O   UNL     1     -10.059   1.229  11.825  0.00  0.00    -0.485 OA
ENDBRANCH   4  10
BRANCH   1  20
ATOM     20  C   UNL     1      -3.901   2.706   6.606  0.00  0.00    +0.152 C 
BRANCH  20  21
ATOM     21  C   UNL     1      -3.105   2.070   5.465  0.00  0.00    +0.170 C 
BRANCH  21  22
ATOM     22  O   UNL     1      -1.998   1.343   6.002  0.00  0.00    -0.387 OA
ATOM     23  H   UNL     1      -2.174   0.510   6.699  0.00  0.00    +0.210 HD
ENDBRANCH  21  22
BRANCH  21  24
ATOM     24  C   UNL     1      -2.589   3.167   4.530  0.00  0.00    +0.262 C 
BRANCH  24  25
ATOM     25  O   UNL     1      -1.946   2.569   3.403  0.00  0.00    -0.486 OA
BRANCH  25  29
ATOM     26  C   UNL     1      -0.370   5.128   0.566  0.00  0.00    -0.022 A 
ATOM     27  C   UNL     1      -1.013   5.641   1.694  0.00  0.00    +0.012 A 
ATOM     28  C   UNL     1      -1.538   4.783   2.638  0.00  0.00    +0.050 A 
ATOM     29  C   UNL     1      -1.427   3.410   2.470  0.00  0.00    +0.162 A 
ATOM     30  C   UNL     1      -0.787   2.893   1.346  0.00  0.00    +0.162 A 
ATOM     31  C   UNL     1      -0.255   3.748   0.399  0.00  0.00    +0.057 A 
BRANCH  26  34
ATOM     32  C   UNL     1       0.661   8.294  -1.316  0.00  0.00    +0.035 C 
ATOM     33  C   UNL     1       0.087   7.358  -0.284  0.00  0.00    -0.030 C 
ATOM     34  C   UNL     1       0.193   6.046  -0.446  0.00  0.00    +0.003 C 
ENDBRANCH  26  34
BRANCH  30  35
ATOM     35  O   UNL     1      -0.682   1.547   1.184  0.00  0.00    -0.491 OA
ATOM     36  C   UNL     1      -0.013   1.086   0.008  0.00  0.00    +0.277 C 
ENDBRANCH  30  35
ENDBRANCH  25  29
ENDBRANCH  24  25
ENDBRANCH  21  24
ENDBRANCH  20  21
ENDBRANCH   1  20
TORSDOF 9
