REMARK  Name = ZINC12328715
REMARK  8 active torsions:
REMARK  status: ('A' for Active; 'I' for Inactive)
REMARK    1  A    between atoms: C_1  and  O_2
REMARK    2  A    between atoms: O_2  and  C_3
REMARK    3  A    between atoms: C_9  and  C_16
REMARK    4  A    between atoms: N_11  and  C_12
REMARK    5  A    between atoms: C_12  and  C_13
REMARK    6  A    between atoms: C_16  and  N_54
REMARK    7  A    between atoms: C_17  and  C_22
REMARK    8  A    between atoms: C_17  and  N_54
REMARK                            x       y       z     vdW  Elec       q    Type
REMARK                         _______ _______ _______ _____ _____    ______ ____
ROOT
ATOM      1  C   UNL     1       3.071   2.344  -1.873  0.00  0.00    +0.121 A 
ATOM      2  C   UNL     1       3.306   0.985  -2.065  0.00  0.00    +0.047 A 
ATOM      3  C   UNL     1       2.311   0.061  -1.836  0.00  0.00    +0.030 A 
ATOM      4  C   UNL     1       1.056   0.483  -1.408  0.00  0.00    +0.050 A 
ATOM      5  C   UNL     1       0.816   1.855  -1.213  0.00  0.00    +0.005 A 
ATOM      6  C   UNL     1       1.833   2.782  -1.448  0.00  0.00    +0.055 A 
ATOM      7  C   UNL     1      -0.575   1.963  -0.765  0.00  0.00    -0.039 A 
ATOM      8  C   UNL     1      -1.073   0.717  -0.724  0.00  0.00    +0.089 A 
ATOM      9  N   UNL     1      -0.113  -0.182  -1.102  0.00  0.00    -0.338 N 
ENDROOT
BRANCH   1  11
ATOM     10  C   UNL     1       5.322   2.721  -2.541  0.00  0.00    +0.277 C 
ATOM     11  O   UNL     1       4.065   3.242  -2.104  0.00  0.00    -0.495 OA
ENDBRANCH   1  11
BRANCH   9  12
ATOM     12  C   UNL     1      -0.298  -1.633  -1.172  0.00  0.00    +0.217 C 
BRANCH  12  13
ATOM     13  C   UNL     1       0.175  -2.262   0.113  0.00  0.00    +0.230 C 
ATOM     14  O   UNL     1       0.623  -1.567   1.000  0.00  0.00    -0.274 OA
ATOM     15  N   UNL     1       0.100  -3.598   0.277  0.00  0.00    -0.328 N 
ATOM     16  H   UNL     1      -0.259  -4.154  -0.432  0.00  0.00    +0.145 HD
ATOM     17  H   UNL     1       0.404  -4.003   1.104  0.00  0.00    +0.145 HD
ENDBRANCH  12  13
ENDBRANCH   9  12
BRANCH   7  18
ATOM     18  C   UNL     1      -1.310   3.233  -0.422  0.00  0.00    -0.043 C 
BRANCH  18  19
ATOM     19  N   UNL     1      -1.758   3.883  -1.668  0.00  0.00    +0.388 N 
ATOM     20  H   UNL     1      -2.317   3.218  -2.215  0.00  0.00    -0.084 HD
ATOM     21  H   UNL     1      -0.938   4.171  -2.214  0.00  0.00    -0.084 HD
BRANCH  19  22
ATOM     22  C   UNL     1      -2.579   5.069  -1.360  0.00  0.00    -0.039 C 
ATOM     23  C   UNL     1      -3.860   4.650  -0.608  0.00  0.00    -0.008 C 
ATOM     24  C   UNL     1      -4.954   5.593  -1.169  0.00  0.00    -0.001 C 
ATOM     25  C   UNL     1      -4.577   5.702  -2.667  0.00  0.00    -0.001 C 
ATOM     26  C   UNL     1      -3.035   5.738  -2.668  0.00  0.00    -0.008 C 
BRANCH  22  27
ATOM     27  C   UNL     1      -1.789   6.047  -0.528  0.00  0.00    -0.023 A 
ATOM     28  C   UNL     1      -2.300   6.504   0.672  0.00  0.00    +0.005 A 
ATOM     29  C   UNL     1      -1.573   7.396   1.438  0.00  0.00    +0.000 A 
ATOM     30  C   UNL     1      -0.340   7.841   0.999  0.00  0.00    +0.003 A 
ATOM     31  C   UNL     1       0.170   7.390  -0.204  0.00  0.00    +0.038 A 
ATOM     32  C   UNL     1      -0.555   6.492  -0.969  0.00  0.00    +0.125 A 
ATOM     33  F   UNL     1      -0.058   6.050  -2.145  0.00  0.00    -0.205 F 
ENDBRANCH  22  27
ENDBRANCH  19  22
ENDBRANCH  18  19
ENDBRANCH   7  18
TORSDOF 7
