REMARK  Name = ZINC39596962
REMARK  10 active torsions:
REMARK  status: ('A' for Active; 'I' for Inactive)
REMARK    1  A    between atoms: C_1  and  C_2
REMARK    2  A    between atoms: C_2  and  C_3
REMARK    3  A    between atoms: C_3  and  C_4
REMARK    4  A    between atoms: C_4  and  C_5
REMARK    5  A    between atoms: C_5  and  C_7
REMARK    6  A    between atoms: C_5  and  C_8
REMARK    7  A    between atoms: C_12  and  C_21
REMARK    8  A    between atoms: N_23  and  C_24
REMARK    9  A    between atoms: C_24  and  C_26
REMARK   10  A    between atoms: C_24  and  C_27
REMARK                            x       y       z     vdW  Elec       q    Type
REMARK                         _______ _______ _______ _____ _____    ______ ____
ROOT
ATOM      1  C   UNL     1       1.889  -3.924   2.199  0.00  0.00    +0.218 C 
ATOM      2  O   UNL     1       1.620  -4.568   1.207  0.00  0.00    -0.275 OA
ATOM      3  N   UNL     1       2.333  -4.548   3.308  0.00  0.00    -0.300 N 
ATOM      4  C   UNL     1       2.602  -3.954   4.639  0.00  0.00    +0.121 C 
ATOM      5  C   UNL     1       2.098  -5.012   5.647  0.00  0.00    +0.100 C 
ATOM      6  C   UNL     1       2.143  -6.342   4.876  0.00  0.00    -0.004 C 
ATOM      7  C   UNL     1       2.658  -5.986   3.474  0.00  0.00    +0.115 C 
ATOM      8  C   UNL     1       0.745  -6.945   4.781  0.00  0.00    -0.010 C 
ATOM      9  C   UNL     1       0.824  -8.294   4.060  0.00  0.00    -0.082 C 
ATOM     10  N   UNL     1       1.718  -9.194   4.799  0.00  0.00    +0.379 N 
ATOM     11  C   UNL     1       3.081  -8.651   4.806  0.00  0.00    -0.082 C 
ATOM     12  C   UNL     1       3.098  -7.317   5.558  0.00  0.00    -0.010 C 
ATOM     13  H   UNL     1       1.389  -9.287   5.748  0.00  0.00    -0.086 HD
ATOM     14  H   UNL     1       1.721 -10.100   4.356  0.00  0.00    -0.086 HD
ENDROOT
BRANCH   5  15
ATOM     15  C   UNL     1       0.688  -4.699   6.076  0.00  0.00    +0.219 C 
ATOM     16  O   UNL     1      -0.041  -4.061   5.345  0.00  0.00    -0.275 OA
ATOM     17  N   UNL     1       0.236  -5.127   7.271  0.00  0.00    -0.308 N 
ATOM     18  H   UNL     1       0.819  -5.637   7.856  0.00  0.00    +0.149 HD
BRANCH  17  19
ATOM     19  C   UNL     1      -1.135  -4.822   7.688  0.00  0.00    +0.100 C 
ATOM     20  C   UNL     1      -2.087  -5.874   7.116  0.00  0.00    +0.033 C 
BRANCH  19  21
ATOM     21  C   UNL     1      -1.217  -4.835   9.193  0.00  0.00    -0.027 A 
ATOM     22  C   UNL     1      -0.529  -5.793   9.914  0.00  0.00    +0.005 A 
ATOM     23  C   UNL     1      -0.605  -5.805  11.294  0.00  0.00    +0.000 A 
ATOM     24  C   UNL     1      -1.368  -4.859  11.953  0.00  0.00    +0.000 A 
ATOM     25  C   UNL     1      -2.055  -3.901  11.232  0.00  0.00    +0.000 A 
ATOM     26  C   UNL     1      -1.976  -3.886   9.852  0.00  0.00    +0.005 A 
ENDBRANCH  19  21
ENDBRANCH  17  19
ENDBRANCH   5  15
BRANCH   1  27
ATOM     27  C   UNL     1       1.728  -2.426   2.192  0.00  0.00    +0.072 C 
ATOM     28  C   UNL     1       0.525  -2.047   1.325  0.00  0.00    +0.017 C 
BRANCH  27  29
ATOM     29  C   UNL     1       2.992  -1.780   1.621  0.00  0.00    +0.012 C 
BRANCH  29  30
ATOM     30  C   UNL     1       2.879  -0.257   1.728  0.00  0.00    +0.000 C 
BRANCH  30  32
ATOM     31  C   UNL     1       4.030   1.911   1.265  0.00  0.00    +0.004 C 
ATOM     32  C   UNL     1       4.143   0.389   1.158  0.00  0.00    -0.003 C 
ENDBRANCH  30  32
ENDBRANCH  29  30
ENDBRANCH  27  29
ENDBRANCH   1  27
TORSDOF 7
