REMARK  Name = ZINC63140480
REMARK  11 active torsions:
REMARK  status: ('A' for Active; 'I' for Inactive)
REMARK    1  A    between atoms: C_1  and  C_2
REMARK    2  A    between atoms: C_2  and  C_3
REMARK    3  A    between atoms: C_3  and  C_5
REMARK    4  A    between atoms: C_3  and  N_6
REMARK    5  A    between atoms: C_26  and  C_28
REMARK    6  A    between atoms: C_31  and  O_36
REMARK    7  A    between atoms: C_32  and  O_34
REMARK    8  A    between atoms: O_34  and  C_35
REMARK    9  A    between atoms: O_36  and  C_37
REMARK   10  A    between atoms: C_37  and  C_38
REMARK   11  A    between atoms: C_37  and  C_39
REMARK                            x       y       z     vdW  Elec       q    Type
REMARK                         _______ _______ _______ _____ _____    ______ ____
ROOT
ATOM      1  N   UNL     1       2.261  -0.650  -0.717  0.00  0.00    -0.288 N 
ATOM      2  C   UNL     1       3.334  -1.021   0.224  0.00  0.00    +0.204 C 
ATOM      3  C   UNL     1       4.597  -1.286  -0.568  0.00  0.00    +0.234 C 
ATOM      4  O   UNL     1       5.306  -2.241  -0.331  0.00  0.00    -0.274 OA
ATOM      5  N   UNL     1       4.902  -0.394  -1.567  0.00  0.00    -0.279 N 
ATOM      6  C   UNL     1       4.010   0.740  -1.682  0.00  0.00    +0.167 C 
ATOM      7  C   UNL     1       2.582   0.258  -1.686  0.00  0.00    +0.237 C 
ATOM      8  O   UNL     1       1.769   0.653  -2.495  0.00  0.00    -0.274 OA
ATOM      9  C   UNL     1       4.276   1.752  -2.767  0.00  0.00    +0.065 C 
ATOM     10  C   UNL     1       5.342   1.238  -3.696  0.00  0.00    -0.034 C 
ATOM     11  C   UNL     1       5.469   1.283  -5.014  0.00  0.00    -0.001 A 
ATOM     12  C   UNL     1       4.632   1.894  -6.060  0.00  0.00    +0.010 A 
ATOM     13  C   UNL     1       5.062   1.738  -7.340  0.00  0.00    +0.001 A 
ATOM     14  C   UNL     1       6.227   1.044  -7.681  0.00  0.00    +0.002 A 
ATOM     15  C   UNL     1       7.058   0.455  -6.785  0.00  0.00    +0.026 A 
ATOM     16  C   UNL     1       6.714   0.554  -5.405  0.00  0.00    +0.043 A 
ATOM     17  N   UNL     1       7.324   0.101  -4.353  0.00  0.00    -0.375 N 
ATOM     18  C   UNL     1       6.568   0.502  -3.160  0.00  0.00    +0.131 C 
ATOM     19  C   UNL     1       6.043  -0.715  -2.413  0.00  0.00    +0.134 C 
ATOM     20  H   UNL     1       8.144  -0.417  -4.354  0.00  0.00    +0.160 HD
ENDROOT
BRANCH  19  21
ATOM     21  C   UNL     1       5.618  -1.729  -3.444  0.00  0.00    -0.021 A 
ATOM     22  C   UNL     1       4.381  -1.619  -4.052  0.00  0.00    +0.009 A 
ATOM     23  C   UNL     1       3.988  -2.547  -4.998  0.00  0.00    +0.050 A 
ATOM     24  C   UNL     1       4.834  -3.590  -5.340  0.00  0.00    +0.162 A 
ATOM     25  C   UNL     1       6.079  -3.700  -4.729  0.00  0.00    +0.162 A 
ATOM     26  C   UNL     1       6.469  -2.764  -3.784  0.00  0.00    +0.055 A 
BRANCH  25  27
ATOM     27  O   UNL     1       6.913  -4.722  -5.061  0.00  0.00    -0.491 OA
ATOM     28  C   UNL     1       8.175  -4.772  -4.393  0.00  0.00    +0.277 C 
ENDBRANCH  25  27
BRANCH  24  29
ATOM     29  O   UNL     1       4.448  -4.503  -6.270  0.00  0.00    -0.486 OA
BRANCH  29  30
ATOM     30  C   UNL     1       3.210  -4.261  -6.943  0.00  0.00    +0.167 C 
ATOM     31  C   UNL     1       3.225  -4.959  -8.304  0.00  0.00    +0.051 C 
ATOM     32  C   UNL     1       2.057  -4.809  -6.101  0.00  0.00    +0.051 C 
ENDBRANCH  29  30
ENDBRANCH  24  29
ENDBRANCH  19  21
BRANCH   1  33
ATOM     33  C   UNL     1       0.919  -1.230  -0.620  0.00  0.00    +0.073 C 
ATOM     34  C   UNL     1       1.009  -2.750  -0.771  0.00  0.00    +0.028 C 
BRANCH  33  36
ATOM     35  C   UNL     1       0.107   0.625   0.844  0.00  0.00    +0.005 C 
ATOM     36  C   UNL     1       0.312  -0.888   0.742  0.00  0.00    +0.019 C 
ENDBRANCH  33  36
ENDBRANCH   1  33
TORSDOF 6
