REMARK  Name = ZINC13623044
REMARK  8 active torsions:
REMARK  status: ('A' for Active; 'I' for Inactive)
REMARK    1  A    between atoms: C_1  and  C_2
REMARK    2  A    between atoms: C_4  and  O_9
REMARK    3  A    between atoms: O_9  and  C_10
REMARK    4  A    between atoms: C_10  and  C_11
REMARK    5  A    between atoms: N_13  and  N_14
REMARK    6  A    between atoms: C_15  and  C_17
REMARK    7  A    between atoms: N_22  and  C_24
REMARK    8  A    between atoms: C_24  and  C_25
REMARK                            x       y       z     vdW  Elec       q    Type
REMARK                         _______ _______ _______ _____ _____    ______ ____
ROOT
ATOM      1  N   UNL     1       6.288   6.014  -0.023  0.00  0.00    -0.234 N 
ATOM      2  C   UNL     1       6.447   7.353  -0.017  0.00  0.00    +0.234 C 
ATOM      3  O   UNL     1       5.476   8.079  -0.004  0.00  0.00    -0.274 OA
ATOM      4  H   UNL     1       7.064   5.434  -0.034  0.00  0.00    +0.173 HD
ENDROOT
BRANCH   2   5
ATOM      5  C   UNL     1       7.832   7.947  -0.027  0.00  0.00    +0.102 C 
ATOM      6  C   UNL     1       8.545   7.667  -1.370  0.00  0.00    +0.110 C 
ATOM      7  C   UNL     1       9.335   8.928  -1.640  0.00  0.00    +0.217 C 
ATOM      8  O   UNL     1      10.243   9.021  -2.439  0.00  0.00    -0.276 OA
ATOM      9  N   UNL     1       8.886   9.931  -0.866  0.00  0.00    -0.296 N 
ATOM     10  C   UNL     1       7.772   9.490  -0.017  0.00  0.00    +0.121 C 
BRANCH   9  11
ATOM     11  C   UNL     1       9.436  11.288  -0.869  0.00  0.00    +0.142 C 
BRANCH  11  12
ATOM     12  C   UNL     1      10.545  11.383   0.146  0.00  0.00    -0.030 A 
ATOM     13  C   UNL     1      10.262  11.755   1.447  0.00  0.00    +0.005 A 
ATOM     14  C   UNL     1      11.280  11.838   2.379  0.00  0.00    +0.000 A 
ATOM     15  C   UNL     1      12.581  11.558   2.008  0.00  0.00    +0.000 A 
ATOM     16  C   UNL     1      12.865  11.190   0.706  0.00  0.00    +0.000 A 
ATOM     17  C   UNL     1      11.847  11.104  -0.225  0.00  0.00    +0.005 A 
ENDBRANCH  11  12
ENDBRANCH   9  11
ENDBRANCH   2   5
BRANCH   1  20
ATOM     18  C   UNL     1       4.840   4.124  -0.021  0.00  0.00    +0.267 C 
ATOM     19  O   UNL     1       5.812   3.398  -0.034  0.00  0.00    -0.271 OA
ATOM     20  N   UNL     1       5.000   5.463  -0.014  0.00  0.00    -0.232 N 
ATOM     21  H   UNL     1       4.223   6.043  -0.004  0.00  0.00    +0.173 HD
BRANCH  18  22
ATOM     22  C   UNL     1       3.455   3.530  -0.011  0.00  0.00    +0.326 C 
BRANCH  22  23
ATOM     23  O   UNL     1       3.548   2.104  -0.020  0.00  0.00    -0.483 OA
BRANCH  23  27
ATOM     24  C   UNL     1       1.226  -2.188  -0.023  0.00  0.00    +0.045 C 
ATOM     25  C   UNL     1       1.208  -0.681  -0.014  0.00  0.00    -0.033 A 
ATOM     26  C   UNL     1       2.397   0.023  -0.021  0.00  0.00    +0.050 A 
ATOM     27  C   UNL     1       2.380   1.410  -0.013  0.00  0.00    +0.122 A 
ATOM     28  C   UNL     1       1.169   2.087   0.002  0.00  0.00    +0.047 A 
ATOM     29  C   UNL     1      -0.017   1.379   0.010  0.00  0.00    +0.019 A 
ATOM     30  C   UNL     1       0.002  -0.004   0.002  0.00  0.00    +0.021 A 
ATOM     31 BR   UNL     1      -1.623  -0.971   0.012  0.00  0.00    -0.050 Br
ENDBRANCH  23  27
ENDBRANCH  22  23
ENDBRANCH  18  22
ENDBRANCH   1  20
TORSDOF 7
