REMARK  Name = ZINC36612534
REMARK  16 active torsions:
REMARK  status: ('A' for Active; 'I' for Inactive)
REMARK    1  A    between atoms: C_1  and  C_2
REMARK    2  A    between atoms: C_2  and  C_3
REMARK    3  A    between atoms: C_2  and  O_4
REMARK    4  A    between atoms: O_4  and  C_5
REMARK    5  A    between atoms: C_8  and  C_13
REMARK    6  A    between atoms: C_10  and  O_11
REMARK    7  A    between atoms: O_11  and  C_12
REMARK    8  A    between atoms: C_13  and  N_14
REMARK    9  A    between atoms: N_14  and  C_15
REMARK   10  A    between atoms: C_15  and  C_16
REMARK   11  A    between atoms: C_15  and  C_17
REMARK   12  A    between atoms: C_15  and  C_18
REMARK   13  A    between atoms: C_18  and  C_19
REMARK   14  A    between atoms: C_19  and  C_20
REMARK   15  A    between atoms: C_19  and  C_21
REMARK   16  A    between atoms: C_19  and  C_22
REMARK                            x       y       z     vdW  Elec       q    Type
REMARK                         _______ _______ _______ _____ _____    ______ ____
ROOT
ATOM      1  C   UNL     1      -1.675   1.192  -1.919  0.00  0.00    +0.164 A 
ATOM      2  C   UNL     1      -1.095   1.643  -3.094  0.00  0.00    +0.069 A 
ATOM      3  C   UNL     1      -1.562   1.190  -4.314  0.00  0.00    +0.046 A 
ATOM      4  C   UNL     1      -2.608   0.286  -4.364  0.00  0.00    -0.042 A 
ATOM      5  C   UNL     1      -3.191  -0.168  -3.196  0.00  0.00    +0.052 A 
ATOM      6  C   UNL     1      -2.724   0.279  -1.970  0.00  0.00    +0.162 A 
ATOM      7 CL   UNL     1      -0.835   1.756  -5.785  0.00  0.00    -0.083 Cl
ENDROOT
BRANCH   6   8
ATOM      8  O   UNL     1      -3.292  -0.171  -0.819  0.00  0.00    -0.491 OA
ATOM      9  C   UNL     1      -4.364  -1.107  -0.948  0.00  0.00    +0.277 C 
ENDBRANCH   6   8
BRANCH   1  10
ATOM     10  O   UNL     1      -1.217   1.637  -0.718  0.00  0.00    -0.486 OA
BRANCH  10  12
ATOM     11  C   UNL     1      -0.706   3.981  -1.008  0.00  0.00    +0.051 C 
ATOM     12  C   UNL     1      -0.146   2.583  -0.742  0.00  0.00    +0.167 C 
ATOM     13  C   UNL     1       0.575   2.570   0.607  0.00  0.00    +0.051 C 
ENDBRANCH  10  12
ENDBRANCH   1  10
BRANCH   4  14
ATOM     14  C   UNL     1      -3.115  -0.205  -5.696  0.00  0.00    -0.044 C 
BRANCH  14  15
ATOM     15  N   UNL     1      -3.908   0.851  -6.338  0.00  0.00    +0.385 N 
ATOM     16  H   UNL     1      -4.691   1.089  -5.748  0.00  0.00    -0.085 HD
ATOM     17  H   UNL     1      -3.332   1.667  -6.478  0.00  0.00    -0.085 HD
BRANCH  15  18
ATOM     18  C   UNL     1      -4.402   0.372  -7.636  0.00  0.00    -0.073 C 
ATOM     19  C   UNL     1      -3.232  -0.177  -8.456  0.00  0.00    -0.010 C 
ATOM     20  C   UNL     1      -5.433  -0.736  -7.413  0.00  0.00    -0.010 C 
BRANCH  18  21
ATOM     21  C   UNL     1      -5.054   1.531  -8.393  0.00  0.00    -0.007 C 
BRANCH  21  22
ATOM     22  C   UNL     1      -5.923   2.343  -7.430  0.00  0.00    -0.039 C 
ATOM     23  C   UNL     1      -5.029   3.222  -6.553  0.00  0.00    +0.010 C 
ATOM     24  C   UNL     1      -6.880   3.229  -8.230  0.00  0.00    +0.010 C 
ATOM     25  C   UNL     1      -6.729   1.391  -6.544  0.00  0.00    +0.010 C 
ENDBRANCH  21  22
ENDBRANCH  18  21
ENDBRANCH  15  18
ENDBRANCH  14  15
ENDBRANCH   4  14
TORSDOF 8
