REMARK  Name = ZINC40383853
REMARK  15 active torsions:
REMARK  status: ('A' for Active; 'I' for Inactive)
REMARK    1  A    between atoms: C_1  and  C_2
REMARK    2  A    between atoms: C_2  and  N_3
REMARK    3  A    between atoms: N_3  and  C_4
REMARK    4  A    between atoms: N_3  and  C_6
REMARK    5  A    between atoms: C_4  and  C_5
REMARK    6  A    between atoms: C_6  and  C_7
REMARK    7  A    between atoms: C_7  and  C_8
REMARK    8  A    between atoms: C_8  and  C_9
REMARK    9  A    between atoms: C_9  and  C_11
REMARK   10  A    between atoms: C_9  and  N_12
REMARK   11  A    between atoms: C_13  and  C_15
REMARK   12  A    between atoms: C_18  and  C_20
REMARK   13  A    between atoms: C_20  and  N_21
REMARK   14  A    between atoms: C_29  and  C_31
REMARK   15  A    between atoms: C_34  and  C_37
REMARK                            x       y       z     vdW  Elec       q    Type
REMARK                         _______ _______ _______ _____ _____    ______ ____
ROOT
ATOM      1  C   UNL     1       2.220  -2.850  -5.137  0.00  0.00    +0.189 A 
ATOM      2  C   UNL     1       2.711  -2.477  -6.355  0.00  0.00    +0.055 A 
ATOM      3  C   UNL     1       1.603  -2.285  -7.196  0.00  0.00    +0.043 A 
ATOM      4  C   UNL     1       0.498  -2.547  -6.463  0.00  0.00    +0.090 A 
ATOM      5  O   UNL     1       0.874  -2.892  -5.224  0.00  0.00    -0.457 OA
ENDROOT
BRANCH   1   7
ATOM      6  N   UNL     1       2.404  -3.522  -2.801  0.00  0.00    -0.306 N 
ATOM      7  C   UNL     1       3.016  -3.158  -3.945  0.00  0.00    +0.280 C 
ATOM      8  O   UNL     1       4.230  -3.085  -3.988  0.00  0.00    -0.267 OA
ATOM      9  H   UNL     1       1.436  -3.580  -2.766  0.00  0.00    +0.149 HD
BRANCH   6  10
ATOM     10  C   UNL     1       3.199  -3.829  -1.609  0.00  0.00    +0.070 C 
ATOM     11  C   UNL     1       3.650  -5.291  -1.661  0.00  0.00    +0.028 C 
BRANCH  10  12
ATOM     12  C   UNL     1       2.351  -3.601  -0.357  0.00  0.00    +0.020 C 
BRANCH  12  13
ATOM     13  C   UNL     1       2.004  -2.115  -0.240  0.00  0.00    -0.017 C 
BRANCH  13  14
ATOM     14  C   UNL     1       1.156  -1.887   1.013  0.00  0.00    -0.079 C 
BRANCH  14  15
ATOM     15  N   UNL     1       0.823  -0.461   1.126  0.00  0.00    +0.379 N 
ATOM     16  H   UNL     1       1.671   0.085   1.109  0.00  0.00    -0.082 HD
BRANCH  15  18
ATOM     17  C   UNL     1      -0.264   1.445   0.037  0.00  0.00    -0.017 C 
ATOM     18  C   UNL     1      -0.034  -0.067  -0.001  0.00  0.00    -0.082 C 
ENDBRANCH  15  18
BRANCH  15  19
ATOM     19  C   UNL     1       0.111  -0.222   2.389  0.00  0.00    -0.082 C 
ATOM     20  C   UNL     1       1.053  -0.495   3.563  0.00  0.00    -0.017 C 
ENDBRANCH  15  19
ENDBRANCH  14  15
ENDBRANCH  13  14
ENDBRANCH  12  13
ENDBRANCH  10  12
ENDBRANCH   6  10
ENDBRANCH   1   7
BRANCH   4  21
ATOM     21  C   UNL     1      -0.923  -2.469  -6.958  0.00  0.00    -0.002 C 
BRANCH  21  22
ATOM     22  N   UNL     1      -1.324  -3.773  -7.504  0.00  0.00    +0.394 N 
ATOM     23  C   UNL     1      -1.332  -4.770  -6.426  0.00  0.00    -0.055 C 
ATOM     24  C   UNL     1      -1.436  -6.180  -7.021  0.00  0.00    +0.103 C 
ATOM     25  N   UNL     1      -2.564  -6.193  -7.961  0.00  0.00    -0.353 N 
ATOM     26  C   UNL     1      -3.210  -7.266  -8.483  0.00  0.00    +0.086 A 
ATOM     27  C   UNL     1      -4.188  -6.813  -9.297  0.00  0.00    +0.019 A 
ATOM     28  C   UNL     1      -4.139  -5.403  -9.275  0.00  0.00    +0.021 A 
ATOM     29  C   UNL     1      -3.138  -5.051  -8.455  0.00  0.00    +0.009 A 
ATOM     30  C   UNL     1      -2.668  -3.663  -8.096  0.00  0.00    +0.011 C 
ATOM     31  H   UNL     1      -0.666  -4.055  -8.215  0.00  0.00    -0.080 HD
BRANCH  30  32
ATOM     32  C   UNL     1      -2.609  -2.808  -9.336  0.00  0.00    -0.055 A 
ATOM     33  C   UNL     1      -1.547  -2.934 -10.212  0.00  0.00    +0.002 A 
ATOM     34  C   UNL     1      -1.493  -2.150 -11.349  0.00  0.00    +0.003 A 
ATOM     35  C   UNL     1      -2.501  -1.242 -11.611  0.00  0.00    -0.050 A 
ATOM     36  C   UNL     1      -3.564  -1.117 -10.736  0.00  0.00    +0.003 A 
ATOM     37  C   UNL     1      -3.620  -1.904  -9.601  0.00  0.00    +0.002 A 
ATOM     38  C   UNL     1      -2.442  -0.387 -12.851  0.00  0.00    +0.044 C 
ENDBRANCH  30  32
ENDBRANCH  21  22
ENDBRANCH   4  21
TORSDOF 11
