REMARK  Name = ZINC21118010
REMARK  4 active torsions:
REMARK  status: ('A' for Active; 'I' for Inactive)
REMARK    1  A    between atoms: C_1  and  C_2
REMARK    2  A    between atoms: C_2  and  C_3
REMARK    3  A    between atoms: C_6  and  N_9
REMARK    4  A    between atoms: C_16  and  C_25
REMARK                            x       y       z     vdW  Elec       q    Type
REMARK                         _______ _______ _______ _____ _____    ______ ____
ROOT
ATOM      1  N   UNL     1       5.306   3.501  -0.035  0.00  0.00    -0.244 N 
ATOM      2  C   UNL     1       5.948   3.635  -1.205  0.00  0.00    +0.141 C 
ATOM      3  S   UNL     1       5.095   3.315  -2.655  0.00  0.00    -0.018 S 
ATOM      4  N   UNL     1       7.234   4.015  -1.283  0.00  0.00    -0.319 N 
ATOM      5  C   UNL     1       8.011   4.215  -0.049  0.00  0.00    +0.111 C 
ATOM      6  C   UNL     1       7.072   4.841   0.995  0.00  0.00    +0.096 C 
ATOM      7  C   UNL     1       5.941   3.831   1.238  0.00  0.00    +0.183 C 
ATOM      8  O   UNL     1       6.491   2.668   1.849  0.00  0.00    -0.466 OA
ATOM      9  C   UNL     1       7.647   2.154   1.354  0.00  0.00    +0.147 A 
ATOM     10  C   UNL     1       8.429   2.850   0.449  0.00  0.00    +0.016 A 
ATOM     11  C   UNL     1       9.605   2.296  -0.023  0.00  0.00    +0.009 A 
ATOM     12  C   UNL     1      10.003   1.042   0.403  0.00  0.00    +0.002 A 
ATOM     13  C   UNL     1       9.223   0.340   1.302  0.00  0.00    +0.024 A 
ATOM     14  C   UNL     1       8.049   0.890   1.778  0.00  0.00    +0.083 A 
ATOM     15 CL   UNL     1       7.073   0.005   2.908  0.00  0.00    -0.080 Cl
ATOM     16  C   UNL     1       4.905   4.455   2.176  0.00  0.00    +0.079 C 
ATOM     17  H   UNL     1       7.706   4.177  -2.263  0.00  0.00    +0.148 HD
ENDROOT
BRANCH   1  21
ATOM     18  C   UNL     1       1.389   2.083  -0.029  0.00  0.00    -0.048 A 
ATOM     19  C   UNL     1       1.636   3.428  -0.237  0.00  0.00    +0.005 A 
ATOM     20  C   UNL     1       2.933   3.902  -0.234  0.00  0.00    +0.024 A 
ATOM     21  C   UNL     1       3.991   3.025  -0.033  0.00  0.00    +0.039 A 
ATOM     22  C   UNL     1       3.740   1.674   0.171  0.00  0.00    +0.024 A 
ATOM     23  C   UNL     1       2.440   1.207   0.172  0.00  0.00    +0.005 A 
BRANCH  18  25
ATOM     24  C   UNL     1      -0.588   1.626   1.396  0.00  0.00    +0.009 C 
ATOM     25  C   UNL     1      -0.028   1.570  -0.026  0.00  0.00    +0.032 C 
ENDBRANCH  18  25
ENDBRANCH   1  21
TORSDOF 2
