REMARK  Name = ZINC11854754
REMARK  8 active torsions:
REMARK  status: ('A' for Active; 'I' for Inactive)
REMARK    1  A    between atoms: C_1  and  C_2
REMARK    2  A    between atoms: C_2  and  C_3
REMARK    3  A    between atoms: C_3  and  C_4
REMARK    4  A    between atoms: C_12  and  N_21
REMARK    5  A    between atoms: C_14  and  C_16
REMARK    6  A    between atoms: C_22  and  C_24
REMARK    7  A    between atoms: C_28  and  N_31
REMARK    8  A    between atoms: C_29  and  C_30
REMARK                            x       y       z     vdW  Elec       q    Type
REMARK                         _______ _______ _______ _____ _____    ______ ____
ROOT
ATOM      1  C   UNL     1      -4.822  -0.909  -0.101  0.00  0.00    +0.024 A 
ATOM      2  C   UNL     1      -6.165  -1.147  -0.117  0.00  0.00    +0.093 A 
ATOM      3  C   UNL     1      -7.049  -0.052  -0.077  0.00  0.00    +0.275 A 
ATOM      4  O   UNL     1      -8.257  -0.227  -0.090  0.00  0.00    -0.266 OA
ATOM      5  N   UNL     1      -6.534   1.195  -0.017  0.00  0.00    -0.173 NA
ATOM      6  C   UNL     1      -5.186   1.369  -0.008  0.00  0.00    +0.234 A 
ATOM      7  N   UNL     1      -4.366   0.341  -0.046  0.00  0.00    -0.328 N 
ATOM      8  N   UNL     1      -4.668   2.648   0.049  0.00  0.00    -0.185 N 
ATOM      9  C   UNL     1      -3.342   2.977   0.070  0.00  0.00    +0.132 A 
ATOM     10  C   UNL     1      -3.254   4.330   0.133  0.00  0.00    +0.074 A 
ATOM     11  C   UNL     1      -4.567   4.847   0.143  0.00  0.00    +0.102 A 
ATOM     12  N   UNL     1      -5.409   3.835   0.095  0.00  0.00    -0.162 NA
ATOM     13  H   UNL     1      -3.283   0.531  -0.033  0.00  0.00    +0.169 HD
ENDROOT
BRANCH  11  14
ATOM     14  C   UNL     1      -4.934   6.278   0.202  0.00  0.00    +0.039 A 
ATOM     15  C   UNL     1      -6.178   6.850   0.219  0.00  0.00    +0.018 A 
ATOM     16  C   UNL     1      -6.276   8.223   0.277  0.00  0.00    +0.008 A 
ATOM     17  C   UNL     1      -5.139   8.965   0.316  0.00  0.00    +0.046 A 
ATOM     18  S   UNL     1      -3.871   7.710   0.277  0.00  0.00    -0.095 S 
ENDBRANCH  11  14
BRANCH   9  19
ATOM     19  N   UNL     1      -2.273   2.085   0.038  0.00  0.00    -0.266 N 
ATOM     20  C   UNL     1      -1.008   2.549   0.065  0.00  0.00    +0.250 C 
ATOM     21  O   UNL     1      -0.800   3.745   0.116  0.00  0.00    -0.270 OA
ATOM     22  H   UNL     1      -2.462   1.002  -0.008  0.00  0.00    +0.157 HD
BRANCH  20  23
ATOM     23  C   UNL     1       0.127   1.602   0.032  0.00  0.00    +0.042 A 
ATOM     24  C   UNL     1      -0.105   0.227   0.111  0.00  0.00    +0.013 A 
ATOM     25  C   UNL     1       0.958  -0.651   0.073  0.00  0.00    +0.003 A 
ATOM     26  C   UNL     1       2.251  -0.173  -0.042  0.00  0.00    +0.033 A 
ATOM     27  C   UNL     1       2.487   1.188  -0.121  0.00  0.00    +0.130 A 
ATOM     28  C   UNL     1       1.433   2.078  -0.085  0.00  0.00    -0.008 A 
ATOM     29  C   UNL     1       1.693   3.560  -0.171  0.00  0.00    +0.047 C 
BRANCH  27  30
ATOM     30  N   UNL     1       3.874   1.691  -0.244  0.00  0.00    +0.057 N 
ATOM     31  O   UNL     1       4.793   0.909  -0.409  0.00  0.00    -0.126 OA
ATOM     32  O   UNL     1       4.096   2.887  -0.181  0.00  0.00    -0.126 OA
ENDBRANCH  27  30
ENDBRANCH  20  23
ENDBRANCH   9  19
BRANCH   1  33
ATOM     33  C   UNL     1      -3.853  -2.063  -0.144  0.00  0.00    +0.053 C 
BRANCH  33  35
ATOM     34  C   UNL     1      -2.438  -3.484  -1.634  0.00  0.00    +0.004 C 
ATOM     35  C   UNL     1      -3.422  -2.313  -1.590  0.00  0.00    +0.003 C 
ENDBRANCH  33  35
ENDBRANCH   1  33
TORSDOF 6
