REMARK  Name = ZINC44165986
REMARK  4 active torsions:
REMARK  status: ('A' for Active; 'I' for Inactive)
REMARK    1  A    between atoms: C_6  and  C_7
REMARK    2  A    between atoms: C_7  and  N_8
REMARK    3  A    between atoms: C_9  and  C_11
REMARK    4  A    between atoms: C_16  and  C_19
REMARK                            x       y       z     vdW  Elec       q    Type
REMARK                         _______ _______ _______ _____ _____    ______ ____
ROOT
ATOM      1  C   UNL     1      -3.312  -1.942  -3.025  0.00  0.00    +0.027 C 
ATOM      2  C   UNL     1      -3.516  -0.600  -3.739  0.00  0.00    +0.062 C 
ATOM      3  S   UNL     1      -3.987  -0.937  -5.464  0.00  0.00    -0.163 S 
ATOM      4  C   UNL     1      -5.335  -2.146  -5.280  0.00  0.00    +0.058 C 
ATOM      5  C   UNL     1      -4.860  -3.256  -4.336  0.00  0.00    -0.030 C 
ATOM      6  N   UNL     1      -4.569  -2.694  -3.015  0.00  0.00    +0.392 N 
ATOM      7  H   UNL     1      -4.500  -3.445  -2.345  0.00  0.00    -0.084 HD
ATOM      8  H   UNL     1      -5.321  -2.078  -2.744  0.00  0.00    -0.084 HD
ENDROOT
BRANCH   5   9
ATOM      9  C   UNL     1      -5.939  -4.300  -4.208  0.00  0.00    -0.057 A 
ATOM     10  C   UNL     1      -7.013  -4.082  -3.365  0.00  0.00    +0.006 A 
ATOM     11  C   UNL     1      -8.004  -5.038  -3.244  0.00  0.00    +0.049 A 
ATOM     12  C   UNL     1      -7.923  -6.219  -3.968  0.00  0.00    +0.162 A 
ATOM     13  C   UNL     1      -6.845  -6.437  -4.817  0.00  0.00    +0.162 A 
ATOM     14  C   UNL     1      -5.856  -5.471  -4.937  0.00  0.00    +0.051 A 
ATOM     15  O   UNL     1      -6.750  -7.585  -5.542  0.00  0.00    -0.485 OA
ATOM     16  C   UNL     1      -7.566  -8.682  -5.119  0.00  0.00    +0.270 C 
ATOM     17  C   UNL     1      -8.983  -8.153  -4.855  0.00  0.00    +0.270 C 
ATOM     18  O   UNL     1      -8.905  -7.152  -3.835  0.00  0.00    -0.485 OA
ENDBRANCH   5   9
BRANCH   1  20
ATOM     19  N   UNL     1      -1.726  -1.017  -1.368  0.00  0.00    -0.313 N 
ATOM     20  C   UNL     1      -2.867  -1.693  -1.607  0.00  0.00    +0.200 C 
ATOM     21  O   UNL     1      -3.536  -2.101  -0.681  0.00  0.00    -0.278 OA
ATOM     22  H   UNL     1      -1.191  -0.691  -2.109  0.00  0.00    +0.149 HD
BRANCH  19  23
ATOM     23  C   UNL     1      -1.293  -0.774   0.010  0.00  0.00    +0.139 C 
BRANCH  23  29
ATOM     24  C   UNL     1      -0.017   1.378   0.010  0.00  0.00    +0.008 A 
ATOM     25  C   UNL     1       1.170   2.087   0.002  0.00  0.00    +0.041 A 
ATOM     26  C   UNL     1       2.379   1.413  -0.013  0.00  0.00    +0.158 A 
ATOM     27  C   UNL     1       2.397   0.026  -0.021  0.00  0.00    +0.159 A 
ATOM     28  C   UNL     1       1.208  -0.680  -0.013  0.00  0.00    +0.046 A 
ATOM     29  C   UNL     1       0.002  -0.004   0.002  0.00  0.00    -0.027 A 
ATOM     30  F   UNL     1       3.576  -0.634  -0.036  0.00  0.00    -0.202 F 
ATOM     31  F   UNL     1       3.539   2.105  -0.021  0.00  0.00    -0.202 F 
ENDBRANCH  23  29
ENDBRANCH  19  23
ENDBRANCH   1  20
TORSDOF 4
