REMARK  Name = ZINC39545634
REMARK  8 active torsions:
REMARK  status: ('A' for Active; 'I' for Inactive)
REMARK    1  A    between atoms: C_1  and  C_2
REMARK    2  A    between atoms: C_2  and  O_3
REMARK    3  A    between atoms: O_3  and  N_4
REMARK    4  A    between atoms: N_4  and  C_5
REMARK    5  A    between atoms: C_10  and  O_11
REMARK    6  A    between atoms: C_12  and  C_14
REMARK    7  A    between atoms: C_17  and  S_28
REMARK    8  A    between atoms: S_28  and  C_31
REMARK                            x       y       z     vdW  Elec       q    Type
REMARK                         _______ _______ _______ _____ _____    ______ ____
ROOT
ATOM      1  C   UNL     1       2.889  -1.454  -0.024  0.00  0.00    +0.152 C 
ATOM      2  C   UNL     1       2.223  -0.654   1.112  0.00  0.00    +0.088 C 
ATOM      3  C   UNL     1       2.983  -1.070   2.351  0.00  0.00    +0.107 C 
ATOM      4  C   UNL     1       3.914  -1.929   2.022  0.00  0.00    +0.097 C 
ATOM      5  N   UNL     1       4.800  -2.568   2.908  0.00  0.00    -0.302 N 
ATOM      6  C   UNL     1       5.104  -3.901   2.581  0.00  0.00    +0.037 A 
ATOM      7  C   UNL     1       5.875  -4.665   3.446  0.00  0.00    +0.023 A 
ATOM      8  C   UNL     1       6.182  -5.971   3.119  0.00  0.00    +0.002 A 
ATOM      9  C   UNL     1       5.720  -6.511   1.933  0.00  0.00    +0.000 A 
ATOM     10  C   UNL     1       4.949  -5.752   1.074  0.00  0.00    +0.007 A 
ATOM     11  C   UNL     1       4.631  -4.442   1.394  0.00  0.00    -0.010 A 
ATOM     12  C   UNL     1       3.768  -3.648   0.450  0.00  0.00    +0.124 C 
ATOM     13  N   UNL     1       3.961  -2.207   0.646  0.00  0.00    -0.368 NA
ATOM     14  H   UNL     1       5.172  -2.123   3.686  0.00  0.00    +0.153 HD
ATOM     15  H   UNL     1       4.856  -1.929   0.272  0.00  0.00    +0.129 HD
ENDROOT
BRANCH   1  17
ATOM     16  N   UNL     1       1.796  -2.465  -2.000  0.00  0.00    -0.143 N 
ATOM     17  C   UNL     1       1.898  -2.396  -0.658  0.00  0.00    +0.262 C 
ATOM     18  O   UNL     1       1.192  -3.092   0.041  0.00  0.00    -0.271 OA
BRANCH  16  19
ATOM     19  C   UNL     1       0.797  -3.252  -2.587  0.00  0.00    +0.106 A 
ATOM     20  C   UNL     1      -0.474  -2.732  -2.781  0.00  0.00    +0.029 A 
ATOM     21  C   UNL     1      -1.458  -3.510  -3.361  0.00  0.00    +0.002 A 
ATOM     22  C   UNL     1      -1.179  -4.808  -3.749  0.00  0.00    +0.004 A 
ATOM     23  C   UNL     1       0.085  -5.334  -3.558  0.00  0.00    +0.047 A 
ATOM     24  C   UNL     1       1.079  -4.558  -2.983  0.00  0.00    +0.140 A 
BRANCH  24  25
ATOM     25  O   UNL     1       2.325  -5.071  -2.801  0.00  0.00    -0.505 OA
ATOM     26  H   UNL     1       2.447  -5.513  -1.950  0.00  0.00    +0.292 HD
ENDBRANCH  24  25
ENDBRANCH  16  19
BRANCH  16  27
ATOM     27  O   UNL     1       2.700  -1.742  -2.816  0.00  0.00    -0.273 OA
BRANCH  27  29
ATOM     28  C   UNL     1       3.364   0.308  -3.910  0.00  0.00    +0.036 C 
ATOM     29  C   UNL     1       2.260  -0.423  -3.143  0.00  0.00    +0.187 C 
ENDBRANCH  27  29
ENDBRANCH  16  27
ENDBRANCH   1  17
BRANCH   3  30
ATOM     30  S   UNL     1       2.667  -0.488   3.983  0.00  0.00    +0.024 S 
ATOM     31  O   UNL     1       1.267  -0.613   4.195  0.00  0.00    -0.165 OA
ATOM     32  O   UNL     1       3.624  -1.110   4.829  0.00  0.00    -0.165 OA
BRANCH  30  33
ATOM     33  C   UNL     1       3.026   1.237   4.000  0.00  0.00    +0.093 A 
ATOM     34  C   UNL     1       4.301   1.674   4.306  0.00  0.00    +0.027 A 
ATOM     35  C   UNL     1       4.583   3.028   4.319  0.00  0.00    +0.002 A 
ATOM     36  C   UNL     1       3.590   3.943   4.026  0.00  0.00    +0.000 A 
ATOM     37  C   UNL     1       2.315   3.506   3.719  0.00  0.00    +0.002 A 
ATOM     38  C   UNL     1       2.034   2.153   3.702  0.00  0.00    +0.027 A 
ENDBRANCH  30  33
ENDBRANCH   3  30
TORSDOF 7
