REMARK  Name = ZINC03521852
REMARK  7 active torsions:
REMARK  status: ('A' for Active; 'I' for Inactive)
REMARK    1  A    between atoms: C_1  and  C_2
REMARK    2  A    between atoms: C_2  and  C_4
REMARK    3  A    between atoms: C_2  and  S_17
REMARK    4  A    between atoms: N_6  and  C_7
REMARK    5  A    between atoms: C_10  and  S_13
REMARK    6  A    between atoms: S_13  and  N_16
REMARK    7  A    between atoms: S_17  and  C_18
REMARK                            x       y       z     vdW  Elec       q    Type
REMARK                         _______ _______ _______ _____ _____    ______ ____
ROOT
ATOM      1  C   UNL     1       7.108   1.417   0.070  0.00  0.00    +0.230 C 
ATOM      2  O   UNL     1       6.645   0.355  -0.288  0.00  0.00    -0.274 OA
ATOM      3  N   UNL     1       8.357   1.473   0.574  0.00  0.00    -0.285 N 
ATOM      4  H   UNL     1       8.752   2.330   0.797  0.00  0.00    +0.155 HD
ENDROOT
BRANCH   3   5
ATOM      5  C   UNL     1       9.084   0.294   0.773  0.00  0.00    +0.034 A 
ATOM      6  C   UNL     1       9.951   0.186   1.853  0.00  0.00    +0.025 A 
ATOM      7  C   UNL     1      10.662  -0.981   2.051  0.00  0.00    +0.030 A 
ATOM      8  C   UNL     1      10.521  -2.037   1.169  0.00  0.00    +0.105 A 
ATOM      9  C   UNL     1       9.662  -1.930   0.090  0.00  0.00    +0.030 A 
ATOM     10  C   UNL     1       8.944  -0.768  -0.110  0.00  0.00    +0.025 A 
BRANCH   8  11
ATOM     11  S   UNL     1      11.436  -3.522   1.421  0.00  0.00    +0.056 S 
ATOM     12  O   UNL     1      11.755  -3.572   2.805  0.00  0.00    -0.153 OA
ATOM     13  O   UNL     1      10.716  -4.558   0.767  0.00  0.00    -0.153 OA
BRANCH  11  14
ATOM     14  N   UNL     1      12.870  -3.357   0.610  0.00  0.00    -0.204 NA
ATOM     15  H   UNL     1      13.058  -2.542   0.119  0.00  0.00    +0.144 HD
ATOM     16  H   UNL     1      13.521  -4.075   0.625  0.00  0.00    +0.144 HD
ENDBRANCH  11  14
ENDBRANCH   8  11
ENDBRANCH   3   5
BRANCH   1  18
ATOM     17  C   UNL     1       6.626   3.385  -1.360  0.00  0.00    +0.029 C 
ATOM     18  C   UNL     1       6.286   2.675  -0.048  0.00  0.00    +0.137 C 
BRANCH  18  19
ATOM     19  S   UNL     1       4.523   2.249  -0.029  0.00  0.00    -0.073 S 
BRANCH  19  20
ATOM     20  C   UNL     1       3.707   3.811  -0.024  0.00  0.00    +0.198 A 
ATOM     21  N   UNL     1       4.297   4.979  -0.032  0.00  0.00    -0.121 NA
ATOM     22  N   UNL     1       3.302   5.966  -0.023  0.00  0.00    -0.121 NA
ATOM     23  C   UNL     1       2.151   5.363  -0.010  0.00  0.00    +0.202 A 
ATOM     24  N   UNL     1       2.335   4.006  -0.011  0.00  0.00    -0.264 N 
ATOM     25  C   UNL     1       1.196   3.186   0.003  0.00  0.00    +0.065 A 
ATOM     26  C   UNL     1       1.177   1.782   0.005  0.00  0.00    +0.027 A 
ATOM     27  C   UNL     1      -0.014   1.094   0.019  0.00  0.00    +0.002 A 
ATOM     28  C   UNL     1      -1.228   1.760   0.025  0.00  0.00    +0.001 A 
ATOM     29  C   UNL     1      -1.238   3.144   0.029  0.00  0.00    +0.017 A 
ATOM     30  C   UNL     1      -0.045   3.830   0.015  0.00  0.00    +0.040 A 
ATOM     31  S   UNL     1       0.385   5.554   0.008  0.00  0.00    -0.048 S 
ENDBRANCH  19  20
ENDBRANCH  18  19
ENDBRANCH   1  18
TORSDOF 6
