REMARK  Name = ZINC34757382
REMARK  7 active torsions:
REMARK  status: ('A' for Active; 'I' for Inactive)
REMARK    1  A    between atoms: C_4  and  C_7
REMARK    2  A    between atoms: C_7  and  C_8
REMARK    3  A    between atoms: C_8  and  C_9
REMARK    4  A    between atoms: C_9  and  N_10
REMARK    5  A    between atoms: C_23  and  S_25
REMARK    6  A    between atoms: S_25  and  C_26
REMARK    7  A    between atoms: C_26  and  C_27
REMARK                            x       y       z     vdW  Elec       q    Type
REMARK                         _______ _______ _______ _____ _____    ______ ____
ROOT
ATOM      1  N   UNL     1       5.809  -1.967   2.811  0.00  0.00    +0.382 N 
ATOM      2  C   UNL     1       4.877  -2.756   3.627  0.00  0.00    -0.060 C 
ATOM      3  C   UNL     1       5.439  -2.903   5.045  0.00  0.00    +0.088 C 
ATOM      4  N   UNL     1       6.794  -3.469   4.953  0.00  0.00    -0.318 N 
ATOM      5  C   UNL     1       7.749  -2.836   4.031  0.00  0.00    +0.088 C 
ATOM      6  C   UNL     1       7.078  -2.691   2.661  0.00  0.00    -0.060 C 
ATOM      7  C   UNL     1       7.159  -4.565   5.713  0.00  0.00    +0.134 A 
ATOM      8  C   UNL     1       7.645  -4.394   7.039  0.00  0.00    +0.051 A 
ATOM      9  C   UNL     1       7.834  -3.139   7.787  0.00  0.00    -0.025 A 
ATOM     10  C   UNL     1       8.312  -3.244   9.037  0.00  0.00    -0.004 A 
ATOM     11  S   UNL     1       8.536  -4.988   9.302  0.00  0.00    -0.073 S 
ATOM     12  C   UNL     1       7.987  -5.574   7.722  0.00  0.00    +0.115 A 
ATOM     13  N   UNL     1       7.861  -6.760   7.157  0.00  0.00    -0.215 NA
ATOM     14  C   UNL     1       7.403  -6.863   5.917  0.00  0.00    +0.191 A 
ATOM     15  N   UNL     1       7.057  -5.788   5.218  0.00  0.00    -0.206 NA
ATOM     16  C   UNL     1       8.469  -1.902   9.700  0.00  0.00    +0.043 C 
ATOM     17  C   UNL     1       8.426  -0.887   8.537  0.00  0.00    +0.010 C 
ATOM     18  C   UNL     1       7.607  -1.656   7.482  0.00  0.00    +0.037 C 
ATOM     19  H   UNL     1       5.981  -1.081   3.263  0.00  0.00    -0.082 HD
ENDROOT
BRANCH   1  20
ATOM     20  C   UNL     1       5.221  -1.733   1.486  0.00  0.00    -0.078 C 
BRANCH  20  21
ATOM     21  C   UNL     1       3.965  -0.871   1.631  0.00  0.00    -0.014 C 
BRANCH  21  22
ATOM     22  C   UNL     1       3.352  -0.627   0.251  0.00  0.00    +0.033 C 
BRANCH  22  26
ATOM     23  C   UNL     1      -0.156   1.777   0.653  0.00  0.00    +0.000 A 
ATOM     24  C   UNL     1       1.076   2.377   0.469  0.00  0.00    +0.000 A 
ATOM     25  C   UNL     1       2.211   1.599   0.339  0.00  0.00    +0.003 A 
ATOM     26  C   UNL     1       2.114   0.221   0.393  0.00  0.00    -0.047 A 
ATOM     27  C   UNL     1       0.883  -0.379   0.578  0.00  0.00    +0.003 A 
ATOM     28  C   UNL     1      -0.253   0.400   0.707  0.00  0.00    +0.000 A 
ENDBRANCH  22  26
ENDBRANCH  21  22
ENDBRANCH  20  21
ENDBRANCH   1  20
BRANCH  14  29
ATOM     29  S   UNL     1       7.244  -8.457   5.184  0.00  0.00    -0.081 S 
BRANCH  29  30
ATOM     30  C   UNL     1       7.814  -9.594   6.478  0.00  0.00    +0.112 C 
BRANCH  30  31
ATOM     31  C   UNL     1       7.728 -11.012   5.974  0.00  0.00    -0.037 A 
ATOM     32  C   UNL     1       6.569 -11.742   6.158  0.00  0.00    +0.004 A 
ATOM     33  C   UNL     1       6.491 -13.043   5.696  0.00  0.00    +0.000 A 
ATOM     34  C   UNL     1       7.572 -13.613   5.050  0.00  0.00    +0.000 A 
ATOM     35  C   UNL     1       8.731 -12.882   4.865  0.00  0.00    +0.000 A 
ATOM     36  C   UNL     1       8.807 -11.580   5.323  0.00  0.00    +0.004 A 
ENDBRANCH  30  31
ENDBRANCH  29  30
ENDBRANCH  14  29
TORSDOF 7
