REMARK  Name = ZINC04598479
REMARK  5 active torsions:
REMARK  status: ('A' for Active; 'I' for Inactive)
REMARK    1  A    between atoms: C_8  and  C_13
REMARK    2  A    between atoms: C_13  and  C_14
REMARK    3  A    between atoms: C_14  and  C_15
REMARK    4  A    between atoms: C_15  and  C_16
REMARK    5  A    between atoms: N_18  and  C_19
REMARK                            x       y       z     vdW  Elec       q    Type
REMARK                         _______ _______ _______ _____ _____    ______ ____
ROOT
ATOM      1  C   UNL     1      -0.892   7.428  -0.673  0.00  0.00    +0.074 C 
ENDROOT
BRANCH   1   9
ATOM      2  C   UNL     1       1.176   1.783   0.000  0.00  0.00    +0.002 A 
ATOM      3  C   UNL     1      -0.013   1.076   0.008  0.00  0.00    +0.002 A 
ATOM      4  C   UNL     1      -1.221   1.751   0.017  0.00  0.00    +0.031 A 
ATOM      5  C   UNL     1      -1.234   3.128   0.030  0.00  0.00    +0.134 A 
ATOM      6  C   UNL     1      -0.044   3.848   0.024  0.00  0.00    +0.059 A 
ATOM      7  C   UNL     1       1.165   3.164   0.009  0.00  0.00    +0.025 A 
ATOM      8  N   UNL     1      -0.071   5.239   0.037  0.00  0.00    -0.300 N 
ATOM      9  C   UNL     1      -1.148   5.990  -0.303  0.00  0.00    +0.121 C 
ATOM     10  N   UNL     1      -2.365   5.586  -0.337  0.00  0.00    -0.118 NA
ATOM     11  S   UNL     1      -2.756   4.020   0.046  0.00  0.00    +0.102 S 
ATOM     12  O   UNL     1      -3.215   4.028   1.391  0.00  0.00    -0.146 OA
ATOM     13  O   UNL     1      -3.539   3.518  -1.028  0.00  0.00    -0.146 OA
ATOM     14  H   UNL     1       0.823   5.804   0.338  0.00  0.00    +0.153 HD
ENDBRANCH   1   9
BRANCH   1  15
ATOM     15  C   UNL     1      -2.217   8.108  -1.024  0.00  0.00    +0.017 C 
BRANCH  15  16
ATOM     16  C   UNL     1      -1.957   9.568  -1.400  0.00  0.00    +0.096 C 
BRANCH  16  17
ATOM     17  C   UNL     1      -3.262  10.238  -1.746  0.00  0.00    +0.213 C 
ATOM     18  O   UNL     1      -4.298   9.609  -1.696  0.00  0.00    -0.276 OA
ATOM     19  N   UNL     1      -3.278  11.535  -2.110  0.00  0.00    -0.312 N 
ATOM     20  H   UNL     1      -2.339  12.105  -2.155  0.00  0.00    +0.149 HD
BRANCH  19  21
ATOM     21  C   UNL     1      -4.547  12.186  -2.445  0.00  0.00    +0.073 C 
ATOM     22  C   UNL     1      -4.883  11.921  -3.914  0.00  0.00    +0.022 C 
ATOM     23  C   UNL     1      -6.358  12.243  -4.166  0.00  0.00    +0.002 C 
ATOM     24  C   UNL     1      -7.206  11.674  -3.028  0.00  0.00    +0.000 C 
ATOM     25  C   UNL     1      -7.819  12.822  -2.224  0.00  0.00    +0.000 C 
ATOM     26  C   UNL     1      -6.747  13.446  -1.328  0.00  0.00    +0.000 C 
ATOM     27  C   UNL     1      -5.819  14.319  -2.175  0.00  0.00    +0.002 C 
ATOM     28  C   UNL     1      -4.424  13.694  -2.214  0.00  0.00    +0.022 C 
ENDBRANCH  19  21
ENDBRANCH  16  17
ENDBRANCH  15  16
ENDBRANCH   1  15
TORSDOF 5
