REMARK  Name = ZINC66769436
REMARK  4 active torsions:
REMARK  status: ('A' for Active; 'I' for Inactive)
REMARK    1  A    between atoms: C_1  and  C_2
REMARK    2  A    between atoms: C_5  and  C_7
REMARK    3  A    between atoms: C_10  and  C_12
REMARK    4  A    between atoms: C_18  and  C_20
REMARK                            x       y       z     vdW  Elec       q    Type
REMARK                         _______ _______ _______ _____ _____    ______ ____
ROOT
ATOM      1  C   UNL     1      -1.562  -5.961   1.716  0.00  0.00    +0.220 C 
ATOM      2  O   UNL     1      -1.014  -6.704   0.930  0.00  0.00    -0.275 OA
ATOM      3  N   UNL     1      -2.584  -6.412   2.470  0.00  0.00    -0.294 N 
ATOM      4  C   UNL     1      -3.340  -5.618   3.456  0.00  0.00    +0.108 C 
ATOM      5  C   UNL     1      -4.712  -6.330   3.569  0.00  0.00    +0.021 C 
ATOM      6  C   UNL     1      -4.300  -7.821   3.450  0.00  0.00    +0.029 C 
ATOM      7  C   UNL     1      -3.133  -7.776   2.442  0.00  0.00    +0.110 C 
ENDROOT
BRANCH   7   8
ATOM      8  C   UNL     1      -2.070  -8.764   2.847  0.00  0.00    +0.018 A 
ATOM      9  C   UNL     1      -1.020  -8.359   3.649  0.00  0.00    +0.009 A 
ATOM     10  C   UNL     1      -0.043  -9.263   4.023  0.00  0.00    +0.004 A 
ATOM     11  C   UNL     1      -0.113 -10.576   3.594  0.00  0.00    +0.049 A 
ATOM     12  C   UNL     1      -1.163 -10.989   2.789  0.00  0.00    +0.162 A 
ATOM     13  C   UNL     1      -2.150 -10.081   2.420  0.00  0.00    +0.167 A 
ATOM     14  O   UNL     1      -3.196 -10.469   1.641  0.00  0.00    -0.485 OA
ATOM     15  C   UNL     1      -3.045 -11.700   0.926  0.00  0.00    +0.270 C 
ATOM     16  C   UNL     1      -2.486 -12.752   1.894  0.00  0.00    +0.270 C 
ATOM     17  O   UNL     1      -1.217 -12.283   2.372  0.00  0.00    -0.485 OA
ENDBRANCH   7   8
BRANCH   1  20
ATOM     18  C   UNL     1       0.063  -4.080   0.966  0.00  0.00    +0.038 C 
ATOM     19  C   UNL     1       0.279  -4.290   2.466  0.00  0.00    +0.022 C 
ATOM     20  C   UNL     1      -1.101  -4.532   1.849  0.00  0.00    +0.084 C 
BRANCH  18  25
ATOM     21  C   UNL     1      -0.018   1.503   0.010  0.00  0.00    +0.051 C 
ATOM     22  C   UNL     1       0.002  -0.004   0.002  0.00  0.00    -0.013 A 
ATOM     23  C   UNL     1       0.010  -0.852  -1.056  0.00  0.00    +0.011 A 
ATOM     24  C   UNL     1       0.030  -2.214  -0.823  0.00  0.00    +0.012 A 
ATOM     25  C   UNL     1       0.041  -2.662   0.457  0.00  0.00    -0.006 A 
ATOM     26  S   UNL     1       0.031  -1.136   1.383  0.00  0.00    -0.098 S 
ENDBRANCH  18  25
ENDBRANCH   1  20
TORSDOF 3
