REMARK  Name = ZINC09046740
REMARK  11 active torsions:
REMARK  status: ('A' for Active; 'I' for Inactive)
REMARK    1  A    between atoms: C_1  and  N_58
REMARK    2  A    between atoms: C_2  and  N_58
REMARK    3  A    between atoms: C_3  and  C_4
REMARK    4  A    between atoms: C_3  and  N_58
REMARK    5  A    between atoms: C_4  and  C_5
REMARK    6  A    between atoms: C_5  and  N_6
REMARK    7  A    between atoms: C_7  and  C_27
REMARK    8  A    between atoms: C_10  and  C_11
REMARK    9  A    between atoms: C_10  and  O_22
REMARK   10  A    between atoms: C_17  and  O_20
REMARK   11  A    between atoms: O_20  and  C_21
REMARK                            x       y       z     vdW  Elec       q    Type
REMARK                         _______ _______ _______ _____ _____    ______ ____
ROOT
ATOM      1  N   UNL     1       3.437   1.750  -0.889  0.00  0.00    -0.284 N 
ATOM      2  C   UNL     1       2.429   1.207   0.026  0.00  0.00    +0.145 C 
ATOM      3  C   UNL     1       3.119   1.000   1.355  0.00  0.00    +0.074 C 
ATOM      4  C   UNL     1       2.553   0.503   2.518  0.00  0.00    +0.168 C 
ATOM      5  C   UNL     1       4.446   1.413   1.173  0.00  0.00    +0.249 C 
ATOM      6  O   UNL     1       5.321   1.399   2.022  0.00  0.00    -0.282 OA
ATOM      7  C   UNL     1       4.603   1.871  -0.232  0.00  0.00    +0.288 C 
ATOM      8  O   UNL     1       5.633   2.292  -0.716  0.00  0.00    -0.266 OA
ENDROOT
BRANCH   4   9
ATOM      9  C   UNL     1       3.325   0.492   3.760  0.00  0.00    +0.171 A 
ATOM     10  C   UNL     1       3.438  -0.570   4.607  0.00  0.00    +0.061 A 
ATOM     11  C   UNL     1       4.272  -0.156   5.676  0.00  0.00    +0.025 A 
ATOM     12  C   UNL     1       4.750  -0.787   6.831  0.00  0.00    +0.012 A 
ATOM     13  C   UNL     1       5.554  -0.102   7.696  0.00  0.00    +0.004 A 
ATOM     14  C   UNL     1       5.903   1.217   7.442  0.00  0.00    +0.049 A 
ATOM     15  C   UNL     1       5.443   1.861   6.308  0.00  0.00    +0.163 A 
ATOM     16  C   UNL     1       4.621   1.181   5.411  0.00  0.00    +0.177 A 
ATOM     17  O   UNL     1       4.032   1.533   4.250  0.00  0.00    -0.448 OA
BRANCH  15  18
ATOM     18  O   UNL     1       5.791   3.153   6.069  0.00  0.00    -0.491 OA
ATOM     19  C   UNL     1       6.636   3.787   7.032  0.00  0.00    +0.277 C 
ENDBRANCH  15  18
ENDBRANCH   4   9
BRANCH   2  20
ATOM     20  C   UNL     1       1.292   2.184   0.181  0.00  0.00    -0.021 A 
ATOM     21  C   UNL     1      -0.010   1.724   0.248  0.00  0.00    +0.006 A 
ATOM     22  C   UNL     1      -1.053   2.620   0.385  0.00  0.00    +0.002 A 
ATOM     23  C   UNL     1      -0.795   3.976   0.466  0.00  0.00    +0.020 A 
ATOM     24  C   UNL     1       0.508   4.436   0.399  0.00  0.00    +0.041 A 
ATOM     25  C   UNL     1       1.552   3.539   0.257  0.00  0.00    +0.025 A 
ATOM     26 CL   UNL     1       0.833   6.139   0.494  0.00  0.00    -0.084 Cl
ENDBRANCH   2  20
BRANCH   4  27
ATOM     27  O   UNL     1       1.287   0.030   2.504  0.00  0.00    -0.503 OA
ATOM     28  H   UNL     1       1.040  -0.287   3.420  0.00  0.00    +0.292 HD
ENDBRANCH   4  27
BRANCH   1  29
ATOM     29  C   UNL     1       3.210   2.103  -2.293  0.00  0.00    +0.107 C 
BRANCH  29  30
ATOM     30  C   UNL     1       2.768   3.564  -2.387  0.00  0.00    +0.000 C 
BRANCH  30  31
ATOM     31  C   UNL     1       2.531   3.933  -3.853  0.00  0.00    -0.078 C 
BRANCH  31  34
ATOM     32  C   UNL     1       3.187   6.240  -3.525  0.00  0.00    -0.097 C 
ATOM     33  C   UNL     1       1.643   5.660  -5.298  0.00  0.00    -0.097 C 
ATOM     34  N   UNL     1       2.085   5.340  -3.925  0.00  0.00    +0.376 N 
ATOM     35  H   UNL     1       1.296   5.473  -3.281  0.00  0.00    -0.083 HD
ENDBRANCH  31  34
ENDBRANCH  30  31
ENDBRANCH  29  30
ENDBRANCH   1  29
TORSDOF 8
