REMARK  Name = ZINC66402610
REMARK  7 active torsions:
REMARK  status: ('A' for Active; 'I' for Inactive)
REMARK    1  A    between atoms: C_1  and  C_2
REMARK    2  A    between atoms: C_2  and  C_3
REMARK    3  A    between atoms: C_4  and  C_12
REMARK    4  A    between atoms: C_12  and  N_13
REMARK    5  A    between atoms: N_13  and  C_14
REMARK    6  A    between atoms: N_17  and  C_18
REMARK    7  A    between atoms: C_20  and  C_26
REMARK                            x       y       z     vdW  Elec       q    Type
REMARK                         _______ _______ _______ _____ _____    ______ ____
ROOT
ATOM      1  N   UNL     1      -1.851  -1.812   2.682  0.00  0.00    -0.284 N 
ATOM      2  C   UNL     1      -2.259  -2.525   3.894  0.00  0.00    +0.134 C 
ATOM      3  C   UNL     1      -2.349  -2.179   1.484  0.00  0.00    +0.307 C 
ATOM      4  O   UNL     1      -2.086  -1.528   0.491  0.00  0.00    -0.252 OA
ATOM      5  N   UNL     1      -3.139  -3.266   1.388  0.00  0.00    -0.265 N 
ATOM      6  H   UNL     1      -3.403  -3.747   2.188  0.00  0.00    +0.157 HD
ENDROOT
BRANCH   5   7
ATOM      7  C   UNL     1      -3.579  -3.704   0.130  0.00  0.00    +0.100 A 
ATOM      8  C   UNL     1      -3.252  -4.953  -0.322  0.00  0.00    +0.042 A 
ATOM      9  C   UNL     1      -3.705  -5.365  -1.583  0.00  0.00    +0.073 A 
ATOM     10  C   UNL     1      -4.458  -4.532  -2.337  0.00  0.00    +0.098 A 
ATOM     11  N   UNL     1      -4.784  -3.291  -1.890  0.00  0.00    -0.327 N 
ATOM     12  H   UNL     1      -5.324  -2.708  -2.446  0.00  0.00    +0.168 HD
ATOM     13  C   UNL     1      -4.371  -2.863  -0.682  0.00  0.00    +0.270 A 
ATOM     14  O   UNL     1      -4.676  -1.748  -0.291  0.00  0.00    -0.266 OA
BRANCH   9  15
ATOM     15  C   UNL     1      -3.354  -6.737  -2.097  0.00  0.00    +0.419 C 
ATOM     16  F   UNL     1      -3.915  -6.917  -3.366  0.00  0.00    -0.166 F 
ATOM     17  F   UNL     1      -1.963  -6.862  -2.181  0.00  0.00    -0.166 F 
ATOM     18  F   UNL     1      -3.858  -7.707  -1.223  0.00  0.00    -0.166 F 
ENDBRANCH   9  15
ENDBRANCH   5   7
BRANCH   1  19
ATOM     19  C   UNL     1      -0.901  -0.700   2.770  0.00  0.00    +0.148 C 
BRANCH  19  21
ATOM     20  C   UNL     1       1.297  -1.307   1.634  0.00  0.00    +0.111 A 
ATOM     21  C   UNL     1       0.506  -1.235   2.713  0.00  0.00    +0.019 A 
ATOM     22  C   UNL     1       1.286  -1.783   3.829  0.00  0.00    +0.025 A 
ATOM     23  C   UNL     1       1.039  -1.983   5.186  0.00  0.00    +0.012 A 
ATOM     24  C   UNL     1       2.008  -2.533   5.978  0.00  0.00    +0.001 A 
ATOM     25  C   UNL     1       3.235  -2.892   5.440  0.00  0.00    +0.004 A 
ATOM     26  C   UNL     1       3.498  -2.702   4.100  0.00  0.00    +0.047 A 
ATOM     27  C   UNL     1       2.527  -2.145   3.277  0.00  0.00    +0.136 A 
ATOM     28  O   UNL     1       2.483  -1.847   1.964  0.00  0.00    -0.459 OA
BRANCH  20  30
ATOM     29  C   UNL     1       1.200   0.641   0.102  0.00  0.00    +0.012 C 
ATOM     30  C   UNL     1       0.910  -0.854   0.249  0.00  0.00    +0.071 C 
ENDBRANCH  20  30
ENDBRANCH  19  21
ENDBRANCH   1  19
TORSDOF 5
