REMARK  Name = ZINC64108119
REMARK  9 active torsions:
REMARK  status: ('A' for Active; 'I' for Inactive)
REMARK    1  A    between atoms: C_1  and  N_2
REMARK    2  A    between atoms: C_6  and  C_7
REMARK    3  A    between atoms: C_7  and  O_8
REMARK    4  A    between atoms: O_8  and  C_9
REMARK    5  A    between atoms: C_12  and  N_15
REMARK    6  A    between atoms: C_16  and  C_18
REMARK    7  A    between atoms: C_18  and  C_19
REMARK    8  A    between atoms: C_19  and  C_20
REMARK    9  A    between atoms: C_20  and  C_21
REMARK                            x       y       z     vdW  Elec       q    Type
REMARK                         _______ _______ _______ _____ _____    ______ ____
ROOT
ATOM      1  N   UNL     1       8.811   0.121  -0.084  0.00  0.00    -0.285 N 
ATOM      2  C   UNL     1       9.759  -0.833  -0.003  0.00  0.00    +0.217 C 
ATOM      3  O   UNL     1       9.443  -2.004  -0.011  0.00  0.00    -0.275 OA
ATOM      4  H   UNL     1       9.067   1.054  -0.155  0.00  0.00    +0.155 HD
ENDROOT
BRANCH   1   8
ATOM      5  C   UNL     1       4.778  -0.936  -0.031  0.00  0.00    +0.121 A 
ATOM      6  C   UNL     1       5.699  -1.677   0.695  0.00  0.00    +0.047 A 
ATOM      7  C   UNL     1       7.035  -1.328   0.678  0.00  0.00    +0.027 A 
ATOM      8  C   UNL     1       7.456  -0.234  -0.067  0.00  0.00    +0.034 A 
ATOM      9  C   UNL     1       6.534   0.507  -0.793  0.00  0.00    +0.027 A 
ATOM     10  C   UNL     1       5.199   0.153  -0.779  0.00  0.00    +0.047 A 
BRANCH   5  11
ATOM     11  O   UNL     1       3.463  -1.281  -0.014  0.00  0.00    -0.485 OA
BRANCH  11  12
ATOM     12  C   UNL     1       3.099  -2.413   0.778  0.00  0.00    +0.298 C 
BRANCH  12  18
ATOM     13  C   UNL     1       1.614  -4.648   2.198  0.00  0.00    +0.130 C 
ATOM     14  N   UNL     1       0.978  -3.656   1.327  0.00  0.00    -0.319 N 
ATOM     15  C   UNL     1      -0.459  -3.581   1.011  0.00  0.00    +0.127 C 
ATOM     16  C   UNL     1      -0.545  -2.364   0.069  0.00  0.00    +0.132 C 
ATOM     17  N   UNL     1       0.845  -1.900  -0.034  0.00  0.00    -0.372 N 
ATOM     18  C   UNL     1       1.613  -2.642   0.676  0.00  0.00    +0.109 C 
ATOM     19  H   UNL     1       1.139  -1.139  -0.560  0.00  0.00    +0.161 HD
ENDBRANCH  12  18
ENDBRANCH  11  12
ENDBRANCH   5  11
ENDBRANCH   1   8
BRANCH   2  20
ATOM     20  C   UNL     1      11.212  -0.445   0.098  0.00  0.00    +0.096 C 
BRANCH  20  21
ATOM     21  C   UNL     1      12.073  -1.708   0.177  0.00  0.00    +0.014 C 
BRANCH  21  22
ATOM     22  C   UNL     1      13.547  -1.314   0.280  0.00  0.00    +0.033 C 
BRANCH  22  23
ATOM     23  C   UNL     1      14.395  -2.558   0.358  0.00  0.00    -0.042 C 
ATOM     24  C   UNL     1      15.013  -3.187  -0.668  0.00  0.00    -0.001 A 
ATOM     25  C   UNL     1      15.077  -2.912  -2.108  0.00  0.00    +0.010 A 
ATOM     26  C   UNL     1      15.792  -3.741  -2.903  0.00  0.00    +0.001 A 
ATOM     27  C   UNL     1      16.471  -4.853  -2.387  0.00  0.00    +0.002 A 
ATOM     28  C   UNL     1      16.459  -5.170  -1.075  0.00  0.00    +0.026 A 
ATOM     29  C   UNL     1      15.739  -4.367  -0.148  0.00  0.00    +0.043 A 
ATOM     30  N   UNL     1      15.576  -4.465   1.150  0.00  0.00    -0.380 N 
ATOM     31  C   UNL     1      14.733  -3.352   1.600  0.00  0.00    +0.144 C 
ATOM     32  H   UNL     1      15.954  -5.155   1.717  0.00  0.00    +0.160 HD
ENDBRANCH  22  23
ENDBRANCH  21  22
ENDBRANCH  20  21
ENDBRANCH   2  20
TORSDOF 8
