REMARK  Name = ZINC63295493
REMARK  8 active torsions:
REMARK  status: ('A' for Active; 'I' for Inactive)
REMARK    1  A    between atoms: C_1  and  C_2
REMARK    2  A    between atoms: C_4  and  C_19
REMARK    3  A    between atoms: C_7  and  C_10
REMARK    4  A    between atoms: C_11  and  O_17
REMARK    5  A    between atoms: O_17  and  C_18
REMARK    6  A    between atoms: N_21  and  C_22
REMARK    7  A    between atoms: C_22  and  C_23
REMARK    8  A    between atoms: C_23  and  C_24
REMARK                            x       y       z     vdW  Elec       q    Type
REMARK                         _______ _______ _______ _____ _____    ______ ____
ROOT
ATOM      1  C   UNL     1      -0.019   1.526   0.010  0.00  0.00    +0.025 C 
ATOM      2  C   UNL     1       0.002  -0.004   0.002  0.00  0.00    +0.074 C 
ATOM      3  C   UNL     1       0.702  -0.500  -1.297  0.00  0.00    +0.150 C 
ATOM      4  S   UNL     1       1.162  -2.198  -0.728  0.00  0.00    -0.123 S 
ATOM      5  C   UNL     1       1.384  -1.794   1.056  0.00  0.00    +0.150 C 
ATOM      6  N   UNL     1       0.713  -0.483   1.189  0.00  0.00    -0.297 NA
ATOM      7  H   UNL     1       1.352   0.217   1.535  0.00  0.00    +0.124 HD
ENDROOT
BRANCH   5   8
ATOM      8  C   UNL     1       0.717  -2.830   1.924  0.00  0.00    +0.056 A 
ATOM      9  C   UNL     1       0.642  -4.148   1.499  0.00  0.00    +0.128 A 
ATOM     10  C   UNL     1       0.027  -5.099   2.300  0.00  0.00    +0.046 A 
ATOM     11  C   UNL     1      -0.509  -4.733   3.519  0.00  0.00    +0.006 A 
ATOM     12  C   UNL     1      -0.434  -3.420   3.943  0.00  0.00    +0.039 A 
ATOM     13  C   UNL     1       0.184  -2.468   3.149  0.00  0.00    +0.132 A 
ATOM     14  F   UNL     1       0.262  -1.186   3.567  0.00  0.00    -0.205 F 
BRANCH   9  15
ATOM     15  O   UNL     1       1.169  -4.507   0.299  0.00  0.00    -0.495 OA
ATOM     16  C   UNL     1       1.055  -5.881  -0.075  0.00  0.00    +0.277 C 
ENDBRANCH   9  15
ENDBRANCH   5   8
BRANCH   3  17
ATOM     17  C   UNL     1      -0.255  -0.544  -2.461  0.00  0.00    +0.228 C 
ATOM     18  O   UNL     1      -1.433  -0.756  -2.269  0.00  0.00    -0.275 OA
ATOM     19  N   UNL     1       0.199  -0.348  -3.714  0.00  0.00    -0.314 N 
ATOM     20  H   UNL     1       1.142  -0.178  -3.868  0.00  0.00    +0.149 HD
BRANCH  19  21
ATOM     21  C   UNL     1      -0.731  -0.391  -4.845  0.00  0.00    +0.108 C 
BRANCH  21  22
ATOM     22  C   UNL     1       0.035  -0.139  -6.146  0.00  0.00    +0.052 C 
BRANCH  22  23
ATOM     23  C   UNL     1      -0.922  -0.183  -7.309  0.00  0.00    -0.040 C 
ATOM     24  C   UNL     1      -1.536   0.869  -7.897  0.00  0.00    -0.001 A 
ATOM     25  C   UNL     1      -1.500   2.314  -7.638  0.00  0.00    +0.010 A 
ATOM     26  C   UNL     1      -2.241   3.138  -8.412  0.00  0.00    +0.001 A 
ATOM     27  C   UNL     1      -3.042   2.648  -9.453  0.00  0.00    +0.002 A 
ATOM     28  C   UNL     1      -3.128   1.334  -9.752  0.00  0.00    +0.026 A 
ATOM     29  C   UNL     1      -2.389   0.378  -9.002  0.00  0.00    +0.043 A 
ATOM     30  N   UNL     1      -2.306  -0.927  -9.094  0.00  0.00    -0.380 N 
ATOM     31  C   UNL     1      -1.384  -1.411  -8.060  0.00  0.00    +0.144 C 
ATOM     32  H   UNL     1      -2.772  -1.480  -9.740  0.00  0.00    +0.160 HD
ENDBRANCH  22  23
ENDBRANCH  21  22
ENDBRANCH  19  21
ENDBRANCH   3  17
TORSDOF 6
