REMARK  Name = ZINC38966590
REMARK  7 active torsions:
REMARK  status: ('A' for Active; 'I' for Inactive)
REMARK    1  A    between atoms: C_1  and  C_2
REMARK    2  A    between atoms: C_2  and  C_3
REMARK    3  A    between atoms: C_2  and  C_4
REMARK    4  A    between atoms: C_7  and  N_10
REMARK    5  A    between atoms: N_10  and  C_11
REMARK    6  A    between atoms: N_14  and  S_15
REMARK    7  A    between atoms: S_15  and  C_18
REMARK                            x       y       z     vdW  Elec       q    Type
REMARK                         _______ _______ _______ _____ _____    ______ ____
ROOT
ATOM      1  C   UNL     1       2.026  -2.653   5.614  0.00  0.00    +0.237 C 
ATOM      2  C   UNL     1       2.897  -3.826   6.005  0.00  0.00    +0.192 C 
ATOM      3  N   UNL     1       3.293  -4.682   5.110  0.00  0.00    -0.110 NA
ATOM      4  N   UNL     1       3.256  -3.970   7.291  0.00  0.00    -0.226 NA
ATOM      5  C   UNL     1       2.869  -3.117   8.216  0.00  0.00    +0.089 A 
ATOM      6  C   UNL     1       3.268  -3.300   9.565  0.00  0.00    +0.030 A 
ATOM      7  C   UNL     1       2.873  -2.428  10.518  0.00  0.00    +0.002 A 
ATOM      8  C   UNL     1       2.064  -1.313  10.240  0.00  0.00    +0.002 A 
ATOM      9  C   UNL     1       1.628  -1.046   8.989  0.00  0.00    +0.027 A 
ATOM     10  C   UNL     1       2.014  -1.948   7.894  0.00  0.00    +0.063 A 
ATOM     11  N   UNL     1       1.614  -1.721   6.675  0.00  0.00    -0.359 N 
ATOM     12  H   UNL     1       1.056  -0.954   6.471  0.00  0.00    +0.162 HD
ENDROOT
BRANCH   3  13
ATOM     13  S   UNL     1       4.246  -5.962   5.552  0.00  0.00    +0.103 S 
ATOM     14  O   UNL     1       5.487  -5.416   5.976  0.00  0.00    -0.146 OA
ATOM     15  O   UNL     1       3.452  -6.789   6.390  0.00  0.00    -0.146 OA
BRANCH  13  16
ATOM     16  C   UNL     1       4.578  -6.893   4.093  0.00  0.00    +0.141 A 
ATOM     17  C   UNL     1       5.845  -6.988   3.626  0.00  0.00    +0.031 A 
ATOM     18  C   UNL     1       6.144  -7.716   2.475  0.00  0.00    +0.004 A 
ATOM     19  C   UNL     1       5.181  -8.360   1.774  0.00  0.00    +0.031 A 
ATOM     20  C   UNL     1       3.828  -8.304   2.206  0.00  0.00    +0.102 A 
ATOM     21  C   UNL     1       3.515  -7.547   3.413  0.00  0.00    +0.127 A 
ATOM     22  N   UNL     1       2.219  -7.569   3.725  0.00  0.00    -0.189 NA
ATOM     23  S   UNL     1       1.514  -8.466   2.591  0.00  0.00    +0.117 S 
ATOM     24  N   UNL     1       2.755  -8.869   1.649  0.00  0.00    -0.191 NA
ENDBRANCH  13  16
ENDBRANCH   3  13
BRANCH   1  25
ATOM     25  N   UNL     1       2.745  -1.883   4.596  0.00  0.00    -0.318 N 
ATOM     26  H   UNL     1       3.661  -1.605   4.754  0.00  0.00    +0.148 HD
BRANCH  25  30
ATOM     27  C   UNL     1       0.856  -0.885   1.022  0.00  0.00    -0.045 A 
ATOM     28  C   UNL     1       0.129  -1.459   2.050  0.00  0.00    +0.006 A 
ATOM     29  C   UNL     1       0.753  -1.791   3.236  0.00  0.00    +0.023 A 
ATOM     30  C   UNL     1       2.111  -1.548   3.397  0.00  0.00    +0.029 A 
ATOM     31  C   UNL     1       2.838  -0.972   2.363  0.00  0.00    +0.023 A 
ATOM     32  C   UNL     1       2.209  -0.647   1.177  0.00  0.00    +0.006 A 
BRANCH  27  34
ATOM     33  C   UNL     1      -0.434  -1.781  -0.896  0.00  0.00    +0.012 C 
ATOM     34  C   UNL     1       0.172  -0.523  -0.271  0.00  0.00    +0.013 C 
ATOM     35  C   UNL     1      -0.937   0.494   0.005  0.00  0.00    +0.012 C 
ENDBRANCH  27  34
ENDBRANCH  25  30
ENDBRANCH   1  25
TORSDOF 5
