REMARK  Name = ZINC40010985
REMARK  13 active torsions:
REMARK  status: ('A' for Active; 'I' for Inactive)
REMARK    1  A    between atoms: C_1  and  C_2
REMARK    2  A    between atoms: C_5  and  C_36
REMARK    3  A    between atoms: C_10  and  C_14
REMARK    4  A    between atoms: C_18  and  O_34
REMARK    5  A    between atoms: C_19  and  O_32
REMARK    6  A    between atoms: N_24  and  C_25
REMARK    7  A    between atoms: C_25  and  N_27
REMARK    8  A    between atoms: N_27  and  C_28
REMARK    9  A    between atoms: C_28  and  C_29
REMARK   10  A    between atoms: C_29  and  O_30
REMARK   11  A    between atoms: O_30  and  C_31
REMARK   12  A    between atoms: O_32  and  C_33
REMARK   13  A    between atoms: O_34  and  C_35
REMARK                            x       y       z     vdW  Elec       q    Type
REMARK                         _______ _______ _______ _____ _____    ______ ____
ROOT
ATOM      1  C   UNL     1       1.265  -0.582   4.522  0.00  0.00    +0.121 C 
ATOM      2  C   UNL     1       1.156  -1.175   5.905  0.00  0.00    -0.019 A 
ATOM      3  C   UNL     1       0.216  -0.628   6.769  0.00  0.00    +0.055 A 
ATOM      4  C   UNL     1       0.060  -1.133   8.047  0.00  0.00    +0.162 A 
ATOM      5  C   UNL     1       0.851  -2.199   8.466  0.00  0.00    +0.162 A 
ATOM      6  C   UNL     1       1.788  -2.736   7.603  0.00  0.00    +0.053 A 
ATOM      7  C   UNL     1       1.946  -2.222   6.321  0.00  0.00    -0.037 A 
ATOM      8  C   UNL     1       3.006  -2.843   5.449  0.00  0.00    +0.054 C 
ATOM      9  C   UNL     1       2.749  -2.531   3.975  0.00  0.00    +0.112 C 
ATOM     10  N   UNL     1       2.471  -1.091   3.861  0.00  0.00    -0.304 N 
ENDROOT
BRANCH   1  20
ATOM     11  C   UNL     1       0.321   1.012  -0.269  0.00  0.00    +0.044 C 
ATOM     12  C   UNL     1       0.215  -0.481  -0.091  0.00  0.00    -0.042 A 
ATOM     13  C   UNL     1       0.203  -1.306  -1.170  0.00  0.00    +0.004 A 
ATOM     14  C   UNL     1       0.107  -2.690  -1.025  0.00  0.00    +0.005 A 
ATOM     15  C   UNL     1       0.018  -3.296   0.188  0.00  0.00    -0.029 A 
ATOM     16  C   UNL     1       0.022  -2.532   1.369  0.00  0.00    +0.043 A 
ATOM     17  N   UNL     1      -0.065  -3.137   2.554  0.00  0.00    -0.284 N 
ATOM     18  C   UNL     1      -0.067  -2.480   3.702  0.00  0.00    +0.226 C 
ATOM     19  O   UNL     1      -0.148  -3.087   4.753  0.00  0.00    -0.275 OA
ATOM     20  C   UNL     1       0.032  -0.971   3.703  0.00  0.00    +0.123 C 
ATOM     21  C   UNL     1       0.131  -0.278   2.358  0.00  0.00    -0.002 C 
ATOM     22  C   UNL     1       0.129  -1.068   1.246  0.00  0.00    -0.004 A 
ATOM     23  C   UNL     1      -0.084  -4.797   0.269  0.00  0.00    +0.045 C 
ATOM     24  H   UNL     1      -0.129  -4.104   2.575  0.00  0.00    +0.155 HD
ENDBRANCH   1  20
BRANCH  10  25
ATOM     25  C   UNL     1       3.292  -0.272   3.173  0.00  0.00    +0.133 C 
ATOM     26  S   UNL     1       4.618  -0.920   2.306  0.00  0.00    -0.019 S 
BRANCH  25  27
ATOM     27  N   UNL     1       3.068   1.057   3.169  0.00  0.00    -0.324 N 
ATOM     28  H   UNL     1       2.362   1.432   3.718  0.00  0.00    +0.148 HD
BRANCH  27  29
ATOM     29  C   UNL     1       3.892   1.935   2.334  0.00  0.00    +0.131 C 
BRANCH  29  30
ATOM     30  C   UNL     1       3.435   3.384   2.512  0.00  0.00    +0.178 C 
BRANCH  30  31
ATOM     31  O   UNL     1       3.682   3.800   3.857  0.00  0.00    -0.381 OA
ATOM     32  C   UNL     1       3.289   5.146   4.131  0.00  0.00    +0.194 C 
ENDBRANCH  30  31
ENDBRANCH  29  30
ENDBRANCH  27  29
ENDBRANCH  25  27
ENDBRANCH  10  25
BRANCH   5  33
ATOM     33  O   UNL     1       0.704  -2.708   9.718  0.00  0.00    -0.491 OA
ATOM     34  C   UNL     1       1.552  -3.801  10.078  0.00  0.00    +0.277 C 
ENDBRANCH   5  33
BRANCH   4  35
ATOM     35  O   UNL     1      -0.861  -0.592   8.889  0.00  0.00    -0.491 OA
ATOM     36  C   UNL     1      -1.636   0.499   8.388  0.00  0.00    +0.277 C 
ENDBRANCH   4  35
TORSDOF 8
