REMARK  Name = ZINC02347170
REMARK  12 active torsions:
REMARK  status: ('A' for Active; 'I' for Inactive)
REMARK    1  A    between atoms: C_1  and  C_2
REMARK    2  A    between atoms: C_2  and  N_3
REMARK    3  A    between atoms: N_3  and  C_4
REMARK    4  A    between atoms: C_5  and  C_16
REMARK    5  A    between atoms: C_12  and  C_15
REMARK    6  A    between atoms: N_20  and  C_24
REMARK    7  A    between atoms: C_24  and  C_25
REMARK    8  A    between atoms: C_25  and  C_26
REMARK    9  A    between atoms: C_29  and  O_34
REMARK   10  A    between atoms: C_30  and  O_32
REMARK   11  A    between atoms: O_32  and  C_33
REMARK   12  A    between atoms: O_34  and  C_35
REMARK                            x       y       z     vdW  Elec       q    Type
REMARK                         _______ _______ _______ _____ _____    ______ ____
ROOT
ATOM      1  C   UNL     1      -3.688   5.838   0.069  0.00  0.00    +0.037 C 
ATOM      2  C   UNL     1      -4.864   5.152  -0.026  0.00  0.00    +0.077 C 
ATOM      3  C   UNL     1      -6.196   5.647  -0.121  0.00  0.00    +0.258 C 
ATOM      4  O   UNL     1      -6.420   6.844  -0.124  0.00  0.00    -0.269 OA
ATOM      5  N   UNL     1      -7.181   4.770  -0.209  0.00  0.00    -0.255 N 
ATOM      6  C   UNL     1      -6.932   3.442  -0.197  0.00  0.00    +0.121 C 
ATOM      7  S   UNL     1      -8.041   2.141  -0.291  0.00  0.00    -0.027 S 
ATOM      8  S   UNL     1      -5.152   3.388  -0.059  0.00  0.00    -0.061 S 
ENDROOT
BRANCH   1  10
ATOM      9  C   UNL     1      -2.132   4.301  -1.059  0.00  0.00    +0.134 A 
ATOM     10  C   UNL     1      -2.457   5.141   0.032  0.00  0.00    +0.081 A 
ATOM     11  C   UNL     1      -1.520   5.267   1.085  0.00  0.00    +0.267 A 
ATOM     12  O   UNL     1      -1.759   5.979   2.045  0.00  0.00    -0.267 OA
ATOM     13  N   UNL     1      -0.358   4.583   1.010  0.00  0.00    -0.267 N 
ATOM     14  C   UNL     1       0.548   4.695   2.022  0.00  0.00    +0.096 A 
ATOM     15  C   UNL     1       1.724   4.029   1.975  0.00  0.00    +0.019 A 
ATOM     16  C   UNL     1       2.021   3.204   0.881  0.00  0.00    +0.008 A 
ATOM     17  C   UNL     1       1.119   3.082  -0.134  0.00  0.00    -0.007 A 
ATOM     18  C   UNL     1      -0.096   3.786  -0.070  0.00  0.00    +0.145 A 
ATOM     19  N   UNL     1      -0.972   3.661  -1.067  0.00  0.00    -0.214 NA
ATOM     20  C   UNL     1       1.423   2.198  -1.316  0.00  0.00    +0.047 C 
BRANCH   9  21
ATOM     21  N   UNL     1      -3.015   4.151  -2.106  0.00  0.00    -0.329 N 
ATOM     22  H   UNL     1      -3.864   4.621  -2.096  0.00  0.00    +0.147 HD
BRANCH  21  24
ATOM     23  C   UNL     1      -3.816   3.290  -4.250  0.00  0.00    +0.024 C 
ATOM     24  C   UNL     1      -2.673   3.280  -3.233  0.00  0.00    +0.099 C 
ENDBRANCH  21  24
ENDBRANCH   9  21
ENDBRANCH   1  10
BRANCH   5  25
ATOM     25  C   UNL     1      -8.563   5.245  -0.313  0.00  0.00    +0.119 C 
BRANCH  25  26
ATOM     26  C   UNL     1      -9.155   5.403   1.088  0.00  0.00    +0.054 C 
BRANCH  26  27
ATOM     27  C   UNL     1     -10.577   5.891   0.981  0.00  0.00    -0.042 A 
ATOM     28  C   UNL     1     -11.614   4.981   0.895  0.00  0.00    +0.007 A 
ATOM     29  C   UNL     1     -12.920   5.424   0.796  0.00  0.00    +0.049 A 
ATOM     30  C   UNL     1     -13.192   6.783   0.783  0.00  0.00    +0.161 A 
ATOM     31  C   UNL     1     -12.148   7.699   0.869  0.00  0.00    +0.162 A 
ATOM     32  C   UNL     1     -10.841   7.248   0.973  0.00  0.00    +0.053 A 
BRANCH  31  33
ATOM     33  O   UNL     1     -12.409   9.033   0.857  0.00  0.00    -0.491 OA
ATOM     34  C   UNL     1     -11.288   9.915   0.949  0.00  0.00    +0.277 C 
ENDBRANCH  31  33
BRANCH  30  35
ATOM     35  O   UNL     1     -14.476   7.220   0.686  0.00  0.00    -0.491 OA
ATOM     36  C   UNL     1     -15.496   6.224   0.601  0.00  0.00    +0.277 C 
ENDBRANCH  30  35
ENDBRANCH  26  27
ENDBRANCH  25  26
ENDBRANCH   5  25
TORSDOF 8
