REMARK  Name = ZINC12439440
REMARK  12 active torsions:
REMARK  status: ('A' for Active; 'I' for Inactive)
REMARK    1  A    between atoms: C_1  and  N_67
REMARK    2  A    between atoms: C_2  and  C_3
REMARK    3  A    between atoms: C_2  and  N_67
REMARK    4  A    between atoms: C_9  and  C_10
REMARK    5  A    between atoms: C_9  and  N_69
REMARK    6  A    between atoms: C_10  and  C_11
REMARK    7  A    between atoms: C_14  and  O_17
REMARK    8  A    between atoms: O_17  and  C_18
REMARK    9  A    between atoms: C_19  and  C_20
REMARK   10  A    between atoms: C_19  and  N_67
REMARK   11  A    between atoms: C_26  and  O_30
REMARK   12  A    between atoms: O_30  and  C_31
REMARK                            x       y       z     vdW  Elec       q    Type
REMARK                         _______ _______ _______ _____ _____    ______ ____
ROOT
ATOM      1  C   UNL     1      -5.211   7.253   1.228  0.00  0.00    -0.077 C 
ENDROOT
BRANCH   1   2
ATOM      2  C   UNL     1      -5.419   7.688   2.680  0.00  0.00    -0.044 C 
ATOM      3  C   UNL     1      -5.440   6.453   3.585  0.00  0.00    -0.002 C 
ATOM      4  C   UNL     1      -5.709   6.891   5.027  0.00  0.00    -0.018 C 
ATOM      5  C   UNL     1      -7.034   7.655   5.085  0.00  0.00    -0.079 C 
ATOM      6  C   UNL     1      -6.753   8.428   2.805  0.00  0.00    -0.077 C 
ATOM      7  N   UNL     1      -6.940   8.845   4.212  0.00  0.00    +0.380 N 
ATOM      8  H   UNL     1      -6.133   9.408   4.502  0.00  0.00    -0.082 HD
BRANCH   7   9
ATOM      9  C   UNL     1      -8.165   9.661   4.337  0.00  0.00    -0.074 C 
BRANCH   9  10
ATOM     10  C   UNL     1      -8.493   9.848   5.820  0.00  0.00    +0.016 C 
BRANCH  10  11
ATOM     11  C   UNL     1      -9.726  10.703   5.957  0.00  0.00    -0.049 A 
ATOM     12  C   UNL     1      -9.606  12.078   6.053  0.00  0.00    +0.007 A 
ATOM     13  C   UNL     1     -10.736  12.864   6.173  0.00  0.00    +0.046 A 
ATOM     14  C   UNL     1     -11.990  12.273   6.210  0.00  0.00    +0.120 A 
ATOM     15  C   UNL     1     -12.107  10.893   6.120  0.00  0.00    +0.046 A 
ATOM     16  C   UNL     1     -10.975  10.112   5.994  0.00  0.00    +0.007 A 
BRANCH  14  17
ATOM     17  O   UNL     1     -13.103  13.043   6.334  0.00  0.00    -0.495 OA
ATOM     18  C   UNL     1     -12.906  14.456   6.421  0.00  0.00    +0.277 C 
ENDBRANCH  14  17
ENDBRANCH  10  11
ENDBRANCH   9  10
ENDBRANCH   7   9
ENDBRANCH   1   2
BRANCH   1  20
ATOM     19  C   UNL     1      -2.823   7.644   1.306  0.00  0.00    -0.096 C 
ATOM     20  N   UNL     1      -3.877   6.628   1.104  0.00  0.00    +0.381 N 
ATOM     21  H   UNL     1      -3.781   5.901   1.823  0.00  0.00    -0.082 HD
BRANCH  20  22
ATOM     22  C   UNL     1      -3.732   6.008  -0.229  0.00  0.00    -0.044 C 
BRANCH  22  23
ATOM     23  C   UNL     1      -2.463   5.195  -0.252  0.00  0.00    -0.049 C 
ATOM     24  C   UNL     1      -2.504   3.895   0.025  0.00  0.00    +0.012 C 
ATOM     25  C   UNL     1      -1.235   3.138   0.030  0.00  0.00    +0.020 A 
ATOM     26  C   UNL     1      -1.220   1.746   0.017  0.00  0.00    +0.012 A 
ATOM     27  C   UNL     1      -0.013   1.076   0.008  0.00  0.00    +0.004 A 
ATOM     28  C   UNL     1       1.179   1.780   0.000  0.00  0.00    +0.049 A 
ATOM     29  C   UNL     1       1.175   3.167   0.013  0.00  0.00    +0.162 A 
ATOM     30  C   UNL     1      -0.031   3.852   0.033  0.00  0.00    +0.169 A 
ATOM     31  O   UNL     1      -0.071   5.209   0.081  0.00  0.00    -0.484 OA
ATOM     32  C   UNL     1      -1.153   5.857  -0.587  0.00  0.00    +0.258 C 
BRANCH  29  33
ATOM     33  O   UNL     1       2.350   3.853   0.006  0.00  0.00    -0.491 OA
ATOM     34  C   UNL     1       3.552   3.081  -0.014  0.00  0.00    +0.277 C 
ENDBRANCH  29  33
ENDBRANCH  22  23
ENDBRANCH  20  22
ENDBRANCH   1  20
TORSDOF 9
