REMARK  Name = ZINC08853475
REMARK  9 active torsions:
REMARK  status: ('A' for Active; 'I' for Inactive)
REMARK    1  A    between atoms: C_1  and  C_2
REMARK    2  A    between atoms: C_2  and  O_3
REMARK    3  A    between atoms: O_3  and  C_4
REMARK    4  A    between atoms: C_6  and  C_11
REMARK    5  A    between atoms: C_9  and  O_10
REMARK    6  A    between atoms: C_12  and  N_20
REMARK    7  A    between atoms: C_21  and  C_22
REMARK    8  A    between atoms: N_24  and  C_31
REMARK    9  A    between atoms: C_31  and  C_32
REMARK                            x       y       z     vdW  Elec       q    Type
REMARK                         _______ _______ _______ _____ _____    ______ ____
ROOT
ATOM      1  C   UNL     1      -0.203  -4.961  -0.510  0.00  0.00    +0.091 A 
ATOM      2  C   UNL     1      -0.960  -6.101  -0.254  0.00  0.00    +0.163 A 
ATOM      3  N   UNL     1      -1.287  -6.636  -1.479  0.00  0.00    -0.286 N 
ATOM      4  C   UNL     1      -2.007  -7.739  -1.838  0.00  0.00    +0.094 A 
ATOM      5  C   UNL     1      -2.186  -8.050  -3.139  0.00  0.00    +0.018 A 
ATOM      6  C   UNL     1      -1.632  -7.240  -4.143  0.00  0.00    +0.005 A 
ATOM      7  C   UNL     1      -0.912  -6.138  -3.801  0.00  0.00    +0.045 A 
ATOM      8  C   UNL     1      -0.732  -5.824  -2.438  0.00  0.00    +0.117 A 
ATOM      9  N   UNL     1      -0.095  -4.828  -1.838  0.00  0.00    -0.338 N 
ATOM     10  H   UNL     1       0.379  -4.113  -2.292  0.00  0.00    +0.167 HD
ENDROOT
BRANCH   1  13
ATOM     11  C   UNL     1       0.802  -1.825   1.306  0.00  0.00    +0.162 A 
ATOM     12  C   UNL     1       0.261  -2.670   0.354  0.00  0.00    +0.059 A 
ATOM     13  C   UNL     1       0.375  -4.052   0.506  0.00  0.00    +0.006 A 
ATOM     14  C   UNL     1       1.034  -4.576   1.619  0.00  0.00    +0.014 A 
ATOM     15  C   UNL     1       1.571  -3.729   2.565  0.00  0.00    +0.050 A 
ATOM     16  C   UNL     1       1.463  -2.355   2.411  0.00  0.00    +0.158 A 
BRANCH  16  17
ATOM     17  O   UNL     1       1.999  -1.523   3.344  0.00  0.00    -0.503 OA
ATOM     18  H   UNL     1       1.393  -1.296   4.063  0.00  0.00    +0.292 HD
ENDBRANCH  16  17
BRANCH  11  19
ATOM     19  O   UNL     1       0.693  -0.477   1.160  0.00  0.00    -0.489 OA
BRANCH  19  21
ATOM     20  C   UNL     1      -0.019   1.526   0.010  0.00  0.00    +0.048 C 
ATOM     21  C   UNL     1       0.002  -0.004   0.002  0.00  0.00    +0.226 C 
ENDBRANCH  19  21
ENDBRANCH  11  19
ENDBRANCH   1  13
BRANCH   2  22
ATOM     22  N   UNL     1      -1.304  -6.588   0.959  0.00  0.00    -0.235 NA
ATOM     23  C   UNL     1      -0.525  -7.447   1.565  0.00  0.00    +0.123 C 
BRANCH  23  24
ATOM     24  C   UNL     1      -0.899  -7.975   2.881  0.00  0.00    +0.018 A 
ATOM     25  C   UNL     1      -0.192  -8.866   3.634  0.00  0.00    +0.096 A 
ATOM     26  N   UNL     1      -0.858  -9.116   4.794  0.00  0.00    -0.342 N 
ATOM     27  C   UNL     1      -2.031  -8.392   4.838  0.00  0.00    +0.050 A 
ATOM     28  C   UNL     1      -2.111  -7.642   3.653  0.00  0.00    +0.008 A 
ATOM     29  C   UNL     1      -3.200  -6.806   3.428  0.00  0.00    +0.010 A 
ATOM     30  C   UNL     1      -4.198  -6.715   4.374  0.00  0.00    +0.001 A 
ATOM     31  C   UNL     1      -4.119  -7.452   5.547  0.00  0.00    +0.002 A 
ATOM     32  C   UNL     1      -3.050  -8.289   5.779  0.00  0.00    +0.026 A 
BRANCH  26  33
ATOM     33  C   UNL     1      -0.395 -10.025   5.845  0.00  0.00    +0.157 C 
BRANCH  33  34
ATOM     34  C   UNL     1      -1.022 -11.381   5.648  0.00  0.00    -0.028 A 
ATOM     35  C   UNL     1      -2.235 -11.675   6.241  0.00  0.00    +0.005 A 
ATOM     36  C   UNL     1      -2.810 -12.919   6.061  0.00  0.00    +0.000 A 
ATOM     37  C   UNL     1      -2.171 -13.869   5.286  0.00  0.00    +0.000 A 
ATOM     38  C   UNL     1      -0.958 -13.575   4.692  0.00  0.00    +0.000 A 
ATOM     39  C   UNL     1      -0.386 -12.330   4.869  0.00  0.00    +0.005 A 
ENDBRANCH  33  34
ENDBRANCH  26  33
ENDBRANCH  23  24
ENDBRANCH   2  22
TORSDOF 8
