REMARK  Name = ZINC40063160
REMARK  5 active torsions:
REMARK  status: ('A' for Active; 'I' for Inactive)
REMARK    1  A    between atoms: C_1  and  C_2
REMARK    2  A    between atoms: C_12  and  C_13
REMARK    3  A    between atoms: N_16  and  C_26
REMARK    4  A    between atoms: C_17  and  C_19
REMARK    5  A    between atoms: C_26  and  C_27
REMARK                            x       y       z     vdW  Elec       q    Type
REMARK                         _______ _______ _______ _____ _____    ______ ____
ROOT
ATOM      1  C   UNL     1       0.090   1.869   0.939  0.00  0.00    +0.044 C 
ATOM      2  C   UNL     1       0.130   0.371   0.784  0.00  0.00    -0.044 A 
ATOM      3  C   UNL     1       0.225  -0.184  -0.484  0.00  0.00    +0.004 A 
ATOM      4  C   UNL     1       0.259  -1.542  -0.640  0.00  0.00    +0.015 A 
ATOM      5  C   UNL     1       0.199  -2.369   0.481  0.00  0.00    +0.065 A 
ATOM      6  C   UNL     1       0.221  -3.846   0.329  0.00  0.00    +0.199 A 
ATOM      7  O   UNL     1       0.461  -4.404  -0.727  0.00  0.00    -0.287 OA
ATOM      8  C   UNL     1      -0.073  -4.568   1.571  0.00  0.00    +0.072 A 
ATOM      9  C   UNL     1      -0.142  -3.913   2.768  0.00  0.00    +0.199 A 
ATOM     10  O   UNL     1       0.061  -2.586   2.883  0.00  0.00    -0.449 OA
ATOM     11  C   UNL     1       0.109  -1.818   1.770  0.00  0.00    +0.143 A 
ATOM     12  C   UNL     1       0.079  -0.430   1.903  0.00  0.00    -0.005 A 
ATOM     13  C   UNL     1      -0.018   0.194   3.272  0.00  0.00    +0.048 C 
ATOM     14  C   UNL     1      -0.458  -4.898   3.817  0.00  0.00    +0.283 C 
ATOM     15  O   UNL     1      -0.593  -4.640   4.996  0.00  0.00    -0.267 OA
ATOM     16  N   UNL     1      -0.577  -6.128   3.277  0.00  0.00    -0.281 N 
ATOM     17  C   UNL     1      -0.343  -6.014   1.828  0.00  0.00    +0.145 C 
ENDROOT
BRANCH  17  18
ATOM     18  C   UNL     1      -1.566  -6.458   1.067  0.00  0.00    -0.021 A 
ATOM     19  C   UNL     1      -2.823  -6.069   1.492  0.00  0.00    +0.006 A 
ATOM     20  C   UNL     1      -3.945  -6.476   0.794  0.00  0.00    +0.001 A 
ATOM     21  C   UNL     1      -3.811  -7.272  -0.328  0.00  0.00    +0.015 A 
ATOM     22  C   UNL     1      -2.554  -7.662  -0.753  0.00  0.00    +0.018 A 
ATOM     23  C   UNL     1      -1.430  -7.250  -0.057  0.00  0.00    +0.021 A 
ATOM     24 BR   UNL     1      -2.369  -8.752  -2.287  0.00  0.00    -0.050 Br
ENDBRANCH  17  18
BRANCH  16  25
ATOM     25  C   UNL     1      -0.884  -7.362   4.005  0.00  0.00    +0.140 C 
BRANCH  25  26
ATOM     26  C   UNL     1       0.417  -8.086   4.354  0.00  0.00    +0.136 C 
ATOM     27  C   UNL     1       0.100  -9.431   5.042  0.00  0.00    +0.035 C 
ATOM     28  C   UNL     1       1.197  -9.507   6.139  0.00  0.00    +0.031 C 
ATOM     29  C   UNL     1       1.345  -8.010   6.511  0.00  0.00    +0.160 C 
ATOM     30  O   UNL     1       1.181  -7.297   5.273  0.00  0.00    -0.375 OA
ENDBRANCH  25  26
ENDBRANCH  16  25
TORSDOF 3
