REMARK  Name = ZINC39722229
REMARK  7 active torsions:
REMARK  status: ('A' for Active; 'I' for Inactive)
REMARK    1  A    between atoms: C_1  and  C_2
REMARK    2  A    between atoms: C_2  and  C_3
REMARK    3  A    between atoms: C_6  and  N_9
REMARK    4  A    between atoms: C_10  and  S_21
REMARK    5  A    between atoms: S_21  and  C_22
REMARK    6  A    between atoms: C_22  and  C_23
REMARK    7  A    between atoms: C_31  and  C_35
REMARK                            x       y       z     vdW  Elec       q    Type
REMARK                         _______ _______ _______ _____ _____    ______ ____
ROOT
ATOM      1  N   UNL     1       2.746  -1.883   4.598  0.00  0.00    -0.239 N 
ATOM      2  C   UNL     1       2.015  -2.046   5.854  0.00  0.00    +0.227 C 
ATOM      3  N   UNL     1       2.896  -1.771   6.995  0.00  0.00    -0.317 N 
ATOM      4  C   UNL     1       4.188  -2.285   6.982  0.00  0.00    +0.041 A 
ATOM      5  C   UNL     1       4.861  -2.595   8.152  0.00  0.00    +0.024 A 
ATOM      6  C   UNL     1       6.148  -3.093   8.089  0.00  0.00    +0.002 A 
ATOM      7  C   UNL     1       6.771  -3.283   6.865  0.00  0.00    +0.001 A 
ATOM      8  C   UNL     1       6.113  -2.984   5.691  0.00  0.00    +0.015 A 
ATOM      9  C   UNL     1       4.813  -2.485   5.739  0.00  0.00    +0.058 A 
ATOM     10  C   UNL     1       4.058  -2.178   4.511  0.00  0.00    +0.255 C 
ATOM     11  O   UNL     1       4.615  -2.186   3.429  0.00  0.00    -0.269 OA
ATOM     12  H   UNL     1       2.582  -1.241   7.745  0.00  0.00    +0.149 HD
ENDROOT
BRANCH   1  16
ATOM     13  C   UNL     1       0.730  -0.502   1.224  0.00  0.00    -0.048 A 
ATOM     14  C   UNL     1       0.811  -1.860   1.472  0.00  0.00    +0.005 A 
ATOM     15  C   UNL     1       1.478  -2.321   2.589  0.00  0.00    +0.024 A 
ATOM     16  C   UNL     1       2.069  -1.419   3.465  0.00  0.00    +0.039 A 
ATOM     17  C   UNL     1       1.987  -0.056   3.213  0.00  0.00    +0.024 A 
ATOM     18  C   UNL     1       1.322   0.398   2.091  0.00  0.00    +0.005 A 
BRANCH  13  20
ATOM     19  C   UNL     1       0.978   0.095  -1.170  0.00  0.00    +0.009 C 
ATOM     20  C   UNL     1       0.001  -0.002   0.004  0.00  0.00    +0.032 C 
ENDBRANCH  13  20
ENDBRANCH   1  16
BRANCH   2  21
ATOM     21  S   UNL     1       1.397  -3.747   5.974  0.00  0.00    -0.111 S 
BRANCH  21  22
ATOM     22  C   UNL     1       2.898  -4.764   5.918  0.00  0.00    +0.146 C 
BRANCH  22  23
ATOM     23  C   UNL     1       2.522  -6.221   6.010  0.00  0.00    +0.120 A 
ATOM     24  N   UNL     1       3.517  -7.145   5.990  0.00  0.00    -0.310 N 
ATOM     25  H   UNL     1       4.440  -6.857   5.917  0.00  0.00    +0.170 HD
ATOM     26  C   UNL     1       3.232  -8.466   6.070  0.00  0.00    +0.259 A 
ATOM     27  O   UNL     1       4.113  -9.305   6.053  0.00  0.00    -0.267 OA
ATOM     28  C   UNL     1       1.813  -8.848   6.179  0.00  0.00    +0.065 A 
ATOM     29  C   UNL     1       1.417 -10.181   6.267  0.00  0.00    +0.016 A 
ATOM     30  C   UNL     1       0.090 -10.491   6.367  0.00  0.00    +0.016 A 
ATOM     31  C   UNL     1      -0.879  -9.479   6.381  0.00  0.00    +0.065 A 
ATOM     32  C   UNL     1      -0.504  -8.143   6.294  0.00  0.00    +0.043 A 
ATOM     33  C   UNL     1       0.850  -7.816   6.192  0.00  0.00    +0.079 A 
ATOM     34  N   UNL     1       1.264  -6.527   6.109  0.00  0.00    -0.233 NA
BRANCH  31  35
ATOM     35  C   UNL     1      -2.309  -9.835   6.490  0.00  0.00    +0.387 C 
ATOM     36  O   UNL     1      -2.643 -11.008   6.567  0.00  0.00    -0.241 OA
ATOM     37  O   UNL     1      -3.158  -8.955   6.503  0.00  0.00    -0.241 OA
ENDBRANCH  31  35
ENDBRANCH  22  23
ENDBRANCH  21  22
ENDBRANCH   2  21
TORSDOF 6
