REMARK  Name = ZINC12369013
REMARK  9 active torsions:
REMARK  status: ('A' for Active; 'I' for Inactive)
REMARK    1  A    between atoms: C_6  and  C_7
REMARK    2  A    between atoms: C_7  and  N_46
REMARK    3  A    between atoms: C_8  and  C_9
REMARK    4  A    between atoms: C_8  and  N_46
REMARK    5  A    between atoms: C_9  and  C_11
REMARK    6  A    between atoms: C_9  and  O_27
REMARK    7  A    between atoms: C_11  and  O_12
REMARK    8  A    between atoms: O_12  and  N_13
REMARK    9  A    between atoms: C_14  and  C_15
REMARK                            x       y       z     vdW  Elec       q    Type
REMARK                         _______ _______ _______ _____ _____    ______ ____
ROOT
ATOM      1  C   UNL     1      -1.295  -0.603   0.011  0.00  0.00    +0.292 C 
ENDROOT
BRANCH   1   2
ATOM      2  C   UNL     1      -1.154  -2.126   0.002  0.00  0.00    +0.138 C 
BRANCH   2   3
ATOM      3  O   UNL     1      -0.554  -2.542  -1.227  0.00  0.00    -0.390 OA
ATOM      4  H   UNL     1      -1.061  -2.297  -2.014  0.00  0.00    +0.210 HD
ENDBRANCH   2   3
BRANCH   2   5
ATOM      5  C   UNL     1      -2.536  -2.768   0.137  0.00  0.00    -0.047 C 
BRANCH   5   6
ATOM      6  N   UNL     1      -2.382  -4.231   0.248  0.00  0.00    +0.383 N 
ATOM      7  H   UNL     1      -1.913  -4.587  -0.593  0.00  0.00    -0.085 HD
ATOM      8  H   UNL     1      -1.813  -4.449   1.075  0.00  0.00    -0.085 HD
BRANCH   6   9
ATOM      9  C   UNL     1      -3.701  -4.877   0.380  0.00  0.00    -0.047 C 
BRANCH   9  15
ATOM     10  C   UNL     1      -3.503  -7.150  -0.648  0.00  0.00    +0.003 A 
ATOM     11  C   UNL     1      -3.324  -8.517  -0.547  0.00  0.00    +0.020 A 
ATOM     12  C   UNL     1      -3.166  -9.103   0.696  0.00  0.00    +0.041 A 
ATOM     13  C   UNL     1      -3.181  -8.320   1.837  0.00  0.00    +0.020 A 
ATOM     14  C   UNL     1      -3.354  -6.953   1.734  0.00  0.00    +0.003 A 
ATOM     15  C   UNL     1      -3.512  -6.367   0.492  0.00  0.00    -0.064 A 
ATOM     16 CL   UNL     1      -2.948 -10.821   0.824  0.00  0.00    -0.084 Cl
ENDBRANCH   9  15
ENDBRANCH   6   9
ENDBRANCH   5   6
ENDBRANCH   2   5
ENDBRANCH   1   2
BRANCH   1  17
ATOM     17  O   UNL     1       0.002  -0.004   0.002  0.00  0.00    -0.391 OA
BRANCH  17  18
ATOM     18  N   UNL     1      -0.017   1.412   0.010  0.00  0.00    -0.093 NA
ATOM     19  C   UNL     1       1.099   2.076   0.003  0.00  0.00    +0.161 C 
BRANCH  19  20
ATOM     20  C   UNL     1       1.079   3.538   0.011  0.00  0.00    +0.030 C 
ATOM     21  C   UNL     1      -0.103   4.203   0.026  0.00  0.00    +0.060 C 
ATOM     22  C   UNL     1      -0.064   5.676   0.013  0.00  0.00    +0.037 A 
ATOM     23  C   UNL     1      -1.180   6.436   0.357  0.00  0.00    +0.033 A 
ATOM     24  C   UNL     1      -1.098   7.814   0.333  0.00  0.00    +0.042 A 
ATOM     25  C   UNL     1       0.085   8.438  -0.031  0.00  0.00    +0.023 A 
ATOM     26  C   UNL     1       1.198   7.692  -0.375  0.00  0.00    +0.048 A 
ATOM     27  C   UNL     1       1.133   6.311  -0.356  0.00  0.00    +0.130 A 
ATOM     28  O   UNL     1       2.207   5.551  -0.688  0.00  0.00    -0.487 OA
ATOM     29  C   UNL     1       2.371   4.312   0.009  0.00  0.00    +0.267 C 
ATOM     30 CL   UNL     1      -2.482   8.770   0.761  0.00  0.00    -0.084 Cl
ATOM     31 CL   UNL     1      -1.613   3.347   0.058  0.00  0.00    -0.082 Cl
ENDBRANCH  19  20
ENDBRANCH  17  18
ENDBRANCH   1  17
TORSDOF 9
