REMARK  Name = ZINC60239006
REMARK  12 active torsions:
REMARK  status: ('A' for Active; 'I' for Inactive)
REMARK    1  A    between atoms: C_1  and  C_2
REMARK    2  A    between atoms: C_2  and  N_3
REMARK    3  A    between atoms: N_3  and  C_4
REMARK    4  A    between atoms: N_3  and  S_6
REMARK    5  A    between atoms: C_4  and  C_5
REMARK    6  A    between atoms: S_6  and  C_9
REMARK    7  A    between atoms: C_13  and  C_15
REMARK    8  A    between atoms: N_17  and  C_18
REMARK    9  A    between atoms: C_18  and  C_19
REMARK   10  A    between atoms: C_19  and  C_21
REMARK   11  A    between atoms: C_19  and  N_28
REMARK   12  A    between atoms: C_24  and  C_27
REMARK                            x       y       z     vdW  Elec       q    Type
REMARK                         _______ _______ _______ _____ _____    ______ ____
ROOT
ATOM      1  C   UNL     1      -6.182   2.304   1.662  0.00  0.00    +0.245 C 
ATOM      2  O   UNL     1      -6.647   3.404   1.885  0.00  0.00    -0.270 OA
ATOM      3  N   UNL     1      -6.904   1.392   0.981  0.00  0.00    -0.313 N 
ATOM      4  H   UNL     1      -6.532   0.513   0.803  0.00  0.00    +0.149 HD
ENDROOT
BRANCH   1   9
ATOM      5  C   UNL     1      -3.018   0.394   2.329  0.00  0.00    +0.106 A 
ATOM      6  C   UNL     1      -2.278   1.333   3.027  0.00  0.00    +0.030 A 
ATOM      7  C   UNL     1      -2.803   2.586   3.283  0.00  0.00    +0.022 A 
ATOM      8  C   UNL     1      -4.072   2.909   2.842  0.00  0.00    +0.053 A 
ATOM      9  C   UNL     1      -4.824   1.966   2.136  0.00  0.00    +0.057 A 
ATOM     10  C   UNL     1      -4.283   0.705   1.877  0.00  0.00    +0.043 A 
ATOM     11 CL   UNL     1      -4.731   4.482   3.164  0.00  0.00    -0.083 Cl
BRANCH   5  12
ATOM     12  S   UNL     1      -2.338  -1.200   2.009  0.00  0.00    +0.061 S 
ATOM     13  O   UNL     1      -3.437  -2.077   1.808  0.00  0.00    -0.153 OA
ATOM     14  O   UNL     1      -1.353  -1.429   3.008  0.00  0.00    -0.153 OA
BRANCH  12  15
ATOM     15  N   UNL     1      -1.534  -1.108   0.564  0.00  0.00    -0.177 NA
BRANCH  15  17
ATOM     16  C   UNL     1       0.012   0.766   0.286  0.00  0.00    +0.022 C 
ATOM     17  C   UNL     1      -0.117  -0.738   0.536  0.00  0.00    +0.106 C 
ENDBRANCH  15  17
BRANCH  15  18
ATOM     18  C   UNL     1      -2.240  -1.398  -0.686  0.00  0.00    +0.106 C 
ATOM     19  C   UNL     1      -2.016  -2.862  -1.071  0.00  0.00    +0.022 C 
ENDBRANCH  15  18
ENDBRANCH  12  15
ENDBRANCH   5  12
ENDBRANCH   1   9
BRANCH   3  20
ATOM     20  C   UNL     1      -8.250   1.726   0.510  0.00  0.00    +0.094 C 
BRANCH  20  21
ATOM     21  C   UNL     1      -8.793   0.577  -0.341  0.00  0.00    -0.020 C 
BRANCH  21  22
ATOM     22  C   UNL     1      -7.966   0.445  -1.593  0.00  0.00    -0.059 A 
ATOM     23  C   UNL     1      -8.184   1.298  -2.659  0.00  0.00    +0.002 A 
ATOM     24  C   UNL     1      -7.425   1.177  -3.808  0.00  0.00    +0.003 A 
ATOM     25  C   UNL     1      -6.448   0.203  -3.891  0.00  0.00    -0.050 A 
ATOM     26  C   UNL     1      -6.229  -0.650  -2.825  0.00  0.00    +0.003 A 
ATOM     27  C   UNL     1      -6.985  -0.526  -1.675  0.00  0.00    +0.002 A 
ATOM     28  C   UNL     1      -5.621   0.070  -5.144  0.00  0.00    +0.044 C 
ENDBRANCH  21  22
BRANCH  21  29
ATOM     29  N   UNL     1     -10.190   0.853  -0.703  0.00  0.00    +0.385 N 
ATOM     30  C   UNL     1     -10.738  -0.261  -1.518  0.00  0.00    -0.078 C 
ATOM     31  C   UNL     1     -12.269  -0.116  -1.333  0.00  0.00    -0.020 C 
ATOM     32  C   UNL     1     -12.399   0.314   0.147  0.00  0.00    -0.020 C 
ATOM     33  C   UNL     1     -11.030   0.914   0.513  0.00  0.00    -0.078 C 
ATOM     34  H   UNL     1     -10.252   1.722  -1.213  0.00  0.00    -0.081 HD
ENDBRANCH  21  29
ENDBRANCH  20  21
ENDBRANCH   3  20
TORSDOF 9
