REMARK  Name = ZINC40053124
REMARK  10 active torsions:
REMARK  status: ('A' for Active; 'I' for Inactive)
REMARK    1  A    between atoms: C_1  and  O_2
REMARK    2  A    between atoms: O_2  and  C_3
REMARK    3  A    between atoms: C_5  and  C_11
REMARK    4  A    between atoms: C_8  and  O_9
REMARK    5  A    between atoms: C_13  and  C_23
REMARK    6  A    between atoms: N_17  and  C_18
REMARK    7  A    between atoms: C_18  and  C_19
REMARK    8  A    between atoms: C_19  and  C_20
REMARK    9  A    between atoms: C_20  and  O_21
REMARK   10  A    between atoms: C_23  and  C_25
REMARK                            x       y       z     vdW  Elec       q    Type
REMARK                         _______ _______ _______ _____ _____    ______ ____
ROOT
ATOM      1  C   UNL     1      -4.788  -0.085  -0.041  0.00  0.00    +0.145 C 
ATOM      2  C   UNL     1      -5.343   0.400   1.278  0.00  0.00    +0.079 C 
ATOM      3  C   UNL     1      -6.642   0.024   1.316  0.00  0.00    +0.249 C 
ATOM      4  C   UNL     1      -6.977  -0.695   0.071  0.00  0.00    +0.288 C 
ATOM      5  O   UNL     1      -8.068  -1.159  -0.195  0.00  0.00    -0.266 OA
ATOM      6  N   UNL     1      -5.895  -0.761  -0.728  0.00  0.00    -0.283 N 
ATOM      7  O   UNL     1      -7.499   0.268   2.335  0.00  0.00    -0.282 OA
ENDROOT
BRANCH   1  10
ATOM      8  C   UNL     1      -2.825  -3.067   1.195  0.00  0.00    +0.163 A 
ATOM      9  C   UNL     1      -3.863  -2.176   0.976  0.00  0.00    +0.055 A 
ATOM     10  C   UNL     1      -3.657  -1.053   0.197  0.00  0.00    -0.018 A 
ATOM     11  C   UNL     1      -2.417  -0.815  -0.365  0.00  0.00    +0.025 A 
ATOM     12  C   UNL     1      -1.376  -1.700  -0.150  0.00  0.00    +0.063 A 
ATOM     13  C   UNL     1      -1.575  -2.825   0.635  0.00  0.00    +0.173 A 
ATOM     14 BR   UNL     1       0.319  -1.373  -0.921  0.00  0.00    -0.046 Br
BRANCH   8  16
ATOM     15  C   UNL     1      -4.361  -4.415   2.412  0.00  0.00    +0.277 C 
ATOM     16  O   UNL     1      -3.026  -4.173   1.961  0.00  0.00    -0.491 OA
ENDBRANCH   8  16
BRANCH  13  17
ATOM     17  O   UNL     1      -0.551  -3.694   0.853  0.00  0.00    -0.503 OA
ATOM     18  H   UNL     1      -0.489  -4.401   0.196  0.00  0.00    +0.292 HD
ENDBRANCH  13  17
ENDBRANCH   1  10
BRANCH   2  19
ATOM     19  C   UNL     1      -4.614   1.136   2.316  0.00  0.00    +0.230 C 
ATOM     20  O   UNL     1      -5.144   1.361   3.390  0.00  0.00    -0.283 OA
BRANCH  19  21
ATOM     21  C   UNL     1      -3.245   1.604   2.061  0.00  0.00    +0.176 A 
ATOM     22  C   UNL     1      -2.427   2.176   2.987  0.00  0.00    +0.061 A 
ATOM     23  C   UNL     1      -1.178   2.477   2.291  0.00  0.00    +0.021 A 
ATOM     24  C   UNL     1       0.035   3.057   2.674  0.00  0.00    +0.011 A 
ATOM     25  C   UNL     1       1.037   3.200   1.756  0.00  0.00    +0.001 A 
ATOM     26  C   UNL     1       0.857   2.773   0.447  0.00  0.00    +0.004 A 
ATOM     27  C   UNL     1      -0.331   2.199   0.049  0.00  0.00    +0.047 A 
ATOM     28  C   UNL     1      -1.365   2.043   0.965  0.00  0.00    +0.136 A 
ATOM     29  O   UNL     1      -2.606   1.526   0.876  0.00  0.00    -0.452 OA
ENDBRANCH  19  21
ENDBRANCH   2  19
BRANCH   6  30
ATOM     30  C   UNL     1      -5.832  -1.394  -2.048  0.00  0.00    +0.111 C 
BRANCH  30  31
ATOM     31  C   UNL     1      -5.431  -2.862  -1.891  0.00  0.00    +0.047 C 
BRANCH  31  32
ATOM     32  C   UNL     1      -5.366  -3.523  -3.269  0.00  0.00    +0.157 C 
BRANCH  32  33
ATOM     33  O   UNL     1      -4.991  -4.894  -3.123  0.00  0.00    -0.395 OA
ATOM     34  H   UNL     1      -4.929  -5.377  -3.958  0.00  0.00    +0.209 HD
ENDBRANCH  32  33
ENDBRANCH  31  32
ENDBRANCH  30  31
ENDBRANCH   6  30
TORSDOF 9
