REMARK  Name = ZINC58297937
REMARK  9 active torsions:
REMARK  status: ('A' for Active; 'I' for Inactive)
REMARK    1  A    between atoms: C_1  and  C_2
REMARK    2  A    between atoms: C_14  and  C_16
REMARK    3  A    between atoms: C_16  and  N_17
REMARK    4  A    between atoms: N_17  and  C_18
REMARK    5  A    between atoms: N_17  and  C_19
REMARK    6  A    between atoms: C_19  and  C_21
REMARK    7  A    between atoms: C_19  and  C_22
REMARK    8  A    between atoms: C_26  and  S_28
REMARK    9  A    between atoms: S_28  and  N_31
REMARK                            x       y       z     vdW  Elec       q    Type
REMARK                         _______ _______ _______ _____ _____    ______ ____
ROOT
ATOM      1  N   UNL     1      -2.271  -4.205   4.049  0.00  0.00    +0.388 N 
ATOM      2  C   UNL     1      -3.326  -5.044   3.466  0.00  0.00    -0.095 C 
ATOM      3  H   UNL     1      -2.666  -3.325   4.346  0.00  0.00    -0.081 HD
ENDROOT
BRANCH   1   4
ATOM      4  C   UNL     1      -1.681  -4.892   5.206  0.00  0.00    -0.040 C 
ATOM      5  C   UNL     1      -0.581  -4.018   5.812  0.00  0.00    -0.008 C 
BRANCH   4   6
ATOM      6  C   UNL     1      -2.749  -5.145   6.238  0.00  0.00    -0.059 A 
ATOM      7  C   UNL     1      -3.709  -4.182   6.490  0.00  0.00    +0.002 A 
ATOM      8  C   UNL     1      -4.688  -4.414   7.437  0.00  0.00    +0.002 A 
ATOM      9  C   UNL     1      -4.709  -5.609   8.132  0.00  0.00    +0.028 A 
ATOM     10  C   UNL     1      -3.750  -6.571   7.880  0.00  0.00    +0.105 A 
ATOM     11  C   UNL     1      -2.773  -6.341   6.930  0.00  0.00    +0.030 A 
BRANCH  10  12
ATOM     12  S   UNL     1      -3.776  -8.094   8.767  0.00  0.00    +0.056 S 
ATOM     13  O   UNL     1      -2.450  -8.605   8.734  0.00  0.00    -0.153 OA
ATOM     14  O   UNL     1      -4.467  -7.844   9.983  0.00  0.00    -0.153 OA
BRANCH  12  15
ATOM     15  N   UNL     1      -4.712  -9.150   7.899  0.00  0.00    -0.204 NA
ATOM     16  H   UNL     1      -4.530 -10.102   7.936  0.00  0.00    +0.144 HD
ATOM     17  H   UNL     1      -5.442  -8.816   7.355  0.00  0.00    +0.144 HD
ENDBRANCH  12  15
ENDBRANCH  10  12
ENDBRANCH   4   6
ENDBRANCH   1   4
BRANCH   1  18
ATOM     18  C   UNL     1      -1.229  -3.958   3.042  0.00  0.00    +0.020 C 
BRANCH  18  31
ATOM     19  C   UNL     1      -0.019   1.526   0.010  0.00  0.00    +0.019 C 
ATOM     20  C   UNL     1       0.002  -0.004   0.002  0.00  0.00    +0.050 C 
ATOM     21  C   UNL     1      -1.426  -0.528   0.007  0.00  0.00    +0.033 C 
ATOM     22  C   UNL     1      -1.573  -2.005  -0.245  0.00  0.00    +0.115 C 
ATOM     23  N   UNL     1      -1.028  -2.798   0.868  0.00  0.00    -0.272 N 
ATOM     24  C   UNL     1       0.319  -3.182   0.816  0.00  0.00    +0.050 A 
ATOM     25  C   UNL     1       0.648  -4.508   0.560  0.00  0.00    +0.024 A 
ATOM     26  C   UNL     1       1.977  -4.878   0.462  0.00  0.00    +0.002 A 
ATOM     27  C   UNL     1       2.984  -3.941   0.612  0.00  0.00    +0.001 A 
ATOM     28  C   UNL     1       2.666  -2.621   0.886  0.00  0.00    +0.016 A 
ATOM     29  C   UNL     1       1.338  -2.259   1.007  0.00  0.00    +0.030 A 
ATOM     30  S   UNL     1       0.888  -0.603   1.472  0.00  0.00    -0.120 S 
ATOM     31  C   UNL     1      -1.806  -3.146   1.912  0.00  0.00    +0.203 C 
ATOM     32  O   UNL     1      -2.970  -2.806   1.941  0.00  0.00    -0.277 OA
ENDBRANCH  18  31
ENDBRANCH   1  18
TORSDOF 6
