REMARK  Name = ZINC06443579
REMARK  12 active torsions:
REMARK  status: ('A' for Active; 'I' for Inactive)
REMARK    1  A    between atoms: C_1  and  C_2
REMARK    2  A    between atoms: C_12  and  C_14
REMARK    3  A    between atoms: C_14  and  C_16
REMARK    4  A    between atoms: C_14  and  N_66
REMARK    5  A    between atoms: N_20  and  C_21
REMARK    6  A    between atoms: C_21  and  C_22
REMARK    7  A    between atoms: C_21  and  C_23
REMARK    8  A    between atoms: C_21  and  C_24
REMARK    9  A    between atoms: C_25  and  C_26
REMARK   10  A    between atoms: C_25  and  N_66
REMARK   11  A    between atoms: C_32  and  C_33
REMARK   12  A    between atoms: C_32  and  N_66
REMARK                            x       y       z     vdW  Elec       q    Type
REMARK                         _______ _______ _______ _____ _____    ______ ____
ROOT
ATOM      1  C   UNL     1      -0.098  -3.489   5.123  0.00  0.00    +0.040 C 
ENDROOT
BRANCH   1  13
ATOM      2  C   UNL     1      -0.349  -1.598  -1.167  0.00  0.00    +0.046 C 
ATOM      3  C   UNL     1       0.739  -1.472  -0.133  0.00  0.00    -0.026 A 
ATOM      4  C   UNL     1       1.938  -0.875  -0.459  0.00  0.00    +0.005 A 
ATOM      5  C   UNL     1       2.946  -0.747   0.486  0.00  0.00    +0.001 A 
ATOM      6  C   UNL     1       2.773  -1.222   1.756  0.00  0.00    +0.010 A 
ATOM      7  C   UNL     1       1.568  -1.837   2.108  0.00  0.00    -0.001 A 
ATOM      8  C   UNL     1       0.540  -1.962   1.153  0.00  0.00    +0.052 A 
ATOM      9  N   UNL     1      -0.646  -2.570   1.506  0.00  0.00    -0.322 N 
ATOM     10  H   UNL     1      -1.353  -2.655   0.847  0.00  0.00    +0.169 HD
ATOM     11  C   UNL     1      -0.838  -3.044   2.749  0.00  0.00    +0.251 A 
ATOM     12  O   UNL     1      -1.900  -3.575   3.025  0.00  0.00    -0.268 OA
ATOM     13  C   UNL     1       0.160  -2.943   3.742  0.00  0.00    +0.011 A 
ATOM     14  C   UNL     1       1.349  -2.357   3.459  0.00  0.00    +0.017 A 
ENDBRANCH   1  13
BRANCH   1  15
ATOM     15  C   UNL     1       1.148  -3.351   5.958  0.00  0.00    +0.143 A 
ATOM     16  N   UNL     1       1.610  -2.250   6.500  0.00  0.00    -0.115 NA
ATOM     17  N   UNL     1       2.692  -2.542   7.135  0.00  0.00    -0.023 NA
ATOM     18  N   UNL     1       2.933  -3.801   7.013  0.00  0.00    -0.043 NA
ATOM     19  N   UNL     1       2.001  -4.336   6.299  0.00  0.00    -0.225 N 
BRANCH  19  20
ATOM     20  C   UNL     1       1.893  -5.748   5.926  0.00  0.00    +0.059 C 
ATOM     21  C   UNL     1       1.792  -5.867   4.404  0.00  0.00    +0.036 C 
ATOM     22  C   UNL     1       3.131  -6.501   6.416  0.00  0.00    +0.036 C 
ATOM     23  C   UNL     1       0.642  -6.351   6.569  0.00  0.00    +0.036 C 
ENDBRANCH  19  20
ENDBRANCH   1  15
BRANCH   1  24
ATOM     24  N   UNL     1      -1.217  -2.742   5.734  0.00  0.00    +0.397 N 
ATOM     25  H   UNL     1      -2.062  -2.886   5.169  0.00  0.00    -0.079 HD
BRANCH  24  26
ATOM     26  C   UNL     1      -1.466  -3.236   7.105  0.00  0.00    -0.041 C 
BRANCH  26  27
ATOM     27  C   UNL     1      -2.805  -2.724   7.569  0.00  0.00    -0.064 A 
ATOM     28  C   UNL     1      -2.883  -1.544   8.285  0.00  0.00    +0.002 A 
ATOM     29  C   UNL     1      -4.111  -1.071   8.706  0.00  0.00    +0.000 A 
ATOM     30  C   UNL     1      -5.261  -1.784   8.421  0.00  0.00    +0.000 A 
ATOM     31  C   UNL     1      -5.183  -2.966   7.710  0.00  0.00    +0.000 A 
ATOM     32  C   UNL     1      -3.954  -3.436   7.284  0.00  0.00    +0.002 A 
ENDBRANCH  26  27
ENDBRANCH  24  26
BRANCH  24  33
ATOM     33  C   UNL     1      -0.902  -1.298   5.767  0.00  0.00    -0.001 C 
BRANCH  33  34
ATOM     34  C   UNL     1      -1.363  -0.677   4.474  0.00  0.00    +0.089 A 
ATOM     35  C   UNL     1      -2.616  -0.276   4.196  0.00  0.00    +0.042 A 
ATOM     36  C   UNL     1      -2.598   0.243   2.881  0.00  0.00    +0.041 A 
ATOM     37  C   UNL     1      -1.335   0.127   2.434  0.00  0.00    +0.195 A 
ATOM     38  O   UNL     1      -0.590  -0.425   3.405  0.00  0.00    -0.470 OA
ENDBRANCH  33  34
ENDBRANCH  24  33
ENDBRANCH   1  24
TORSDOF 8
