REMARK  Name = ZINC63373214
REMARK  5 active torsions:
REMARK  status: ('A' for Active; 'I' for Inactive)
REMARK    1  A    between atoms: C_1  and  C_2
REMARK    2  A    between atoms: C_2  and  C_3
REMARK    3  A    between atoms: C_6  and  C_9
REMARK    4  A    between atoms: N_15  and  C_30
REMARK    5  A    between atoms: C_18  and  C_29
REMARK                            x       y       z     vdW  Elec       q    Type
REMARK                         _______ _______ _______ _____ _____    ______ ____
ROOT
ATOM      1  C   UNL     1      -5.134  -2.036  -0.092  0.00  0.00    +0.065 C 
ATOM      2  C   UNL     1      -6.138  -0.991  -0.619  0.00  0.00    +0.123 C 
ATOM      3  N   UNL     1      -6.918  -1.616  -1.691  0.00  0.00    -0.268 N 
ATOM      4  C   UNL     1      -8.249  -1.753  -1.771  0.00  0.00    +0.317 C 
ATOM      5  O   UNL     1      -9.033  -1.224  -1.008  0.00  0.00    -0.252 OA
ATOM      6  N   UNL     1      -8.616  -2.542  -2.791  0.00  0.00    -0.192 N 
ATOM      7  C   UNL     1      -7.553  -2.931  -3.525  0.00  0.00    +0.253 C 
ATOM      8  O   UNL     1      -7.557  -3.670  -4.487  0.00  0.00    -0.272 OA
ATOM      9  C   UNL     1      -6.355  -2.253  -2.899  0.00  0.00    +0.137 C 
ATOM     10  C   UNL     1      -5.325  -3.286  -2.444  0.00  0.00    +0.139 C 
ATOM     11  C   UNL     1      -5.321  -3.283  -0.920  0.00  0.00    -0.027 C 
ATOM     12  C   UNL     1      -5.525  -4.544  -0.545  0.00  0.00    -0.000 A 
ATOM     13  C   UNL     1      -5.538  -5.178   0.782  0.00  0.00    +0.010 A 
ATOM     14  C   UNL     1      -5.803  -6.511   0.806  0.00  0.00    +0.001 A 
ATOM     15  C   UNL     1      -6.053  -7.267  -0.344  0.00  0.00    +0.002 A 
ATOM     16  C   UNL     1      -6.053  -6.767  -1.605  0.00  0.00    +0.026 A 
ATOM     17  C   UNL     1      -5.779  -5.377  -1.760  0.00  0.00    +0.043 A 
ATOM     18  N   UNL     1      -5.688  -4.644  -2.852  0.00  0.00    -0.375 N 
ATOM     19  C   UNL     1      -5.745  -1.217  -3.844  0.00  0.00    +0.044 C 
ATOM     20  H   UNL     1      -5.835  -4.943  -3.763  0.00  0.00    +0.160 HD
ENDROOT
BRANCH   6  21
ATOM     21  C   UNL     1      -9.940  -2.916  -3.061  0.00  0.00    +0.047 A 
ATOM     22  C   UNL     1     -10.981  -2.371  -2.321  0.00  0.00    +0.024 A 
ATOM     23  C   UNL     1     -12.284  -2.741  -2.589  0.00  0.00    +0.003 A 
ATOM     24  C   UNL     1     -12.554  -3.653  -3.593  0.00  0.00    +0.020 A 
ATOM     25  C   UNL     1     -11.518  -4.198  -4.332  0.00  0.00    +0.043 A 
ATOM     26  C   UNL     1     -10.212  -3.828  -4.071  0.00  0.00    +0.044 A 
ATOM     27 CL   UNL     1     -11.860  -5.343  -5.591  0.00  0.00    -0.083 Cl
ENDBRANCH   6  21
BRANCH   1  31
ATOM     28  C   UNL     1      -1.144  -0.576  -0.533  0.00  0.00    -0.048 A 
ATOM     29  C   UNL     1      -1.916  -0.826  -1.652  0.00  0.00    +0.004 A 
ATOM     30  C   UNL     1      -3.207  -1.299  -1.509  0.00  0.00    +0.004 A 
ATOM     31  C   UNL     1      -3.726  -1.522  -0.247  0.00  0.00    -0.039 A 
ATOM     32  C   UNL     1      -2.954  -1.273   0.872  0.00  0.00    +0.004 A 
ATOM     33  C   UNL     1      -1.661  -0.804   0.729  0.00  0.00    +0.004 A 
BRANCH  28  35
ATOM     34  C   UNL     1       1.232  -1.242  -0.784  0.00  0.00    +0.009 C 
ATOM     35  C   UNL     1       0.264  -0.061  -0.688  0.00  0.00    +0.032 C 
ENDBRANCH  28  35
ENDBRANCH   1  31
TORSDOF 3
