REMARK  Name = ZINC58897870
REMARK  5 active torsions:
REMARK  status: ('A' for Active; 'I' for Inactive)
REMARK    1  A    between atoms: C_3  and  N_7
REMARK    2  A    between atoms: C_10  and  C_11
REMARK    3  A    between atoms: C_13  and  O_17
REMARK    4  A    between atoms: C_21  and  C_22
REMARK    5  A    between atoms: C_24  and  O_28
REMARK                            x       y       z     vdW  Elec       q    Type
REMARK                         _______ _______ _______ _____ _____    ______ ____
ROOT
ATOM      1  N   UNL     1       3.312   2.033   1.295  0.00  0.00    -0.308 N 
ATOM      2  C   UNL     1       3.288   3.366   0.675  0.00  0.00    +0.145 C 
ATOM      3  C   UNL     1       4.525   4.120   1.125  0.00  0.00    +0.017 C 
ATOM      4  C   UNL     1       4.467   5.406   1.527  0.00  0.00    +0.017 C 
ATOM      5  C   UNL     1       5.801   3.367   1.099  0.00  0.00    +0.188 C 
ATOM      6  O   UNL     1       6.847   3.869   0.726  0.00  0.00    -0.287 OA
ATOM      7  C   UNL     1       5.716   1.962   1.558  0.00  0.00    +0.017 C 
ATOM      8  C   UNL     1       6.674   1.407   2.329  0.00  0.00    +0.017 C 
ATOM      9  C   UNL     1       4.497   1.181   1.119  0.00  0.00    +0.145 C 
ENDROOT
BRANCH   1  12
ATOM     10  C   UNL     1       1.129  -0.153   3.261  0.00  0.00    +0.005 A 
ATOM     11  C   UNL     1       2.212   0.278   2.517  0.00  0.00    +0.042 A 
ATOM     12  C   UNL     1       2.229   1.586   2.044  0.00  0.00    +0.099 A 
ATOM     13  N   UNL     1       1.224   2.409   2.300  0.00  0.00    -0.350 N 
ATOM     14  C   UNL     1       0.179   2.025   3.007  0.00  0.00    +0.084 A 
ATOM     15  C   UNL     1       0.096   0.741   3.508  0.00  0.00    +0.018 A 
ATOM     16  H   UNL     1       1.258   3.317   1.960  0.00  0.00    +0.166 HD
ENDBRANCH   1  12
BRANCH   4  17
ATOM     17  C   UNL     1       3.222   6.173   1.365  0.00  0.00    -0.021 A 
ATOM     18  C   UNL     1       2.849   7.118   2.325  0.00  0.00    +0.053 A 
ATOM     19  C   UNL     1       1.676   7.834   2.164  0.00  0.00    +0.117 A 
ATOM     20  C   UNL     1       0.873   7.614   1.052  0.00  0.00    +0.045 A 
ATOM     21  C   UNL     1       1.239   6.680   0.101  0.00  0.00    +0.004 A 
ATOM     22  C   UNL     1       2.409   5.963   0.246  0.00  0.00    +0.008 A 
BRANCH  19  23
ATOM     23  O   UNL     1       1.309   8.754   3.096  0.00  0.00    -0.507 OA
ATOM     24  H   UNL     1       1.645   9.644   2.923  0.00  0.00    +0.292 HD
ENDBRANCH  19  23
ENDBRANCH   4  17
BRANCH   8  25
ATOM     25  C   UNL     1       6.641  -0.035   2.621  0.00  0.00    -0.021 A 
ATOM     26  C   UNL     1       6.272  -0.945   1.625  0.00  0.00    +0.053 A 
ATOM     27  C   UNL     1       6.244  -2.299   1.908  0.00  0.00    +0.117 A 
ATOM     28  C   UNL     1       6.582  -2.752   3.177  0.00  0.00    +0.045 A 
ATOM     29  C   UNL     1       6.947  -1.855   4.164  0.00  0.00    +0.004 A 
ATOM     30  C   UNL     1       6.984  -0.502   3.894  0.00  0.00    +0.008 A 
BRANCH  27  31
ATOM     31  O   UNL     1       5.886  -3.186   0.943  0.00  0.00    -0.507 OA
ATOM     32  H   UNL     1       6.626  -3.513   0.414  0.00  0.00    +0.292 HD
ENDBRANCH  27  31
ENDBRANCH   8  25
TORSDOF 5
