REMARK  Name = ZINC66455968
REMARK  9 active torsions:
REMARK  status: ('A' for Active; 'I' for Inactive)
REMARK    1  A    between atoms: C_1  and  C_2
REMARK    2  A    between atoms: C_2  and  C_3
REMARK    3  A    between atoms: C_3  and  C_5
REMARK    4  A    between atoms: C_3  and  N_17
REMARK    5  A    between atoms: C_9  and  C_11
REMARK    6  A    between atoms: C_18  and  C_20
REMARK    7  A    between atoms: C_23  and  S_25
REMARK    8  A    between atoms: S_25  and  N_28
REMARK    9  A    between atoms: N_28  and  C_29
REMARK                            x       y       z     vdW  Elec       q    Type
REMARK                         _______ _______ _______ _____ _____    ______ ____
ROOT
ATOM      1  C   UNL     1       0.718  -0.497  -1.257  0.00  0.00    +0.139 C 
ENDROOT
BRANCH   1   2
ATOM      2  C   UNL     1       0.847  -1.998  -1.206  0.00  0.00    +0.128 A 
ATOM      3  N   UNL     1       0.420  -2.855  -2.159  0.00  0.00    -0.346 N 
ATOM      4  H   UNL     1      -0.020  -2.617  -2.990  0.00  0.00    +0.167 HD
ATOM      5  C   UNL     1       0.722  -4.120  -1.737  0.00  0.00    +0.112 A 
ATOM      6  C   UNL     1       1.330  -3.994  -0.528  0.00  0.00    +0.089 A 
ATOM      7  N   UNL     1       1.394  -2.678  -0.238  0.00  0.00    -0.231 NA
BRANCH   6   8
ATOM      8  C   UNL     1       1.837  -5.103   0.316  0.00  0.00    +0.002 A 
ATOM      9  C   UNL     1       1.714  -6.422  -0.115  0.00  0.00    +0.010 A 
ATOM     10  C   UNL     1       2.188  -7.450   0.675  0.00  0.00    +0.001 A 
ATOM     11  C   UNL     1       2.783  -7.173   1.893  0.00  0.00    +0.000 A 
ATOM     12  C   UNL     1       2.906  -5.865   2.326  0.00  0.00    +0.001 A 
ATOM     13  C   UNL     1       2.443  -4.829   1.541  0.00  0.00    +0.010 A 
ENDBRANCH   6   8
ENDBRANCH   1   2
BRANCH   1  14
ATOM     14  N   UNL     1      -0.055  -0.114  -2.441  0.00  0.00    -0.299 N 
ATOM     15  C   UNL     1       0.107   1.109  -2.984  0.00  0.00    +0.280 C 
ATOM     16  O   UNL     1       0.895   1.894  -2.491  0.00  0.00    -0.267 OA
ATOM     17  H   UNL     1      -0.683  -0.740  -2.833  0.00  0.00    +0.150 HD
BRANCH  15  18
ATOM     18  C   UNL     1      -0.667   1.493  -4.169  0.00  0.00    +0.192 A 
ATOM     19  C   UNL     1      -0.597   2.691  -4.820  0.00  0.00    +0.057 A 
ATOM     20  C   UNL     1      -1.502   2.623  -5.890  0.00  0.00    +0.072 A 
ATOM     21  C   UNL     1      -2.079   1.402  -5.846  0.00  0.00    +0.258 A 
ATOM     22  O   UNL     1      -1.569   0.722  -4.811  0.00  0.00    -0.432 OA
BRANCH  21  23
ATOM     23  S   UNL     1      -3.296   0.801  -6.969  0.00  0.00    +0.091 S 
ATOM     24  O   UNL     1      -4.012  -0.219  -6.285  0.00  0.00    -0.150 OA
ATOM     25  O   UNL     1      -3.937   1.942  -7.522  0.00  0.00    -0.150 OA
BRANCH  23  26
ATOM     26  N   UNL     1      -2.492   0.061  -8.213  0.00  0.00    -0.190 NA
ATOM     27  C   UNL     1      -1.702  -1.146  -7.960  0.00  0.00    +0.128 C 
ATOM     28  H   UNL     1      -2.543   0.427  -9.110  0.00  0.00    +0.148 HD
ENDBRANCH  23  26
ENDBRANCH  21  23
ENDBRANCH  15  18
ENDBRANCH   1  14
BRANCH   1  30
ATOM     29  C   UNL     1      -0.019   1.526   0.010  0.00  0.00    +0.006 C 
ATOM     30  C   UNL     1       0.002  -0.004   0.002  0.00  0.00    +0.027 C 
ENDBRANCH   1  30
TORSDOF 7
