REMARK  Name = ZINC52060322
REMARK  5 active torsions:
REMARK  status: ('A' for Active; 'I' for Inactive)
REMARK    1  A    between atoms: C_5  and  C_6
REMARK    2  A    between atoms: C_6  and  C_8
REMARK    3  A    between atoms: C_6  and  N_10
REMARK    4  A    between atoms: C_8  and  N_9
REMARK    5  A    between atoms: N_13  and  C_16
REMARK                            x       y       z     vdW  Elec       q    Type
REMARK                         _______ _______ _______ _____ _____    ______ ____
ROOT
ATOM      1  C   UNL     1      -1.156  -0.969   0.008  0.00  0.00    +0.076 C 
ENDROOT
BRANCH   1   2
ATOM      2  N   UNL     1      -0.798  -2.158   0.793  0.00  0.00    -0.300 NA
ATOM      3  C   UNL     1       0.517  -2.679   0.391  0.00  0.00    +0.066 C 
ATOM      4  C   UNL     1       0.825  -3.948   1.187  0.00  0.00    -0.063 C 
ATOM      5  N   UNL     1       0.820  -3.638   2.623  0.00  0.00    +0.383 N 
ATOM      6  C   UNL     1      -0.506  -3.143   3.015  0.00  0.00    -0.063 C 
ATOM      7  C   UNL     1      -0.825  -1.867   2.233  0.00  0.00    +0.066 C 
ATOM      8  H   UNL     1       1.514  -2.931   2.817  0.00  0.00    -0.081 HD
BRANCH   5   9
ATOM      9  C   UNL     1       1.134  -4.853   3.387  0.00  0.00    -0.068 C 
ATOM     10  C   UNL     1       1.203  -4.528   4.893  0.00  0.00    -0.015 C 
ATOM     11  C   UNL     1       2.357  -5.415   5.422  0.00  0.00    -0.002 C 
ATOM     12  C   UNL     1       3.387  -5.360   4.266  0.00  0.00    -0.002 C 
ATOM     13  C   UNL     1       2.523  -5.383   2.988  0.00  0.00    -0.015 C 
ENDBRANCH   5   9
ENDBRANCH   1   2
BRANCH   1  18
ATOM     14  C   UNL     1      -0.563   1.446   0.714  0.00  0.00    +0.028 A 
ATOM     15  C   UNL     1       0.452   2.333   1.023  0.00  0.00    +0.025 A 
ATOM     16  C   UNL     1       1.737   1.901   0.982  0.00  0.00    +0.060 A 
ATOM     17  S   UNL     1       1.538   0.195   0.496  0.00  0.00    -0.099 S 
ATOM     18  C   UNL     1      -0.243   0.172   0.380  0.00  0.00    +0.006 A 
ATOM     19 BR   UNL     1       0.055   4.120   1.494  0.00  0.00    -0.050 Br
ENDBRANCH   1  18
BRANCH   1  20
ATOM     20  C   UNL     1      -1.005  -1.277  -1.483  0.00  0.00    -0.062 C 
BRANCH  20  21
ATOM     21  N   UNL     1      -1.802  -2.463  -1.821  0.00  0.00    +0.379 N 
ATOM     22  H   UNL     1      -1.703  -2.667  -2.804  0.00  0.00    -0.090 HD
ATOM     23  H   UNL     1      -1.479  -3.252  -1.280  0.00  0.00    -0.090 HD
ATOM     24  H   UNL     1      -2.773  -2.287  -1.610  0.00  0.00    -0.090 HD
ENDBRANCH  20  21
ENDBRANCH   1  20
TORSDOF 5
