REMARK  Name = ZINC05155171
REMARK  4 active torsions:
REMARK  status: ('A' for Active; 'I' for Inactive)
REMARK    1  A    between atoms: C_6  and  C_7
REMARK    2  A    between atoms: C_7  and  S_8
REMARK    3  A    between atoms: S_8  and  C_9
REMARK    4  A    between atoms: C_15  and  C_17
REMARK                            x       y       z     vdW  Elec       q    Type
REMARK                         _______ _______ _______ _____ _____    ______ ____
ROOT
ATOM      1  C   UNL     1       5.739  -1.847  -1.479  0.00  0.00    +0.170 A 
ATOM      2  N   UNL     1       6.476  -2.259  -2.548  0.00  0.00    -0.302 N 
ATOM      3  H   UNL     1       6.154  -2.080  -3.478  0.00  0.00    +0.171 HD
ATOM      4  C   UNL     1       7.640  -2.912  -2.348  0.00  0.00    +0.253 A 
ATOM      5  O   UNL     1       8.313  -3.288  -3.294  0.00  0.00    -0.268 OA
ATOM      6  C   UNL     1       8.064  -3.149  -1.029  0.00  0.00    +0.102 A 
ATOM      7  C   UNL     1       7.285  -2.712   0.004  0.00  0.00    +0.151 A 
ATOM      8  N   UNL     1       6.147  -2.069  -0.244  0.00  0.00    -0.219 NA
ENDROOT
BRANCH   7   9
ATOM      9  C   UNL     1       7.717  -2.954   1.427  0.00  0.00    +0.434 C 
ATOM     10  F   UNL     1       8.938  -3.638   1.434  0.00  0.00    -0.164 F 
ATOM     11  F   UNL     1       7.866  -1.728   2.084  0.00  0.00    -0.164 F 
ATOM     12  F   UNL     1       6.749  -3.721   2.084  0.00  0.00    -0.164 F 
ENDBRANCH   7   9
BRANCH   1  13
ATOM     13  S   UNL     1       4.221  -0.995  -1.750  0.00  0.00    -0.083 S 
BRANCH  13  14
ATOM     14  C   UNL     1       3.711  -0.709  -0.037  0.00  0.00    +0.112 C 
BRANCH  14  20
ATOM     15  C   UNL     1       1.208  -0.679  -0.013  0.00  0.00    +0.006 A 
ATOM     16  C   UNL     1       0.002  -0.004   0.002  0.00  0.00    +0.022 A 
ATOM     17  C   UNL     1      -0.017   1.379   0.010  0.00  0.00    +0.059 A 
ATOM     18  C   UNL     1       1.174   2.087   0.002  0.00  0.00    +0.060 A 
ATOM     19  C   UNL     1       2.380   1.410  -0.013  0.00  0.00    +0.026 A 
ATOM     20  C   UNL     1       2.397   0.028  -0.021  0.00  0.00    -0.036 A 
ATOM     21 CL   UNL     1       1.152   3.822   0.011  0.00  0.00    -0.082 Cl
ATOM     22 CL   UNL     1      -1.531   2.227   0.021  0.00  0.00    -0.082 Cl
ENDBRANCH  14  20
ENDBRANCH  13  14
ENDBRANCH   1  13
TORSDOF 4
