REMARK  Name = ZINC66555513
REMARK  6 active torsions:
REMARK  status: ('A' for Active; 'I' for Inactive)
REMARK    1  A    between atoms: C_4  and  C_7
REMARK    2  A    between atoms: C_7  and  C_8
REMARK    3  A    between atoms: C_8  and  C_9
REMARK    4  A    between atoms: N_11  and  N_12
REMARK    5  A    between atoms: C_13  and  C_15
REMARK    6  A    between atoms: C_20  and  C_23
REMARK                            x       y       z     vdW  Elec       q    Type
REMARK                         _______ _______ _______ _____ _____    ______ ____
ROOT
ATOM      1  N   UNL     1       4.590  -4.240  -5.040  0.00  0.00    -0.234 N 
ATOM      2  C   UNL     1       4.819  -5.557  -5.213  0.00  0.00    +0.232 C 
ATOM      3  O   UNL     1       4.456  -6.351  -4.371  0.00  0.00    -0.274 OA
ATOM      4  H   UNL     1       4.880  -3.605  -5.714  0.00  0.00    +0.173 HD
ENDROOT
BRANCH   2   5
ATOM      5  C   UNL     1       5.524  -6.043  -6.453  0.00  0.00    +0.077 C 
ATOM      6  C   UNL     1       4.716  -5.642  -7.689  0.00  0.00    +0.013 C 
ATOM      7  C   UNL     1       5.433  -6.135  -8.948  0.00  0.00    +0.001 C 
ATOM      8  C   UNL     1       5.564  -7.659  -8.896  0.00  0.00    +0.012 C 
ATOM      9  C   UNL     1       6.371  -8.059  -7.660  0.00  0.00    +0.094 C 
ATOM     10  C   UNL     1       5.655  -7.566  -6.401  0.00  0.00    +0.025 C 
BRANCH   9  11
ATOM     11  C   UNL     1       6.502  -9.583  -7.608  0.00  0.00    +0.393 C 
ATOM     12  F   UNL     1       7.157 -10.034  -8.759  0.00  0.00    -0.170 F 
ATOM     13  F   UNL     1       7.240  -9.949  -6.478  0.00  0.00    -0.170 F 
ATOM     14  F   UNL     1       5.229 -10.159  -7.540  0.00  0.00    -0.170 F 
ENDBRANCH   9  11
ENDBRANCH   2   5
BRANCH   1  17
ATOM     15  C   UNL     1       3.706  -2.471  -3.715  0.00  0.00    +0.229 C 
ATOM     16  O   UNL     1       4.068  -1.677  -4.557  0.00  0.00    -0.274 OA
ATOM     17  N   UNL     1       3.934  -3.788  -3.887  0.00  0.00    -0.234 N 
ATOM     18  H   UNL     1       3.645  -4.423  -3.214  0.00  0.00    +0.173 HD
BRANCH  15  19
ATOM     19  C   UNL     1       3.001  -1.985  -2.475  0.00  0.00    +0.097 C 
BRANCH  19  20
ATOM     20  C   UNL     1       2.870  -0.461  -2.526  0.00  0.00    +0.013 C 
BRANCH  20  24
ATOM     21  C   UNL     1      -0.019   1.526   0.010  0.00  0.00    +0.000 C 
ATOM     22  C   UNL     1       1.417   2.055  -0.000  0.00  0.00    +0.000 C 
ATOM     23  C   UNL     1       2.133   1.562  -1.259  0.00  0.00    +0.003 C 
ATOM     24  C   UNL     1       2.154   0.032  -1.268  0.00  0.00    -0.011 C 
ATOM     25  C   UNL     1       0.718  -0.497  -1.257  0.00  0.00    +0.003 C 
ATOM     26  C   UNL     1       0.002  -0.004   0.002  0.00  0.00    +0.000 C 
ENDBRANCH  20  24
ENDBRANCH  19  20
ENDBRANCH  15  19
ENDBRANCH   1  17
TORSDOF 6
