REMARK  Name = ZINC03415051
REMARK  8 active torsions:
REMARK  status: ('A' for Active; 'I' for Inactive)
REMARK    1  A    between atoms: C_1  and  C_2
REMARK    2  A    between atoms: C_2  and  O_3
REMARK    3  A    between atoms: O_3  and  C_4
REMARK    4  A    between atoms: C_4  and  C_6
REMARK    5  A    between atoms: C_9  and  N_12
REMARK    6  A    between atoms: C_22  and  N_23
REMARK    7  A    between atoms: N_23  and  C_24
REMARK    8  A    between atoms: C_25  and  C_33
REMARK                            x       y       z     vdW  Elec       q    Type
REMARK                         _______ _______ _______ _____ _____    ______ ____
ROOT
ATOM      1  N   UNL     1       8.101  -0.805  -6.305  0.00  0.00    -0.202 N 
ATOM      2  C   UNL     1       9.304  -0.435  -5.837  0.00  0.00    +0.258 C 
ATOM      3  O   UNL     1      10.288  -1.083  -6.140  0.00  0.00    -0.269 OA
ATOM      4  C   UNL     1       9.452   0.739  -4.967  0.00  0.00    +0.046 A 
ATOM      5  C   UNL     1      10.700   1.129  -4.479  0.00  0.00    +0.014 A 
ATOM      6  C   UNL     1      10.797   2.237  -3.665  0.00  0.00    +0.001 A 
ATOM      7  C   UNL     1       9.668   2.969  -3.326  0.00  0.00    +0.001 A 
ATOM      8  C   UNL     1       8.425   2.600  -3.798  0.00  0.00    +0.009 A 
ATOM      9  C   UNL     1       8.307   1.486  -4.620  0.00  0.00    +0.000 A 
ATOM     10  C   UNL     1       7.000   1.048  -5.154  0.00  0.00    +0.059 C 
ATOM     11  C   UNL     1       5.845   1.734  -4.851  0.00  0.00    +0.086 C 
ATOM     12  C   UNL     1       6.969  -0.144  -6.010  0.00  0.00    +0.259 C 
ATOM     13  O   UNL     1       5.909  -0.534  -6.462  0.00  0.00    -0.269 OA
ENDROOT
BRANCH   1  17
ATOM     14  C   UNL     1       7.866  -4.162  -8.764  0.00  0.00    +0.059 A 
ATOM     15  C   UNL     1       8.166  -2.911  -9.312  0.00  0.00    +0.017 A 
ATOM     16  C   UNL     1       8.243  -1.804  -8.496  0.00  0.00    +0.025 A 
ATOM     17  C   UNL     1       8.022  -1.929  -7.129  0.00  0.00    +0.045 A 
ATOM     18  C   UNL     1       7.728  -3.173  -6.579  0.00  0.00    +0.025 A 
ATOM     19  C   UNL     1       7.644  -4.283  -7.389  0.00  0.00    +0.017 A 
BRANCH  14  20
ATOM     20  C   UNL     1       7.782  -5.350  -9.634  0.00  0.00    +0.339 C 
ATOM     21  O   UNL     1       7.974  -5.242 -10.829  0.00  0.00    -0.245 OA
BRANCH  20  22
ATOM     22  O   UNL     1       7.492  -6.554  -9.104  0.00  0.00    -0.461 OA
BRANCH  22  24
ATOM     23  C   UNL     1       7.089  -8.952  -9.241  0.00  0.00    +0.048 C 
ATOM     24  C   UNL     1       7.427  -7.679 -10.020  0.00  0.00    +0.229 C 
ENDBRANCH  22  24
ENDBRANCH  20  22
ENDBRANCH  14  20
ENDBRANCH   1  17
BRANCH  11  25
ATOM     25  N   UNL     1       4.643   1.267  -5.287  0.00  0.00    -0.314 N 
ATOM     26  H   UNL     1       4.582   0.295  -5.797  0.00  0.00    +0.152 HD
BRANCH  25  27
ATOM     27  C   UNL     1       3.497   2.017  -5.089  0.00  0.00    +0.082 A 
ATOM     28  C   UNL     1       2.193   1.714  -5.458  0.00  0.00    +0.068 A 
ATOM     29  C   UNL     1       1.160   2.681  -5.129  0.00  0.00    -0.023 A 
ATOM     30  C   UNL     1       1.592   3.789  -4.488  0.00  0.00    -0.005 A 
ATOM     31  S   UNL     1       3.340   3.562  -4.319  0.00  0.00    -0.077 S 
ATOM     32  C   UNL     1       0.763   4.949  -4.029  0.00  0.00    +0.043 C 
ATOM     33  C   UNL     1      -0.604   4.871  -4.724  0.00  0.00    +0.005 C 
ATOM     34  C   UNL     1      -1.142   3.443  -4.596  0.00  0.00    +0.005 C 
ATOM     35  C   UNL     1      -0.314   2.495  -5.466  0.00  0.00    +0.037 C 
BRANCH  28  36
ATOM     36  C   UNL     1       1.870   0.464  -6.153  0.00  0.00    +0.244 C 
ATOM     37  O   UNL     1       1.888   0.423  -7.370  0.00  0.00    -0.270 OA
ATOM     38  N   UNL     1       1.554  -0.638  -5.446  0.00  0.00    -0.325 N 
ATOM     39  H   UNL     1       1.313  -1.576  -5.968  0.00  0.00    +0.145 HD
ATOM     40  H   UNL     1       1.539  -0.601  -4.347  0.00  0.00    +0.145 HD
ENDBRANCH  28  36
ENDBRANCH  25  27
ENDBRANCH  11  25
TORSDOF 7
