REMARK  Name = ZINC07665036
REMARK  4 active torsions:
REMARK  status: ('A' for Active; 'I' for Inactive)
REMARK    1  A    between atoms: C_11  and  C_16
REMARK    2  A    between atoms: C_16  and  S_17
REMARK    3  A    between atoms: S_17  and  C_18
REMARK    4  A    between atoms: N_19  and  C_20
REMARK                            x       y       z     vdW  Elec       q    Type
REMARK                         _______ _______ _______ _____ _____    ______ ____
ROOT
ATOM      1  C   UNL     1      -1.079   1.711   0.465  0.00  0.00    +0.001 A 
ATOM      2  C   UNL     1       0.115   1.009   0.338  0.00  0.00    +0.001 A 
ATOM      3  C   UNL     1       1.317   1.659   0.349  0.00  0.00    +0.009 A 
ATOM      4  C   UNL     1       1.374   3.044   0.500  0.00  0.00    -0.007 A 
ATOM      5  C   UNL     1       0.162   3.728   0.791  0.00  0.00    -0.017 A 
ATOM      6  C   UNL     1      -1.065   3.056   0.680  0.00  0.00    +0.008 A 
ATOM      7  C   UNL     1       0.206   5.063   1.238  0.00  0.00    +0.012 A 
ATOM      8  C   UNL     1       1.383   5.730   1.307  0.00  0.00    +0.047 A 
ATOM      9  C   UNL     1       2.575   5.154   0.861  0.00  0.00    +0.140 A 
ATOM     10  C   UNL     1       2.589   3.841   0.356  0.00  0.00    +0.029 A 
ATOM     11  C   UNL     1       3.747   3.414  -0.330  0.00  0.00    -0.019 A 
ATOM     12  C   UNL     1       4.892   4.151  -0.216  0.00  0.00    +0.097 A 
ATOM     13  C   UNL     1       4.885   5.348   0.523  0.00  0.00    +0.338 A 
ATOM     14  O   UNL     1       5.928   5.930   0.750  0.00  0.00    -0.245 OA
ATOM     15  O   UNL     1       3.723   5.859   0.960  0.00  0.00    -0.422 OA
ENDROOT
BRANCH  11  16
ATOM     16  C   UNL     1       3.785   2.194  -1.213  0.00  0.00    +0.113 C 
BRANCH  16  17
ATOM     17  S   UNL     1       4.279   0.755  -0.232  0.00  0.00    -0.086 S 
BRANCH  17  18
ATOM     18  C   UNL     1       4.241  -0.491  -1.477  0.00  0.00    +0.147 C 
ATOM     19  N   UNL     1       3.910  -0.182  -2.700  0.00  0.00    -0.260 NA
ATOM     20  N   UNL     1       4.561  -1.791  -1.159  0.00  0.00    -0.338 N 
ATOM     21  H   UNL     1       4.731  -2.037  -0.236  0.00  0.00    +0.144 HD
ATOM     22  H   UNL     1       4.617  -2.462  -1.858  0.00  0.00    +0.144 HD
BRANCH  19  23
ATOM     23  C   UNL     1       4.000  -1.189  -3.761  0.00  0.00    +0.108 C 
ATOM     24  C   UNL     1       5.024  -0.745  -4.826  0.00  0.00    +0.027 C 
ATOM     25  C   UNL     1       4.404  -1.215  -6.166  0.00  0.00    +0.002 C 
ATOM     26  C   UNL     1       2.892  -0.950  -5.956  0.00  0.00    +0.002 C 
ATOM     27  C   UNL     1       2.645  -1.319  -4.479  0.00  0.00    +0.027 C 
ENDBRANCH  19  23
ENDBRANCH  17  18
ENDBRANCH  16  17
ENDBRANCH  11  16
TORSDOF 4
