REMARK  Name = ZINC04743932
REMARK  10 active torsions:
REMARK  status: ('A' for Active; 'I' for Inactive)
REMARK    1  A    between atoms: C_1  and  C_2
REMARK    2  A    between atoms: C_2  and  O_3
REMARK    3  A    between atoms: O_3  and  C_4
REMARK    4  A    between atoms: C_4  and  C_6
REMARK    5  A    between atoms: C_7  and  C_23
REMARK    6  A    between atoms: C_8  and  C_22
REMARK    7  A    between atoms: C_10  and  N_11
REMARK    8  A    between atoms: C_12  and  C_14
REMARK    9  A    between atoms: C_14  and  N_15
REMARK   10  A    between atoms: N_15  and  C_16
REMARK                            x       y       z     vdW  Elec       q    Type
REMARK                         _______ _______ _______ _____ _____    ______ ____
ROOT
ATOM      1  N   UNL     1       3.750  -2.431   1.403  0.00  0.00    -0.281 N 
ATOM      2  C   UNL     1       5.052  -2.744   1.559  0.00  0.00    +0.201 C 
ATOM      3  O   UNL     1       5.444  -3.200   2.612  0.00  0.00    -0.278 OA
ATOM      4  H   UNL     1       3.437  -2.066   0.561  0.00  0.00    +0.155 HD
ENDROOT
BRANCH   1   9
ATOM      5  C   UNL     1       1.496  -2.371   2.467  0.00  0.00    +0.091 A 
ATOM      6  C   UNL     1       0.798  -2.683   3.693  0.00  0.00    -0.025 A 
ATOM      7  C   UNL     1       1.552  -3.189   4.686  0.00  0.00    -0.008 A 
ATOM      8  S   UNL     1       3.183  -3.244   3.975  0.00  0.00    -0.078 S 
ATOM      9  C   UNL     1       2.860  -2.632   2.446  0.00  0.00    +0.086 A 
ATOM     10  C   UNL     1       1.120  -3.608   6.067  0.00  0.00    +0.052 C 
ATOM     11  C   UNL     1      -0.683  -2.455   3.851  0.00  0.00    +0.045 C 
BRANCH   5  12
ATOM     12  C   UNL     1       0.801  -1.814   1.305  0.00  0.00    +0.342 C 
ATOM     13  O   UNL     1       0.321  -2.557   0.470  0.00  0.00    -0.245 OA
BRANCH  12  14
ATOM     14  O   UNL     1       0.693  -0.477   1.160  0.00  0.00    -0.461 OA
BRANCH  14  16
ATOM     15  C   UNL     1      -0.019   1.526   0.010  0.00  0.00    +0.048 C 
ATOM     16  C   UNL     1       0.002  -0.004   0.002  0.00  0.00    +0.229 C 
ENDBRANCH  14  16
ENDBRANCH  12  14
ENDBRANCH   5  12
ENDBRANCH   1   9
BRANCH   2  17
ATOM     17  C   UNL     1       6.020  -2.525   0.425  0.00  0.00    +0.016 C 
BRANCH  17  18
ATOM     18  N   UNL     1       7.366  -2.941   0.843  0.00  0.00    +0.387 N 
ATOM     19  H   UNL     1       7.654  -2.395   1.641  0.00  0.00    -0.085 HD
ATOM     20  H   UNL     1       7.354  -3.919   1.092  0.00  0.00    -0.085 HD
BRANCH  18  21
ATOM     21  C   UNL     1       8.309  -2.728  -0.262  0.00  0.00    -0.071 C 
ATOM     22  C   UNL     1       7.945  -3.650  -1.428  0.00  0.00    -0.016 C 
ATOM     23  C   UNL     1       8.928  -3.428  -2.580  0.00  0.00    -0.002 C 
ATOM     24  C   UNL     1      10.348  -3.743  -2.106  0.00  0.00    -0.000 C 
ATOM     25  C   UNL     1      10.713  -2.821  -0.940  0.00  0.00    -0.002 C 
ATOM     26  C   UNL     1       9.730  -3.043   0.212  0.00  0.00    -0.016 C 
ENDBRANCH  18  21
ENDBRANCH  17  18
ENDBRANCH   2  17
TORSDOF 7
