REMARK  Name = ZINC61969428
REMARK  8 active torsions:
REMARK  status: ('A' for Active; 'I' for Inactive)
REMARK    1  A    between atoms: C_1  and  C_2
REMARK    2  A    between atoms: C_2  and  C_3
REMARK    3  A    between atoms: C_2  and  N_10
REMARK    4  A    between atoms: N_13  and  C_14
REMARK    5  A    between atoms: C_14  and  C_15
REMARK    6  A    between atoms: C_19  and  S_21
REMARK    7  A    between atoms: S_21  and  N_24
REMARK    8  A    between atoms: N_24  and  C_25
REMARK                            x       y       z     vdW  Elec       q    Type
REMARK                         _______ _______ _______ _____ _____    ______ ____
ROOT
ATOM      1  N   UNL     1       0.816  -0.500   1.115  0.00  0.00    -0.297 N 
ATOM      2  C   UNL     1       2.152  -0.610   0.977  0.00  0.00    +0.300 C 
ATOM      3  O   UNL     1       2.682  -0.297  -0.072  0.00  0.00    -0.253 OA
ATOM      4  N   UNL     1       2.900  -1.066   2.000  0.00  0.00    -0.295 N 
ATOM      5  H   UNL     1       0.392  -0.750   1.951  0.00  0.00    +0.151 HD
ATOM      6  H   UNL     1       2.477  -1.316   2.837  0.00  0.00    +0.151 HD
ENDROOT
BRANCH   1   8
ATOM      7  C   UNL     1      -0.017   1.526   0.026  0.00  0.00    +0.028 C 
ATOM      8  C   UNL     1       0.002  -0.004   0.002  0.00  0.00    +0.075 C 
BRANCH   8   9
ATOM      9  C   UNL     1      -1.427  -0.534   0.139  0.00  0.00    +0.012 C 
ATOM     10  C   UNL     1      -2.234  -0.246  -1.148  0.00  0.00    +0.009 C 
ATOM     11  C   UNL     1      -2.639  -1.653  -1.683  0.00  0.00    -0.010 C 
ATOM     12  C   UNL     1      -1.303  -2.278  -2.188  0.00  0.00    +0.004 C 
ATOM     13  C   UNL     1      -0.496  -2.567  -0.902  0.00  0.00    +0.004 C 
ATOM     14  C   UNL     1      -1.420  -2.089   0.259  0.00  0.00    -0.006 C 
ATOM     15  C   UNL     1      -2.832  -2.432  -0.334  0.00  0.00    +0.007 C 
ENDBRANCH   8   9
ENDBRANCH   1   8
BRANCH   4  16
ATOM     16  C   UNL     1       4.352  -1.186   1.850  0.00  0.00    +0.141 C 
BRANCH  16  17
ATOM     17  C   UNL     1       4.948  -1.715   3.129  0.00  0.00    -0.028 A 
ATOM     18  C   UNL     1       5.350  -0.838   4.120  0.00  0.00    +0.005 A 
ATOM     19  C   UNL     1       5.896  -1.324   5.293  0.00  0.00    +0.002 A 
ATOM     20  C   UNL     1       6.040  -2.687   5.476  0.00  0.00    +0.028 A 
ATOM     21  C   UNL     1       5.638  -3.563   4.486  0.00  0.00    +0.106 A 
ATOM     22  C   UNL     1       5.088  -3.078   3.314  0.00  0.00    +0.033 A 
BRANCH  21  23
ATOM     23  S   UNL     1       5.822  -5.300   4.719  0.00  0.00    +0.058 S 
ATOM     24  O   UNL     1       5.873  -5.881   3.423  0.00  0.00    -0.153 OA
ATOM     25  O   UNL     1       6.861  -5.474   5.673  0.00  0.00    -0.153 OA
BRANCH  23  26
ATOM     26  N   UNL     1       4.431  -5.849   5.429  0.00  0.00    -0.193 NA
ATOM     27  C   UNL     1       3.161  -5.782   4.701  0.00  0.00    +0.127 C 
ATOM     28  H   UNL     1       4.457  -6.216   6.327  0.00  0.00    +0.148 HD
ENDBRANCH  23  26
ENDBRANCH  21  23
ENDBRANCH  16  17
ENDBRANCH   4  16
TORSDOF 6
