REMARK  Name = ZINC50361238
REMARK  6 active torsions:
REMARK  status: ('A' for Active; 'I' for Inactive)
REMARK    1  A    between atoms: C_1  and  C_2
REMARK    2  A    between atoms: C_2  and  C_4
REMARK    3  A    between atoms: C_2  and  N_8
REMARK    4  A    between atoms: N_6  and  C_7
REMARK    5  A    between atoms: N_8  and  C_9
REMARK    6  A    between atoms: C_9  and  C_10
REMARK                            x       y       z     vdW  Elec       q    Type
REMARK                         _______ _______ _______ _____ _____    ______ ____
ROOT
ATOM      1  N   UNL     1      -1.376  -0.512   0.012  0.00  0.00    +0.391 N 
ATOM      2  H   UNL     1      -1.363  -1.518   0.090  0.00  0.00    -0.084 HD
ATOM      3  H   UNL     1      -1.873  -0.121   0.799  0.00  0.00    -0.084 HD
ENDROOT
BRANCH   1   5
ATOM      4  C   UNL     1      -0.019   1.526   0.010  0.00  0.00    -0.004 C 
ATOM      5  C   UNL     1       0.002  -0.004   0.002  0.00  0.00    +0.013 C 
BRANCH   5   6
ATOM      6  C   UNL     1       0.731  -0.503   1.223  0.00  0.00    +0.199 C 
ATOM      7  O   UNL     1       0.159  -1.213   2.023  0.00  0.00    -0.278 OA
ATOM      8  N   UNL     1       2.019  -0.161   1.426  0.00  0.00    -0.320 N 
ATOM      9  C   UNL     1       2.727  -0.647   2.613  0.00  0.00    +0.128 C 
ATOM     10  H   UNL     1       2.476   0.406   0.786  0.00  0.00    +0.148 HD
ENDBRANCH   5   6
ENDBRANCH   1   5
BRANCH   1  11
ATOM     11  C   UNL     1      -2.050  -0.126  -1.234  0.00  0.00    -0.006 C 
BRANCH  11  12
ATOM     12  C   UNL     1      -3.464  -0.648  -1.224  0.00  0.00    +0.091 A 
ATOM     13  C   UNL     1      -4.540   0.008  -0.753  0.00  0.00    +0.059 A 
ATOM     14  C   UNL     1      -5.653  -0.845  -0.940  0.00  0.00    +0.070 A 
ATOM     15  C   UNL     1      -5.189  -1.972  -1.514  0.00  0.00    +0.184 A 
ATOM     16  O   UNL     1      -3.863  -1.844  -1.687  0.00  0.00    -0.454 OA
ATOM     17 BR   UNL     1      -6.229  -3.475  -1.998  0.00  0.00    -0.007 Br
ATOM     18 BR   UNL     1      -7.448  -0.474  -0.473  0.00  0.00    -0.046 Br
ENDBRANCH  11  12
ENDBRANCH   1  11
TORSDOF 4
