REMARK  Name = ZINC42108061
REMARK  11 active torsions:
REMARK  status: ('A' for Active; 'I' for Inactive)
REMARK    1  A    between atoms: C_1  and  C_2
REMARK    2  A    between atoms: N_5  and  C_8
REMARK    3  A    between atoms: C_8  and  C_10
REMARK    4  A    between atoms: C_8  and  C_25
REMARK    5  A    between atoms: C_10  and  N_11
REMARK    6  A    between atoms: N_11  and  C_12
REMARK    7  A    between atoms: C_15  and  N_22
REMARK    8  A    between atoms: C_17  and  S_18
REMARK    9  A    between atoms: S_18  and  N_21
REMARK   10  A    between atoms: C_25  and  C_26
REMARK   11  A    between atoms: C_25  and  C_27
REMARK                            x       y       z     vdW  Elec       q    Type
REMARK                         _______ _______ _______ _____ _____    ______ ____
ROOT
ATOM      1  N   UNL     1       1.310  -3.671   2.603  0.00  0.00    -0.344 N 
ATOM      2  H   UNL     1       1.607  -3.199   1.810  0.00  0.00    +0.146 HD
ENDROOT
BRANCH   1   3
ATOM      3  C   UNL     1       2.151  -3.767   3.714  0.00  0.00    +0.054 A 
ATOM      4  C   UNL     1       1.729  -4.449   4.849  0.00  0.00    +0.027 A 
ATOM      5  C   UNL     1       2.563  -4.542   5.946  0.00  0.00    +0.034 A 
ATOM      6  C   UNL     1       3.816  -3.957   5.916  0.00  0.00    +0.128 A 
ATOM      7  C   UNL     1       4.238  -3.278   4.788  0.00  0.00    +0.063 A 
ATOM      8  C   UNL     1       3.412  -3.186   3.686  0.00  0.00    +0.128 A 
BRANCH   8   9
ATOM      9  S   UNL     1       3.954  -2.326   2.246  0.00  0.00    +0.058 S 
ATOM     10  O   UNL     1       2.906  -1.437   1.885  0.00  0.00    -0.153 OA
ATOM     11  O   UNL     1       5.275  -1.877   2.515  0.00  0.00    -0.153 OA
BRANCH   9  12
ATOM     12  N   UNL     1       4.072  -3.439   1.026  0.00  0.00    -0.203 NA
ATOM     13  H   UNL     1       3.925  -3.168   0.106  0.00  0.00    +0.144 HD
ATOM     14  H   UNL     1       4.287  -4.362   1.231  0.00  0.00    +0.144 HD
ENDBRANCH   9  12
ENDBRANCH   8   9
BRANCH   6  15
ATOM     15  N   UNL     1       4.707  -4.059   7.094  0.00  0.00    +0.056 N 
ATOM     16  O   UNL     1       4.338  -4.653   8.081  0.00  0.00    -0.126 OA
ATOM     17  O   UNL     1       5.802  -3.549   7.069  0.00  0.00    -0.126 OA
ENDBRANCH   6  15
ENDBRANCH   1   3
BRANCH   1  18
ATOM     18  C   UNL     1      -0.019  -4.285   2.635  0.00  0.00    +0.086 C 
BRANCH  18  19
ATOM     19  C   UNL     1      -0.804  -3.868   1.389  0.00  0.00    -0.049 C 
BRANCH  19  24
ATOM     20  C   UNL     1      -1.736   1.563   2.858  0.00  0.00    +0.007 C 
ATOM     21  C   UNL     1      -1.266   0.107   2.853  0.00  0.00    -0.018 C 
ATOM     22  C   UNL     1      -0.391  -0.145   1.623  0.00  0.00    -0.016 C 
ATOM     23  C   UNL     1       0.010  -1.622   1.582  0.00  0.00    -0.078 C 
ATOM     24  N   UNL     1      -1.195  -2.457   1.506  0.00  0.00    +0.383 N 
ATOM     25  C   UNL     1      -2.004  -2.274   2.717  0.00  0.00    -0.078 C 
ATOM     26  C   UNL     1      -2.482  -0.823   2.802  0.00  0.00    -0.016 C 
ATOM     27  H   UNL     1      -1.737  -2.192   0.698  0.00  0.00    -0.081 HD
ENDBRANCH  19  24
BRANCH  19  28
ATOM     28  C   UNL     1      -2.058  -4.736   1.262  0.00  0.00    -0.029 C 
ATOM     29  C   UNL     1      -2.853  -4.305   0.028  0.00  0.00    +0.005 C 
ATOM     30  C   UNL     1      -1.649  -6.204   1.119  0.00  0.00    +0.005 C 
ENDBRANCH  19  28
ENDBRANCH  18  19
ENDBRANCH   1  18
TORSDOF 8
