REMARK  Name = ZINC20284114
REMARK  11 active torsions:
REMARK  status: ('A' for Active; 'I' for Inactive)
REMARK    1  A    between atoms: C_1  and  C_2
REMARK    2  A    between atoms: C_3  and  C_17
REMARK    3  A    between atoms: C_4  and  C_16
REMARK    4  A    between atoms: N_10  and  C_15
REMARK    5  A    between atoms: N_13  and  C_14
REMARK    6  A    between atoms: C_17  and  C_18
REMARK    7  A    between atoms: C_18  and  C_19
REMARK    8  A    between atoms: N_21  and  C_22
REMARK    9  A    between atoms: C_22  and  C_23
REMARK   10  A    between atoms: C_26  and  C_28
REMARK   11  A    between atoms: C_28  and  N_29
REMARK                            x       y       z     vdW  Elec       q    Type
REMARK                         _______ _______ _______ _____ _____    ______ ____
ROOT
ATOM      1  C   UNL     1      -4.247   0.806   1.653  0.00  0.00    +0.214 C 
ATOM      2  O   UNL     1      -4.999   0.562   0.733  0.00  0.00    -0.276 OA
ATOM      3  N   UNL     1      -2.991   1.226   1.403  0.00  0.00    -0.308 N 
ATOM      4  H   UNL     1      -2.309   1.447   2.237  0.00  0.00    +0.149 HD
ENDROOT
BRANCH   1   5
ATOM      5  C   UNL     1      -4.717   0.640   3.075  0.00  0.00    +0.100 C 
BRANCH   5   6
ATOM      6  C   UNL     1      -6.169   0.157   3.079  0.00  0.00    +0.046 C 
BRANCH   6   9
ATOM      7  C   UNL     1      -5.847  -2.399   4.459  0.00  0.00    +0.045 C 
ATOM      8  C   UNL     1      -6.484  -1.222   5.151  0.00  0.00    -0.030 A 
ATOM      9  C   UNL     1      -6.639  -0.009   4.501  0.00  0.00    -0.022 A 
ATOM     10  C   UNL     1      -7.234   1.049   5.167  0.00  0.00    +0.044 A 
ATOM     11  N   UNL     1      -7.655   0.932   6.412  0.00  0.00    -0.234 NA
ATOM     12  C   UNL     1      -7.528  -0.201   7.081  0.00  0.00    +0.150 A 
ATOM     13  C   UNL     1      -6.932  -1.318   6.468  0.00  0.00    +0.085 A 
ATOM     14  C   UNL     1      -6.807  -2.563   7.245  0.00  0.00    +0.266 A 
ATOM     15  O   UNL     1      -6.300  -3.555   6.757  0.00  0.00    -0.267 OA
ATOM     16  N   UNL     1      -7.271  -2.572   8.514  0.00  0.00    -0.263 N 
ATOM     17  C   UNL     1      -7.832  -1.479   9.055  0.00  0.00    +0.333 A 
ATOM     18  O   UNL     1      -8.234  -1.540  10.201  0.00  0.00    -0.246 OA
ATOM     19  N   UNL     1      -7.969  -0.322   8.387  0.00  0.00    -0.281 N 
ATOM     20  C   UNL     1      -8.593   0.827   9.050  0.00  0.00    +0.155 C 
ATOM     21  C   UNL     1      -7.160  -3.796   9.312  0.00  0.00    +0.157 C 
ATOM     22  C   UNL     1      -7.406   2.365   4.453  0.00  0.00    +0.066 C 
ENDBRANCH   6   9
ENDBRANCH   5   6
ENDBRANCH   1   5
BRANCH   3  23
ATOM     23  C   UNL     1      -2.533   1.387   0.021  0.00  0.00    +0.178 C 
BRANCH  23  24
ATOM     24  C   UNL     1      -1.103   1.863   0.017  0.00  0.00    +0.122 A 
ATOM     25  C   UNL     1      -0.013   1.076   0.008  0.00  0.00    +0.046 A 
ATOM     26  C   UNL     1       1.111   1.934   0.002  0.00  0.00    +0.043 A 
ATOM     27  C   UNL     1       0.640   3.193   0.012  0.00  0.00    +0.089 A 
ATOM     28  O   UNL     1      -0.702   3.144   0.024  0.00  0.00    -0.465 OA
BRANCH  27  29
ATOM     29  C   UNL     1       1.476   4.447   0.011  0.00  0.00    -0.003 C 
BRANCH  29  30
ATOM     30  N   UNL     1       1.735   4.862  -1.374  0.00  0.00    +0.384 N 
ATOM     31  C   UNL     1       2.488   3.819  -2.107  0.00  0.00    -0.078 C 
ATOM     32  C   UNL     1       3.011   4.301  -3.433  0.00  0.00    -0.019 C 
ATOM     33  C   UNL     1       4.455   4.809  -3.234  0.00  0.00    -0.002 C 
ATOM     34  C   UNL     1       4.493   6.143  -2.644  0.00  0.00    -0.002 C 
ATOM     35  C   UNL     1       3.839   6.180  -1.246  0.00  0.00    -0.019 C 
ATOM     36  C   UNL     1       2.345   6.210  -1.419  0.00  0.00    -0.078 C 
ATOM     37  H   UNL     1       0.775   4.956  -1.902  0.00  0.00    -0.081 HD
ENDBRANCH  29  30
ENDBRANCH  27  29
ENDBRANCH  23  24
ENDBRANCH   3  23
TORSDOF 7
