REMARK  Name = ZINC24505648
REMARK  11 active torsions:
REMARK  status: ('A' for Active; 'I' for Inactive)
REMARK    1  A    between atoms: C_1  and  C_2
REMARK    2  A    between atoms: C_2  and  C_3
REMARK    3  A    between atoms: C_3  and  C_5
REMARK    4  A    between atoms: C_3  and  C_6
REMARK    5  A    between atoms: C_6  and  C_7
REMARK    6  A    between atoms: C_8  and  C_35
REMARK    7  A    between atoms: C_16  and  S_18
REMARK    8  A    between atoms: S_18  and  C_19
REMARK    9  A    between atoms: C_19  and  C_20
REMARK   10  A    between atoms: N_30  and  C_31
REMARK   11  A    between atoms: C_31  and  C_32
REMARK                            x       y       z     vdW  Elec       q    Type
REMARK                         _______ _______ _______ _____ _____    ______ ____
ROOT
ATOM      1  S   UNL     1      -3.165   0.294   3.893  0.00  0.00    -0.080 S 
ENDROOT
BRANCH   1  11
ATOM      2  C   UNL     1      -0.064   2.977   8.210  0.00  0.00    -0.023 A 
ATOM      3  C   UNL     1       0.877   3.807   7.737  0.00  0.00    -0.007 A 
ATOM      4  S   UNL     1       0.700   3.669   5.969  0.00  0.00    -0.073 S 
ATOM      5  C   UNL     1      -0.633   2.500   5.916  0.00  0.00    +0.117 A 
ATOM      6  C   UNL     1      -0.903   2.249   7.274  0.00  0.00    +0.075 A 
ATOM      7  C   UNL     1      -1.958   1.320   7.538  0.00  0.00    +0.261 A 
ATOM      8  O   UNL     1      -2.263   1.041   8.685  0.00  0.00    -0.267 OA
ATOM      9  N   UNL     1      -2.613   0.761   6.504  0.00  0.00    -0.301 N 
ATOM     10  H   UNL     1      -3.433   0.052   6.691  0.00  0.00    +0.171 HD
ATOM     11  C   UNL     1      -2.282   1.057   5.213  0.00  0.00    +0.170 A 
ATOM     12  N   UNL     1      -1.315   1.910   4.942  0.00  0.00    -0.216 NA
ATOM     13  C   UNL     1       1.852   4.654   8.515  0.00  0.00    +0.052 C 
BRANCH   2  14
ATOM     14  C   UNL     1      -0.248   2.801   9.696  0.00  0.00    +0.040 C 
BRANCH  14  15
ATOM     15  C   UNL     1      -1.262   3.826  10.209  0.00  0.00    -0.010 C 
ATOM     16  C   UNL     1      -2.633   3.539   9.594  0.00  0.00    +0.008 C 
BRANCH  15  18
ATOM     17  C   UNL     1      -2.274   4.837  12.257  0.00  0.00    +0.004 C 
ATOM     18  C   UNL     1      -1.356   3.731  11.733  0.00  0.00    +0.000 C 
ENDBRANCH  15  18
ENDBRANCH  14  15
ENDBRANCH   2  14
ENDBRANCH   1  11
BRANCH   1  19
ATOM     19  C   UNL     1      -2.324   1.046   2.477  0.00  0.00    +0.151 C 
BRANCH  19  20
ATOM     20  C   UNL     1      -2.930   0.527   1.199  0.00  0.00    +0.124 A 
ATOM     21  N   UNL     1      -3.903  -0.329   1.282  0.00  0.00    -0.233 NA
ATOM     22  C   UNL     1      -4.497  -0.840   0.175  0.00  0.00    +0.078 A 
ATOM     23  C   UNL     1      -5.544  -1.760   0.263  0.00  0.00    +0.028 A 
ATOM     24  C   UNL     1      -6.118  -2.252  -0.887  0.00  0.00    +0.002 A 
ATOM     25  C   UNL     1      -5.669  -1.846  -2.137  0.00  0.00    +0.001 A 
ATOM     26  C   UNL     1      -4.638  -0.939  -2.250  0.00  0.00    +0.015 A 
ATOM     27  C   UNL     1      -4.043  -0.429  -1.098  0.00  0.00    +0.065 A 
ATOM     28  C   UNL     1      -2.943   0.545  -1.157  0.00  0.00    +0.262 A 
ATOM     29  O   UNL     1      -2.508   0.945  -2.221  0.00  0.00    -0.267 OA
ATOM     30  N   UNL     1      -2.430   0.977   0.019  0.00  0.00    -0.287 N 
BRANCH  30  31
ATOM     31  C   UNL     1      -1.330   1.944   0.019  0.00  0.00    +0.222 C 
BRANCH  31  32
ATOM     32  C   UNL     1      -0.014   1.209   0.009  0.00  0.00    +0.230 C 
ATOM     33  O   UNL     1       0.002  -0.004   0.002  0.00  0.00    -0.274 OA
ATOM     34  N   UNL     1       1.143   1.898   0.001  0.00  0.00    -0.328 N 
ATOM     35  H   UNL     1       2.103   1.361  -0.006  0.00  0.00    +0.145 HD
ATOM     36  H   UNL     1       1.129   2.998   0.003  0.00  0.00    +0.145 HD
ENDBRANCH  31  32
ENDBRANCH  30  31
ENDBRANCH  19  20
ENDBRANCH   1  19
TORSDOF 8
