REMARK  Name = ZINC28512035
REMARK  4 active torsions:
REMARK  status: ('A' for Active; 'I' for Inactive)
REMARK    1  A    between atoms: C_5  and  C_7
REMARK    2  A    between atoms: C_10  and  C_12
REMARK    3  A    between atoms: N_23  and  C_24
REMARK    4  A    between atoms: C_24  and  C_25
REMARK                            x       y       z     vdW  Elec       q    Type
REMARK                         _______ _______ _______ _____ _____    ______ ____
ROOT
ATOM      1  C   UNL     1      -0.082   0.867   0.288  0.00  0.00    +0.199 C 
ATOM      2  N   UNL     1       1.306   1.329   0.284  0.00  0.00    -0.289 N 
ATOM      3  C   UNL     1       1.943   1.544   1.460  0.00  0.00    +0.247 C 
ATOM      4  O   UNL     1       3.111   1.883   1.494  0.00  0.00    -0.270 OA
ATOM      5  C   UNL     1       1.163   1.351   2.699  0.00  0.00    +0.058 A 
ATOM      6  C   UNL     1       1.786   1.199   3.934  0.00  0.00    +0.015 A 
ATOM      7  C   UNL     1       1.018   1.017   5.066  0.00  0.00    +0.001 A 
ATOM      8  C   UNL     1      -0.365   0.986   4.975  0.00  0.00    +0.002 A 
ATOM      9  C   UNL     1      -0.994   1.138   3.756  0.00  0.00    +0.024 A 
ATOM     10  C   UNL     1      -0.239   1.324   2.607  0.00  0.00    +0.044 A 
ATOM     11  N   UNL     1      -0.845   1.489   1.372  0.00  0.00    -0.298 N 
ATOM     12  H   UNL     1       1.827   1.499  -0.669  0.00  0.00    +0.151 HD
ENDROOT
BRANCH   1  16
ATOM     13  C   UNL     1      -2.279   1.828  -3.148  0.00  0.00    +0.022 A 
ATOM     14  C   UNL     1      -0.922   1.761  -3.318  0.00  0.00    +0.016 A 
ATOM     15  C   UNL     1      -0.133   1.450  -2.231  0.00  0.00    +0.015 A 
ATOM     16  C   UNL     1      -0.723   1.220  -1.030  0.00  0.00    +0.029 A 
ATOM     17  S   UNL     1      -2.453   1.436  -1.415  0.00  0.00    -0.090 S 
BRANCH  13  22
ATOM     18  C   UNL     1      -4.193   3.552  -5.881  0.00  0.00    +0.001 A 
ATOM     19  C   UNL     1      -5.293   2.721  -6.007  0.00  0.00    +0.003 A 
ATOM     20  C   UNL     1      -5.416   1.601  -5.206  0.00  0.00    +0.039 A 
ATOM     21  C   UNL     1      -4.440   1.303  -4.274  0.00  0.00    +0.132 A 
ATOM     22  C   UNL     1      -3.328   2.139  -4.143  0.00  0.00    +0.024 A 
ATOM     23  C   UNL     1      -3.214   3.270  -4.951  0.00  0.00    +0.012 A 
ATOM     24  F   UNL     1      -4.562   0.209  -3.491  0.00  0.00    -0.205 F 
ENDBRANCH  13  22
ENDBRANCH   1  16
BRANCH  11  25
ATOM     25  C   UNL     1      -2.228   0.993   1.394  0.00  0.00    +0.202 C 
BRANCH  25  26
ATOM     26  C   UNL     1      -2.225  -0.492   1.649  0.00  0.00    +0.228 C 
ATOM     27  O   UNL     1      -1.180  -1.068   1.870  0.00  0.00    -0.274 OA
ATOM     28  N   UNL     1      -3.383  -1.182   1.631  0.00  0.00    -0.328 N 
ATOM     29  H   UNL     1      -3.381  -2.266   1.817  0.00  0.00    +0.145 HD
ATOM     30  H   UNL     1      -4.330  -0.660   1.429  0.00  0.00    +0.145 HD
ENDBRANCH  25  26
ENDBRANCH  11  25
TORSDOF 4
