REMARK  Name = ZINC32972030
REMARK  18 active torsions:
REMARK  status: ('A' for Active; 'I' for Inactive)
REMARK    1  A    between atoms: C_1  and  C_2
REMARK    2  A    between atoms: C_5  and  O_8
REMARK    3  A    between atoms: O_8  and  C_9
REMARK    4  A    between atoms: C_9  and  C_10
REMARK    5  A    between atoms: C_10  and  C_11
REMARK    6  A    between atoms: N_13  and  C_14
REMARK    7  A    between atoms: N_13  and  C_15
REMARK    8  A    between atoms: C_15  and  C_16
REMARK    9  A    between atoms: N_18  and  C_19
REMARK   10  A    between atoms: N_18  and  C_23
REMARK   11  A    between atoms: C_19  and  C_20
REMARK   12  A    between atoms: C_20  and  C_21
REMARK   13  A    between atoms: C_20  and  C_22
REMARK   14  A    between atoms: C_24  and  N_36
REMARK   15  A    between atoms: N_25  and  C_32
REMARK   16  A    between atoms: C_32  and  C_33
REMARK   17  A    between atoms: C_33  and  C_34
REMARK   18  A    between atoms: C_33  and  C_35
REMARK                            x       y       z     vdW  Elec       q    Type
REMARK                         _______ _______ _______ _____ _____    ______ ____
ROOT
ATOM      1  C   UNL     1       5.699  -7.006   1.022  0.00  0.00    +0.237 C 
ATOM      2  O   UNL     1       5.075  -6.248   1.735  0.00  0.00    -0.274 OA
ATOM      3  N   UNL     1       6.780  -7.652   1.505  0.00  0.00    -0.263 N 
ENDROOT
BRANCH   3   4
ATOM      4  C   UNL     1       7.124  -7.529   2.868  0.00  0.00    +0.140 A 
ATOM      5  C   UNL     1       8.331  -6.975   3.241  0.00  0.00    +0.127 A 
ATOM      6  N   UNL     1       8.637  -6.869   4.578  0.00  0.00    -0.280 N 
ATOM      7  C   UNL     1       7.770  -7.301   5.511  0.00  0.00    +0.331 A 
ATOM      8  O   UNL     1       8.059  -7.198   6.688  0.00  0.00    -0.246 OA
ATOM      9  N   UNL     1       6.589  -7.844   5.167  0.00  0.00    -0.273 N 
ATOM     10  H   UNL     1       5.896  -8.194   5.946  0.00  0.00    +0.173 HD
ATOM     11  C   UNL     1       6.238  -7.966   3.872  0.00  0.00    +0.277 A 
ATOM     12  O   UNL     1       5.163  -8.455   3.570  0.00  0.00    -0.266 OA
BRANCH   5  13
ATOM     13  N   UNL     1       9.217  -6.534   2.287  0.00  0.00    -0.343 N 
ATOM     14  H   UNL     1      10.178  -6.093   2.592  0.00  0.00    +0.144 HD
ATOM     15  H   UNL     1       8.966  -6.622   1.220  0.00  0.00    +0.144 HD
ENDBRANCH   5  13
BRANCH   6  16
ATOM     16  C   UNL     1       9.915  -6.282   4.987  0.00  0.00    +0.131 C 
BRANCH  16  17
ATOM     17  C   UNL     1       9.749  -4.771   5.167  0.00  0.00    +0.003 C 
ATOM     18  C   UNL     1       8.788  -4.498   6.325  0.00  0.00    +0.009 C 
ATOM     19  C   UNL     1      11.109  -4.141   5.473  0.00  0.00    +0.009 C 
ENDBRANCH  16  17
ENDBRANCH   6  16
ENDBRANCH   3   4
BRANCH   1  20
ATOM     20  C   UNL     1       5.265  -7.227  -0.405  0.00  0.00    +0.203 C 
BRANCH  20  23
ATOM     21  C   UNL     1       4.043  -5.234  -1.095  0.00  0.00    +0.219 C 
ATOM     22  O   UNL     1       5.107  -4.685  -1.290  0.00  0.00    -0.275 OA
ATOM     23  N   UNL     1       4.013  -6.507  -0.651  0.00  0.00    -0.296 N 
ATOM     24  C   UNL     1       2.728  -7.170  -0.416  0.00  0.00    +0.132 C 
BRANCH  21  25
ATOM     25  C   UNL     1       2.756  -4.494  -1.349  0.00  0.00    +0.137 C 
BRANCH  25  26
ATOM     26  C   UNL     1       3.069  -3.080  -1.842  0.00  0.00    +0.238 C 
BRANCH  26  27
ATOM     27  O   UNL     1       1.848  -2.377  -2.083  0.00  0.00    -0.491 OA
BRANCH  27  32
ATOM     28  C   UNL     1       2.271   2.926  -3.931  0.00  0.00    +0.044 C 
ATOM     29  C   UNL     1       2.158   1.507  -3.437  0.00  0.00    -0.050 A 
ATOM     30  C   UNL     1       0.911   0.943  -3.236  0.00  0.00    +0.007 A 
ATOM     31  C   UNL     1       0.805  -0.357  -2.783  0.00  0.00    +0.046 A 
ATOM     32  C   UNL     1       1.950  -1.098  -2.529  0.00  0.00    +0.121 A 
ATOM     33  C   UNL     1       3.200  -0.530  -2.731  0.00  0.00    +0.046 A 
ATOM     34  C   UNL     1       3.301   0.771  -3.184  0.00  0.00    +0.007 A 
ENDBRANCH  27  32
ENDBRANCH  26  27
ENDBRANCH  25  26
ENDBRANCH  21  25
ENDBRANCH  20  23
ENDBRANCH   1  20
BRANCH   3  35
ATOM     35  C   UNL     1       7.598  -8.479   0.615  0.00  0.00    +0.117 C 
BRANCH  35  36
ATOM     36  C   UNL     1       6.981  -9.875   0.507  0.00  0.00    +0.001 C 
ATOM     37  C   UNL     1       7.741 -10.689  -0.542  0.00  0.00    +0.009 C 
ATOM     38  C   UNL     1       7.072 -10.579   1.863  0.00  0.00    +0.009 C 
ENDBRANCH  35  36
ENDBRANCH   3  35
TORSDOF 12
