REMARK  Name = ZINC16035310
REMARK  7 active torsions:
REMARK  status: ('A' for Active; 'I' for Inactive)
REMARK    1  A    between atoms: C_1  and  C_2
REMARK    2  A    between atoms: C_2  and  C_3
REMARK    3  A    between atoms: C_2  and  N_4
REMARK    4  A    between atoms: C_8  and  C_10
REMARK    5  A    between atoms: C_10  and  O_11
REMARK    6  A    between atoms: O_11  and  C_12
REMARK    7  A    between atoms: C_12  and  C_14
REMARK                            x       y       z     vdW  Elec       q    Type
REMARK                         _______ _______ _______ _____ _____    ______ ____
ROOT
ATOM      1  O   UNL     1      -3.598   1.781   0.029  0.00  0.00    -0.455 OA
ENDROOT
BRANCH   1   2
ATOM      2  C   UNL     1      -4.832   1.251   0.032  0.00  0.00    +0.314 C 
ATOM      3  O   UNL     1      -4.974   0.051   0.026  0.00  0.00    -0.250 OA
BRANCH   2   4
ATOM      4  C   UNL     1      -6.039   2.153   0.042  0.00  0.00    +0.070 C 
ATOM      5  C   UNL     1      -6.010   3.029   1.296  0.00  0.00    +0.021 C 
ATOM      6  C   UNL     1      -7.236   3.945   1.307  0.00  0.00    -0.008 C 
ATOM      7  C   UNL     1      -7.219   4.834   0.063  0.00  0.00    +0.007 C 
ATOM      8  C   UNL     1      -7.248   3.958  -1.191  0.00  0.00    -0.008 C 
ATOM      9  C   UNL     1      -6.022   3.043  -1.202  0.00  0.00    +0.021 C 
ATOM     10  C   UNL     1      -8.520   3.107  -1.190  0.00  0.00    +0.026 C 
ATOM     11  C   UNL     1      -8.537   2.218   0.055  0.00  0.00    +0.047 C 
ATOM     12  C   UNL     1      -8.508   3.094   1.308  0.00  0.00    +0.026 C 
ATOM     13  C   UNL     1      -7.311   1.302   0.044  0.00  0.00    +0.041 C 
ATOM     14 CL   UNL     1     -10.035   1.215   0.056  0.00  0.00    -0.118 Cl
ENDBRANCH   2   4
ENDBRANCH   1   2
BRANCH   1  15
ATOM     15  C   UNL     1      -2.482   0.853   0.018  0.00  0.00    +0.328 C 
BRANCH  15  20
ATOM     16  N   UNL     1       2.323   0.998  -0.015  0.00  0.00    -0.297 N 
ATOM     17  C   UNL     1       1.147   1.655   0.000  0.00  0.00    +0.306 C 
ATOM     18  O   UNL     1       1.130   2.871   0.007  0.00  0.00    -0.252 OA
ATOM     19  N   UNL     1      -0.011   0.966   0.007  0.00  0.00    -0.237 N 
ATOM     20  C   UNL     1      -1.187   1.624   0.017  0.00  0.00    +0.258 C 
ATOM     21  O   UNL     1      -1.204   2.836   0.023  0.00  0.00    -0.272 OA
ATOM     22  H   UNL     1       2.338  -0.102  -0.021  0.00  0.00    +0.151 HD
ATOM     23  H   UNL     1       0.004  -0.134   0.006  0.00  0.00    +0.159 HD
BRANCH  16  25
ATOM     24  C   UNL     1       4.694   0.882   0.572  0.00  0.00    +0.027 C 
ATOM     25  C   UNL     1       3.582   1.747  -0.023  0.00  0.00    +0.068 C 
ATOM     26  C   UNL     1       3.942   2.124  -1.461  0.00  0.00    +0.027 C 
ENDBRANCH  16  25
ENDBRANCH  15  20
ENDBRANCH   1  15
TORSDOF 5
