REMARK  Name = ZINC43263515
REMARK  8 active torsions:
REMARK  status: ('A' for Active; 'I' for Inactive)
REMARK    1  A    between atoms: C_1  and  C_2
REMARK    2  A    between atoms: C_2  and  C_3
REMARK    3  A    between atoms: C_3  and  C_5
REMARK    4  A    between atoms: C_3  and  N_20
REMARK    5  A    between atoms: C_5  and  C_7
REMARK    6  A    between atoms: C_5  and  N_13
REMARK    7  A    between atoms: C_14  and  C_19
REMARK    8  A    between atoms: C_16  and  C_18
REMARK                            x       y       z     vdW  Elec       q    Type
REMARK                         _______ _______ _______ _____ _____    ______ ____
ROOT
ATOM      1  C   UNL     1       0.872  -2.034   1.171  0.00  0.00    +0.131 C 
ENDROOT
BRANCH   1   2
ATOM      2  N   UNL     1      -0.455  -2.630   0.999  0.00  0.00    -0.243 N 
ATOM      3  C   UNL     1      -1.064  -3.495   1.828  0.00  0.00    +0.126 A 
ATOM      4  N   UNL     1      -2.234  -3.788   1.321  0.00  0.00    -0.217 NA
ATOM      5  C   UNL     1      -2.407  -3.132   0.175  0.00  0.00    +0.148 A 
ATOM      6  N   UNL     1      -1.347  -2.405  -0.063  0.00  0.00    -0.155 NA
ATOM      7  C   UNL     1      -3.630  -3.211  -0.703  0.00  0.00    +0.090 C 
ATOM      8  C   UNL     1      -0.497  -4.034   3.116  0.00  0.00    +0.088 C 
ENDBRANCH   1   2
BRANCH   1   9
ATOM      9  C   UNL     1       1.747  -2.410   0.003  0.00  0.00    +0.014 A 
ATOM     10  C   UNL     1       2.914  -3.099  -0.002  0.00  0.00    +0.014 A 
ATOM     11  C   UNL     1       3.551  -3.330  -1.207  0.00  0.00    +0.023 A 
ATOM     12  C   UNL     1       2.989  -2.859  -2.349  0.00  0.00    +0.055 A 
ATOM     13  S   UNL     1       1.511  -2.069  -1.734  0.00  0.00    -0.084 S 
ATOM     14 BR   UNL     1       3.607  -3.008  -4.130  0.00  0.00    -0.043 Br
ENDBRANCH   1   9
BRANCH   1  15
ATOM     15  C   UNL     1       0.742  -0.511   1.242  0.00  0.00    -0.045 C 
BRANCH  15  16
ATOM     16  N   UNL     1      -0.010  -0.139   2.447  0.00  0.00    +0.382 N 
ATOM     17  H   UNL     1      -0.929  -0.554   2.411  0.00  0.00    -0.090 HD
ATOM     18  H   UNL     1       0.478  -0.473   3.265  0.00  0.00    -0.090 HD
ATOM     19  H   UNL     1      -0.096   0.865   2.494  0.00  0.00    -0.090 HD
ENDBRANCH  15  16
BRANCH  15  21
ATOM     20  C   UNL     1      -0.019   1.526   0.010  0.00  0.00    +0.002 C 
ATOM     21  C   UNL     1       0.002  -0.004   0.002  0.00  0.00    -0.017 C 
ENDBRANCH  15  21
ENDBRANCH   1  15
TORSDOF 5
