REMARK  Name = ZINC56203206
REMARK  6 active torsions:
REMARK  status: ('A' for Active; 'I' for Inactive)
REMARK    1  A    between atoms: C_1  and  C_2
REMARK    2  A    between atoms: C_2  and  C_4
REMARK    3  A    between atoms: C_2  and  N_16
REMARK    4  A    between atoms: N_6  and  C_7
REMARK    5  A    between atoms: N_16  and  C_17
REMARK    6  A    between atoms: C_20  and  N_24
REMARK                            x       y       z     vdW  Elec       q    Type
REMARK                         _______ _______ _______ _____ _____    ______ ____
ROOT
ATOM      1  C   UNL     1      -0.004   1.513  -0.002  0.00  0.00    +0.038 C 
ATOM      2  C   UNL     1       0.007  -0.017  -0.006  0.00  0.00    +0.154 C 
ENDROOT
BRANCH   2   3
ATOM      3  C   UNL     1      -1.410  -0.529   0.011  0.00  0.00    +0.237 C 
ATOM      4  O   UNL     1      -1.790  -1.231   0.923  0.00  0.00    -0.273 OA
ATOM      5  N   UNL     1      -2.256  -0.206  -0.988  0.00  0.00    -0.282 N 
ATOM      6  H   UNL     1      -1.978   0.419  -1.676  0.00  0.00    +0.155 HD
BRANCH   5   7
ATOM      7  C   UNL     1      -3.536  -0.774  -1.034  0.00  0.00    +0.072 A 
ATOM      8  C   UNL     1      -3.777  -1.995  -0.419  0.00  0.00    +0.029 A 
ATOM      9  C   UNL     1      -5.039  -2.555  -0.465  0.00  0.00    +0.043 A 
ATOM     10  C   UNL     1      -6.066  -1.900  -1.123  0.00  0.00    +0.161 A 
ATOM     11  C   UNL     1      -5.830  -0.681  -1.739  0.00  0.00    +0.195 A 
ATOM     12  C   UNL     1      -4.567  -0.113  -1.690  0.00  0.00    +0.182 A 
ATOM     13  F   UNL     1      -4.338   1.078  -2.285  0.00  0.00    -0.200 F 
ATOM     14  F   UNL     1      -6.833  -0.043  -2.382  0.00  0.00    -0.199 F 
ATOM     15  F   UNL     1      -7.299  -2.451  -1.166  0.00  0.00    -0.202 F 
ENDBRANCH   5   7
ENDBRANCH   2   3
BRANCH   2  16
ATOM     16  N   UNL     1       0.716  -0.503   1.179  0.00  0.00    -0.333 N 
ATOM     17  H   UNL     1       0.220  -0.740   1.978  0.00  0.00    +0.147 HD
BRANCH  16  18
ATOM     18  C   UNL     1       2.111  -0.627   1.159  0.00  0.00    +0.031 A 
ATOM     19  C   UNL     1       2.821  -0.284   0.017  0.00  0.00    +0.025 A 
ATOM     20  C   UNL     1       4.197  -0.406  -0.004  0.00  0.00    +0.028 A 
ATOM     21  C   UNL     1       4.870  -0.873   1.116  0.00  0.00    +0.065 A 
ATOM     22  C   UNL     1       4.159  -1.217   2.260  0.00  0.00    +0.146 A 
ATOM     23  C   UNL     1       2.783  -1.089   2.283  0.00  0.00    +0.063 A 
ATOM     24  F   UNL     1       4.814  -1.672   3.351  0.00  0.00    -0.203 F 
BRANCH  21  25
ATOM     25  N   UNL     1       6.266  -0.998   1.094  0.00  0.00    -0.328 N 
ATOM     26  C   UNL     1       7.013  -2.191   0.672  0.00  0.00    +0.105 C 
ATOM     27  C   UNL     1       8.514  -1.876   0.840  0.00  0.00    +0.020 C 
ATOM     28  C   UNL     1       8.513  -0.725   1.881  0.00  0.00    +0.020 C 
ATOM     29  C   UNL     1       7.229   0.049   1.484  0.00  0.00    +0.105 C 
ENDBRANCH  21  25
ENDBRANCH  16  18
ENDBRANCH   2  16
TORSDOF 5
