REMARK  Name = ZINC09360506
REMARK  5 active torsions:
REMARK  status: ('A' for Active; 'I' for Inactive)
REMARK    1  A    between atoms: C_1  and  C_2
REMARK    2  A    between atoms: C_9  and  C_27
REMARK    3  A    between atoms: C_11  and  C_18
REMARK    4  A    between atoms: C_22  and  N_24
REMARK    5  A    between atoms: C_27  and  C_29
REMARK                            x       y       z     vdW  Elec       q    Type
REMARK                         _______ _______ _______ _____ _____    ______ ____
ROOT
ATOM      1  C   UNL     1      -5.322   2.415   5.539  0.00  0.00    +0.044 C 
ATOM      2  C   UNL     1      -5.252   1.604   4.271  0.00  0.00    -0.050 A 
ATOM      3  C   UNL     1      -6.380   0.960   3.796  0.00  0.00    +0.005 A 
ATOM      4  C   UNL     1      -6.323   0.218   2.635  0.00  0.00    +0.024 A 
ATOM      5  C   UNL     1      -5.125   0.110   1.932  0.00  0.00    +0.036 A 
ATOM      6  C   UNL     1      -3.996   0.758   2.421  0.00  0.00    -0.027 A 
ATOM      7  C   UNL     1      -4.058   1.500   3.579  0.00  0.00    +0.008 A 
ATOM      8  C   UNL     1      -2.885   0.448   1.452  0.00  0.00    +0.052 C 
ATOM      9  C   UNL     1      -1.748  -0.304   2.157  0.00  0.00    +0.069 C 
ATOM     10  C   UNL     1      -0.636   0.755   2.325  0.00  0.00    +0.016 C 
ATOM     11  C   UNL     1      -0.895   1.750   1.175  0.00  0.00    -0.047 C 
ATOM     12  C   UNL     1      -2.712   1.825  -0.547  0.00  0.00    -0.005 C 
ATOM     13  S   UNL     1      -1.087   1.974  -1.405  0.00  0.00    -0.181 S 
ATOM     14  C   UNL     1      -0.040   1.290  -0.044  0.00  0.00    +0.052 C 
ATOM     15  C   UNL     1      -3.527  -0.422   0.401  0.00  0.00    +0.212 C 
ATOM     16  O   UNL     1      -2.985  -0.898  -0.574  0.00  0.00    -0.277 OA
ATOM     17  N   UNL     1      -4.818  -0.571   0.752  0.00  0.00    -0.286 N 
ATOM     18  H   UNL     1      -5.461  -1.090   0.244  0.00  0.00    +0.155 HD
ATOM     19  N   UNL     1      -2.365   1.700   0.915  0.00  0.00    +0.401 N 
ATOM     20  H   UNL     1      -2.806   2.483   1.412  0.00  0.00    -0.078 HD
ENDROOT
BRANCH  10  21
ATOM     21  C   UNL     1       0.724   0.122   2.180  0.00  0.00    -0.043 A 
ATOM     22  C   UNL     1       0.915  -1.197   2.549  0.00  0.00    +0.004 A 
ATOM     23  C   UNL     1       2.161  -1.779   2.412  0.00  0.00    +0.002 A 
ATOM     24  C   UNL     1       3.218  -1.040   1.915  0.00  0.00    +0.033 A 
ATOM     25  C   UNL     1       3.028   0.280   1.551  0.00  0.00    +0.126 A 
ATOM     26  C   UNL     1       1.781   0.861   1.683  0.00  0.00    +0.036 A 
BRANCH  25  27
ATOM     27  N   UNL     1       4.160   1.071   1.019  0.00  0.00    +0.056 N 
ATOM     28  O   UNL     1       3.993   2.234   0.698  0.00  0.00    -0.126 OA
ATOM     29  O   UNL     1       5.259   0.559   0.902  0.00  0.00    -0.126 OA
ENDBRANCH  25  27
ENDBRANCH  10  21
BRANCH   9  30
ATOM     30  C   UNL     1      -1.263  -1.446   1.302  0.00  0.00    +0.168 C 
ATOM     31  O   UNL     1      -0.833  -1.230   0.189  0.00  0.00    -0.292 OA
BRANCH  30  32
ATOM     32  C   UNL     1      -1.312  -2.824   1.817  0.00  0.00    +0.036 A 
ATOM     33  C   UNL     1      -0.869  -3.897   1.029  0.00  0.00    +0.014 A 
ATOM     34  C   UNL     1      -0.931  -5.171   1.564  0.00  0.00    +0.020 A 
ATOM     35  C   UNL     1      -1.434  -5.347   2.841  0.00  0.00    +0.111 A 
ATOM     36  N   UNL     1      -1.849  -4.320   3.558  0.00  0.00    -0.263 NA
ATOM     37  C   UNL     1      -1.805  -3.087   3.098  0.00  0.00    +0.122 A 
ENDBRANCH  30  32
ENDBRANCH   9  30
TORSDOF 4
