REMARK  Name = ZINC08811570
REMARK  8 active torsions:
REMARK  status: ('A' for Active; 'I' for Inactive)
REMARK    1  A    between atoms: C_1  and  C_2
REMARK    2  A    between atoms: C_7  and  N_12
REMARK    3  A    between atoms: C_9  and  C_11
REMARK    4  A    between atoms: C_13  and  C_15
REMARK    5  A    between atoms: N_25  and  C_26
REMARK    6  A    between atoms: C_26  and  C_27
REMARK    7  A    between atoms: C_32  and  O_33
REMARK    8  A    between atoms: O_33  and  C_34
REMARK                            x       y       z     vdW  Elec       q    Type
REMARK                         _______ _______ _______ _____ _____    ______ ____
ROOT
ATOM      1  C   UNL     1       0.340   1.184   0.039  0.00  0.00    +0.194 C 
ATOM      2  C   UNL     1      -0.505   1.932  -0.963  0.00  0.00    -0.006 A 
ATOM      3  C   UNL     1      -0.308   2.300  -2.273  0.00  0.00    +0.007 A 
ATOM      4  C   UNL     1      -1.293   2.999  -2.951  0.00  0.00    +0.000 A 
ATOM      5  C   UNL     1      -2.476   3.329  -2.313  0.00  0.00    +0.001 A 
ATOM      6  C   UNL     1      -2.683   2.965  -0.999  0.00  0.00    +0.013 A 
ATOM      7  C   UNL     1      -1.695   2.260  -0.309  0.00  0.00    +0.042 A 
ATOM      8  C   UNL     1      -1.623   1.742   1.071  0.00  0.00    +0.248 C 
ATOM      9  O   UNL     1      -2.500   1.861   1.904  0.00  0.00    -0.270 OA
ATOM     10  N   UNL     1      -0.448   1.120   1.276  0.00  0.00    -0.277 N 
ENDROOT
BRANCH   1  12
ATOM     11  N   UNL     1       2.691   1.713  -0.518  0.00  0.00    -0.310 N 
ATOM     12  C   UNL     1       1.629   1.925   0.284  0.00  0.00    +0.238 C 
ATOM     13  O   UNL     1       1.711   2.712   1.203  0.00  0.00    -0.273 OA
ATOM     14  H   UNL     1       2.625   1.083  -1.253  0.00  0.00    +0.149 HD
BRANCH  11  20
ATOM     15  C   UNL     1       5.838   1.204  -3.399  0.00  0.00    +0.008 C 
ATOM     16  C   UNL     1       5.046   1.114  -2.093  0.00  0.00    -0.009 C 
ATOM     17  C   UNL     1       5.873   0.365  -1.046  0.00  0.00    +0.003 C 
ATOM     18  C   UNL     1       5.081   0.275   0.260  0.00  0.00    +0.002 C 
ATOM     19  C   UNL     1       4.771   1.684   0.767  0.00  0.00    +0.022 C 
ATOM     20  C   UNL     1       3.944   2.433  -0.280  0.00  0.00    +0.076 C 
ATOM     21  C   UNL     1       4.736   2.523  -1.586  0.00  0.00    +0.009 C 
ATOM     22  C   UNL     1       3.909   3.272  -2.633  0.00  0.00    +0.009 C 
ENDBRANCH  11  20
ENDBRANCH   1  12
BRANCH  10  23
ATOM     23  C   UNL     1      -0.024   0.484   2.525  0.00  0.00    +0.148 C 
BRANCH  23  24
ATOM     24  C   UNL     1      -0.565  -0.921   2.583  0.00  0.00    +0.013 A 
ATOM     25  C   UNL     1      -1.688  -1.198   3.339  0.00  0.00    +0.024 A 
ATOM     26  C   UNL     1      -2.189  -2.486   3.388  0.00  0.00    +0.018 A 
ATOM     27  C   UNL     1      -1.560  -3.502   2.690  0.00  0.00    +0.019 A 
ATOM     28  C   UNL     1      -0.434  -3.230   1.938  0.00  0.00    +0.047 A 
ATOM     29  C   UNL     1       0.067  -1.937   1.883  0.00  0.00    +0.125 A 
ATOM     30 BR   UNL     1      -3.731  -2.861   4.416  0.00  0.00    -0.050 Br
BRANCH  29  31
ATOM     31  O   UNL     1       1.174  -1.668   1.143  0.00  0.00    -0.495 OA
ATOM     32  C   UNL     1       1.773  -2.763   0.448  0.00  0.00    +0.277 C 
ENDBRANCH  29  31
ENDBRANCH  23  24
ENDBRANCH  10  23
TORSDOF 5
