REMARK  Name = ZINC48638164
REMARK  3 active torsions:
REMARK  status: ('A' for Active; 'I' for Inactive)
REMARK    1  A    between atoms: C_1  and  N_2
REMARK    2  A    between atoms: N_9  and  C_12
REMARK    3  A    between atoms: C_12  and  N_13
REMARK                            x       y       z     vdW  Elec       q    Type
REMARK                         _______ _______ _______ _____ _____    ______ ____
ROOT
ATOM      1  C   UNL     1       0.204   1.528   0.240  0.00  0.00    +0.151 C 
ATOM      2  N   UNL     1       0.159   0.070   0.098  0.00  0.00    -0.323 N 
ATOM      3  C   UNL     1      -0.987  -0.693  -0.115  0.00  0.00    +0.067 A 
ATOM      4  C   UNL     1      -2.330  -0.375  -0.251  0.00  0.00    +0.028 A 
ATOM      5  C   UNL     1      -3.256  -1.379  -0.459  0.00  0.00    +0.002 A 
ATOM      6  C   UNL     1      -2.849  -2.700  -0.532  0.00  0.00    +0.002 A 
ATOM      7  C   UNL     1      -1.513  -3.026  -0.398  0.00  0.00    +0.028 A 
ATOM      8  C   UNL     1      -0.576  -2.025  -0.189  0.00  0.00    +0.066 A 
ATOM      9  N   UNL     1       0.806  -2.031  -0.019  0.00  0.00    -0.336 N 
ATOM     10  C   UNL     1       1.218  -0.759   0.145  0.00  0.00    +0.159 A 
ATOM     11  S   UNL     1       2.842  -0.272   0.383  0.00  0.00    -0.013 S 
ENDROOT
BRANCH   9  12
ATOM     12  C   UNL     1       1.666  -3.217  -0.024  0.00  0.00    +0.050 C 
BRANCH  12  13
ATOM     13  N   UNL     1       1.872  -3.667  -1.407  0.00  0.00    +0.394 N 
ATOM     14  C   UNL     1       2.724  -2.696  -2.135  0.00  0.00    -0.073 C 
ATOM     15  C   UNL     1       3.977  -3.509  -2.586  0.00  0.00    -0.029 C 
ATOM     16  C   UNL     1       4.760  -3.761  -1.260  0.00  0.00    -0.000 C 
ATOM     17  C   UNL     1       3.848  -4.718  -0.457  0.00  0.00    -0.015 C 
ATOM     18  C   UNL     1       2.606  -4.970  -1.418  0.00  0.00    -0.066 C 
ATOM     19  C   UNL     1       3.307  -4.911  -2.821  0.00  0.00    -0.014 C 
ATOM     20  H   UNL     1       0.984  -3.766  -1.875  0.00  0.00    -0.079 HD
ENDBRANCH  12  13
ENDBRANCH   9  12
TORSDOF 2
