REMARK  Name = ZINC63843876
REMARK  8 active torsions:
REMARK  status: ('A' for Active; 'I' for Inactive)
REMARK    1  A    between atoms: C_1  and  C_2
REMARK    2  A    between atoms: N_4  and  C_5
REMARK    3  A    between atoms: C_5  and  C_7
REMARK    4  A    between atoms: C_5  and  C_24
REMARK    5  A    between atoms: C_7  and  C_8
REMARK    6  A    between atoms: N_10  and  N_11
REMARK    7  A    between atoms: C_12  and  C_14
REMARK    8  A    between atoms: C_14  and  C_15
REMARK                            x       y       z     vdW  Elec       q    Type
REMARK                         _______ _______ _______ _____ _____    ______ ____
ROOT
ATOM      1  C   UNL     1      -0.900  -2.189  -2.384  0.00  0.00    +0.231 C 
ATOM      2  O   UNL     1      -2.042  -1.782  -2.350  0.00  0.00    -0.274 OA
ATOM      3  N   UNL     1      -0.292  -2.394  -3.569  0.00  0.00    -0.234 N 
ATOM      4  H   UNL     1       0.621  -2.721  -3.596  0.00  0.00    +0.173 HD
ENDROOT
BRANCH   3   5
ATOM      5  N   UNL     1      -0.980  -2.137  -4.763  0.00  0.00    -0.234 N 
ATOM      6  C   UNL     1      -0.372  -2.342  -5.948  0.00  0.00    +0.233 C 
ATOM      7  O   UNL     1       0.770  -2.749  -5.982  0.00  0.00    -0.274 OA
ATOM      8  H   UNL     1      -1.893  -1.810  -4.736  0.00  0.00    +0.173 HD
BRANCH   6   9
ATOM      9  C   UNL     1      -1.111  -2.064  -7.231  0.00  0.00    +0.130 C 
BRANCH   9  10
ATOM     10  C   UNL     1      -0.216  -2.372  -8.404  0.00  0.00    -0.033 C 
ATOM     11  C   UNL     1      -0.168  -3.525  -9.109  0.00  0.00    -0.001 A 
ATOM     12  C   UNL     1      -0.905  -4.790  -9.000  0.00  0.00    +0.010 A 
ATOM     13  C   UNL     1      -0.630  -5.787  -9.870  0.00  0.00    +0.001 A 
ATOM     14  C   UNL     1       0.341  -5.645 -10.871  0.00  0.00    +0.002 A 
ATOM     15  C   UNL     1       1.060  -4.514 -11.035  0.00  0.00    +0.026 A 
ATOM     16  C   UNL     1       0.852  -3.400 -10.175  0.00  0.00    +0.043 A 
ATOM     17  N   UNL     1       1.412  -2.216 -10.131  0.00  0.00    -0.380 N 
ATOM     18  C   UNL     1       0.806  -1.453  -9.034  0.00  0.00    +0.145 C 
ATOM     19  H   UNL     1       2.108  -1.896 -10.726  0.00  0.00    +0.160 HD
ENDBRANCH   9  10
ENDBRANCH   6   9
ENDBRANCH   3   5
BRANCH   1  20
ATOM     20  C   UNL     1      -0.161  -2.467  -1.100  0.00  0.00    +0.124 C 
BRANCH  20  21
ATOM     21  C   UNL     1      -1.070  -2.154   0.090  0.00  0.00    +0.112 C 
BRANCH  21  22
ATOM     22  C   UNL     1      -0.376  -2.547   1.369  0.00  0.00    -0.027 A 
ATOM     23  C   UNL     1       0.642  -1.759   1.873  0.00  0.00    +0.005 A 
ATOM     24  C   UNL     1       1.279  -2.119   3.046  0.00  0.00    +0.000 A 
ATOM     25  C   UNL     1       0.896  -3.267   3.715  0.00  0.00    +0.000 A 
ATOM     26  C   UNL     1      -0.123  -4.053   3.212  0.00  0.00    +0.000 A 
ATOM     27  C   UNL     1      -0.762  -3.691   2.041  0.00  0.00    +0.005 A 
ENDBRANCH  21  22
BRANCH  21  31
ATOM     28  C   UNL     1      -2.728   1.210   0.849  0.00  0.00    +0.109 C 
ATOM     29  C   UNL     1      -2.479  -0.271   0.728  0.00  0.00    +0.210 C 
ATOM     30  O   UNL     1      -3.281  -1.060   1.181  0.00  0.00    -0.276 OA
ATOM     31  N   UNL     1      -1.365  -0.719   0.115  0.00  0.00    -0.308 N 
ATOM     32  H   UNL     1      -0.759  -0.092  -0.309  0.00  0.00    +0.149 HD
ENDBRANCH  21  31
ENDBRANCH  20  21
ENDBRANCH   1  20
TORSDOF 7
