REMARK  Name = ZINC23055920
REMARK  6 active torsions:
REMARK  status: ('A' for Active; 'I' for Inactive)
REMARK    1  A    between atoms: C_1  and  C_2
REMARK    2  A    between atoms: C_2  and  C_4
REMARK    3  A    between atoms: C_2  and  N_11
REMARK    4  A    between atoms: C_12  and  C_14
REMARK    5  A    between atoms: C_17  and  S_20
REMARK    6  A    between atoms: S_20  and  C_23
REMARK                            x       y       z     vdW  Elec       q    Type
REMARK                         _______ _______ _______ _____ _____    ______ ____
ROOT
ATOM      1  N   UNL     1       2.429  -2.812  -0.037  0.00  0.00    -0.305 N 
ATOM      2  C   UNL     1       1.250  -2.160  -0.022  0.00  0.00    +0.245 C 
ATOM      3  O   UNL     1       0.208  -2.788  -0.016  0.00  0.00    -0.270 OA
ATOM      4  H   UNL     1       3.371  -2.245  -0.042  0.00  0.00    +0.150 HD
ENDROOT
BRANCH   2   5
ATOM      5  C   UNL     1       1.222  -0.682  -0.013  0.00  0.00    +0.037 A 
ATOM      6  C   UNL     1       0.002  -0.004   0.002  0.00  0.00    +0.015 A 
ATOM      7  C   UNL     1      -0.017   1.375   0.010  0.00  0.00    +0.028 A 
ATOM      8  C   UNL     1       1.170   2.086   0.002  0.00  0.00    +0.098 A 
ATOM      9  C   UNL     1       2.383   1.420  -0.013  0.00  0.00    +0.028 A 
ATOM     10  C   UNL     1       2.416   0.041  -0.021  0.00  0.00    +0.015 A 
BRANCH   8  11
ATOM     11  S   UNL     1       1.137   3.848   0.011  0.00  0.00    +0.091 S 
ATOM     12  O   UNL     1       2.359   4.237  -0.601  0.00  0.00    -0.161 OA
ATOM     13  O   UNL     1      -0.109   4.191  -0.578  0.00  0.00    -0.161 OA
BRANCH  11  14
ATOM     14  C   UNL     1       1.145   4.305   1.767  0.00  0.00    +0.526 C 
ATOM     15  F   UNL     1       2.303   3.806   2.373  0.00  0.00    -0.150 F 
ATOM     16  F   UNL     1       1.120   5.699   1.886  0.00  0.00    -0.150 F 
ATOM     17  F   UNL     1       0.018   3.764   2.395  0.00  0.00    -0.150 F 
ENDBRANCH  11  14
ENDBRANCH   8  11
ENDBRANCH   2   5
BRANCH   1  19
ATOM     18  C   UNL     1       2.327  -4.781  -1.484  0.00  0.00    +0.033 C 
ATOM     19  C   UNL     1       2.456  -4.277  -0.045  0.00  0.00    +0.100 C 
BRANCH  19  20
ATOM     20  C   UNL     1       3.759  -4.759   0.540  0.00  0.00    -0.027 A 
ATOM     21  C   UNL     1       4.937  -4.104   0.235  0.00  0.00    +0.008 A 
ATOM     22  C   UNL     1       6.131  -4.541   0.775  0.00  0.00    +0.038 A 
ATOM     23  C   UNL     1       6.149  -5.643   1.614  0.00  0.00    +0.123 A 
ATOM     24  C   UNL     1       4.968  -6.301   1.915  0.00  0.00    +0.038 A 
ATOM     25  C   UNL     1       3.775  -5.859   1.377  0.00  0.00    +0.008 A 
ATOM     26  F   UNL     1       7.316  -6.075   2.139  0.00  0.00    -0.205 F 
ENDBRANCH  19  20
ENDBRANCH   1  19
TORSDOF 5
