REMARK  Name = ZINC08617311
REMARK  5 active torsions:
REMARK  status: ('A' for Active; 'I' for Inactive)
REMARK    1  A    between atoms: C_4  and  C_7
REMARK    2  A    between atoms: C_7  and  N_8
REMARK    3  A    between atoms: N_11  and  C_12
REMARK    4  A    between atoms: N_11  and  C_24
REMARK    5  A    between atoms: C_12  and  C_13
REMARK                            x       y       z     vdW  Elec       q    Type
REMARK                         _______ _______ _______ _____ _____    ______ ____
ROOT
ATOM      1  N   UNL     1       4.048  -0.690   1.825  0.00  0.00    -0.295 N 
ATOM      2  C   UNL     1       5.244  -1.312   1.852  0.00  0.00    +0.303 C 
ATOM      3  O   UNL     1       5.873  -1.464   0.824  0.00  0.00    -0.253 OA
ATOM      4  N   UNL     1       5.740  -1.767   3.020  0.00  0.00    -0.275 N 
ATOM      5  H   UNL     1       3.513  -0.633   2.632  0.00  0.00    +0.151 HD
ENDROOT
BRANCH   4   6
ATOM      6  C   UNL     1       4.932  -1.689   4.239  0.00  0.00    +0.078 C 
ATOM      7  C   UNL     1       4.647  -3.108   4.775  0.00  0.00    +0.022 C 
ATOM      8  C   UNL     1       5.745  -3.340   5.842  0.00  0.00    +0.002 C 
ATOM      9  C   UNL     1       5.872  -1.948   6.510  0.00  0.00    +0.002 C 
ATOM     10  C   UNL     1       5.712  -0.952   5.342  0.00  0.00    +0.022 C 
ENDBRANCH   4   6
BRANCH   1  11
ATOM     11  C   UNL     1       3.558  -0.099   0.577  0.00  0.00    +0.141 C 
BRANCH  11  15
ATOM     12  C   UNL     1      -0.264   1.686   1.250  0.00  0.00    +0.000 A 
ATOM     13  C   UNL     1       0.887   2.432   1.422  0.00  0.00    +0.000 A 
ATOM     14  C   UNL     1       2.124   1.854   1.205  0.00  0.00    +0.005 A 
ATOM     15  C   UNL     1       2.210   0.530   0.815  0.00  0.00    -0.030 A 
ATOM     16  C   UNL     1       1.059  -0.215   0.644  0.00  0.00    +0.005 A 
ATOM     17  C   UNL     1      -0.178   0.363   0.860  0.00  0.00    +0.000 A 
ENDBRANCH  11  15
ENDBRANCH   1  11
BRANCH   4  18
ATOM     18  C   UNL     1       7.089  -2.337   3.070  0.00  0.00    +0.183 C 
BRANCH  18  19
ATOM     19  C   UNL     1       8.098  -1.229   3.222  0.00  0.00    +0.128 A 
ATOM     20  N   UNL     1       7.671  -0.003   3.226  0.00  0.00    -0.232 NA
ATOM     21  C   UNL     1       8.521   1.046   3.360  0.00  0.00    +0.078 A 
ATOM     22  C   UNL     1       8.062   2.365   3.364  0.00  0.00    +0.028 A 
ATOM     23  C   UNL     1       8.960   3.399   3.502  0.00  0.00    +0.002 A 
ATOM     24  C   UNL     1      10.319   3.147   3.638  0.00  0.00    +0.001 A 
ATOM     25  C   UNL     1      10.796   1.855   3.636  0.00  0.00    +0.015 A 
ATOM     26  C   UNL     1       9.904   0.794   3.498  0.00  0.00    +0.065 A 
ATOM     27  C   UNL     1      10.354  -0.606   3.490  0.00  0.00    +0.259 A 
ATOM     28  N   UNL     1       9.408  -1.564   3.354  0.00  0.00    -0.309 N 
ATOM     29  O   UNL     1      11.532  -0.892   3.604  0.00  0.00    -0.267 OA
ATOM     30  H   UNL     1       9.668  -2.499   3.348  0.00  0.00    +0.170 HD
ENDBRANCH  18  19
ENDBRANCH   4  18
TORSDOF 5
