REMARK  Name = ZINC13940854
REMARK  8 active torsions:
REMARK  status: ('A' for Active; 'I' for Inactive)
REMARK    1  A    between atoms: C_1  and  C_2
REMARK    2  A    between atoms: C_4  and  O_9
REMARK    3  A    between atoms: O_9  and  C_10
REMARK    4  A    between atoms: C_10  and  C_11
REMARK    5  A    between atoms: C_11  and  O_12
REMARK    6  A    between atoms: O_12  and  C_13
REMARK    7  A    between atoms: C_16  and  C_19
REMARK    8  A    between atoms: N_26  and  C_29
REMARK                            x       y       z     vdW  Elec       q    Type
REMARK                         _______ _______ _______ _____ _____    ______ ____
ROOT
ATOM      1  C   UNL     1      -0.269   0.601  -1.463  0.00  0.00    +0.121 A 
ATOM      2  C   UNL     1       0.714   1.294  -0.763  0.00  0.00    +0.046 A 
ATOM      3  C   UNL     1       1.952   0.742  -0.594  0.00  0.00    +0.011 A 
ATOM      4  C   UNL     1       2.231  -0.525  -1.127  0.00  0.00    -0.024 A 
ATOM      5  C   UNL     1       1.235  -1.218  -1.832  0.00  0.00    +0.011 A 
ATOM      6  C   UNL     1       0.001  -0.656  -1.995  0.00  0.00    +0.046 A 
ENDROOT
BRANCH   4   7
ATOM      7  C   UNL     1       3.555  -1.121  -0.950  0.00  0.00    +0.026 C 
ATOM      8  C   UNL     1       4.689  -0.367  -1.185  0.00  0.00    +0.100 C 
ATOM      9  C   UNL     1       6.029  -0.847  -0.792  0.00  0.00    +0.257 C 
ATOM     10  O   UNL     1       6.172  -1.925  -0.247  0.00  0.00    -0.270 OA
ATOM     11  N   UNL     1       7.091  -0.057  -1.054  0.00  0.00    -0.235 N 
ATOM     12  C   UNL     1       6.947   1.134  -1.653  0.00  0.00    +0.320 C 
ATOM     13  O   UNL     1       7.945   1.796  -1.861  0.00  0.00    -0.251 OA
ATOM     14  N   UNL     1       5.764   1.632  -2.037  0.00  0.00    -0.190 N 
ATOM     15  C   UNL     1       4.616   0.951  -1.845  0.00  0.00    +0.263 C 
ATOM     16  O   UNL     1       3.548   1.412  -2.203  0.00  0.00    -0.269 OA
ATOM     17  H   UNL     1       7.978  -0.357  -0.803  0.00  0.00    +0.159 HD
BRANCH  14  18
ATOM     18  C   UNL     1       5.719   2.888  -2.657  0.00  0.00    +0.046 A 
ATOM     19  C   UNL     1       5.578   4.037  -1.891  0.00  0.00    +0.024 A 
ATOM     20  C   UNL     1       5.540   5.274  -2.505  0.00  0.00    +0.002 A 
ATOM     21  C   UNL     1       5.632   5.368  -3.881  0.00  0.00    +0.000 A 
ATOM     22  C   UNL     1       5.766   4.225  -4.647  0.00  0.00    +0.002 A 
ATOM     23  C   UNL     1       5.811   2.985  -4.039  0.00  0.00    +0.024 A 
ENDBRANCH  14  18
ENDBRANCH   4   7
BRANCH   1  24
ATOM     24  O   UNL     1      -1.495   1.157  -1.633  0.00  0.00    -0.489 OA
BRANCH  24  25
ATOM     25  C   UNL     1      -1.706   2.449  -1.062  0.00  0.00    +0.270 C 
BRANCH  25  26
ATOM     26  C   UNL     1      -3.136   2.909  -1.355  0.00  0.00    +0.270 C 
BRANCH  26  27
ATOM     27  O   UNL     1      -4.059   2.046  -0.688  0.00  0.00    -0.489 OA
BRANCH  27  31
ATOM     28  C   UNL     1      -8.711   0.931   0.284  0.00  0.00    +0.045 C 
ATOM     29  C   UNL     1      -7.677   1.798  -0.388  0.00  0.00    -0.029 A 
ATOM     30  C   UNL     1      -6.333   1.520  -0.227  0.00  0.00    +0.050 A 
ATOM     31  C   UNL     1      -5.382   2.317  -0.846  0.00  0.00    +0.121 A 
ATOM     32  C   UNL     1      -5.782   3.396  -1.621  0.00  0.00    +0.047 A 
ATOM     33  C   UNL     1      -7.126   3.667  -1.784  0.00  0.00    +0.024 A 
ATOM     34  C   UNL     1      -8.074   2.870  -1.166  0.00  0.00    +0.044 A 
ATOM     35 CL   UNL     1      -9.763   3.217  -1.367  0.00  0.00    -0.083 Cl
ENDBRANCH  27  31
ENDBRANCH  26  27
ENDBRANCH  25  26
ENDBRANCH  24  25
ENDBRANCH   1  24
TORSDOF 7
