REMARK  Name = ZINC10059073
REMARK  6 active torsions:
REMARK  status: ('A' for Active; 'I' for Inactive)
REMARK    1  A    between atoms: C_1  and  O_2
REMARK    2  A    between atoms: O_2  and  C_3
REMARK    3  A    between atoms: C_5  and  C_18
REMARK    4  A    between atoms: C_8  and  O_9
REMARK    5  A    between atoms: O_9  and  C_10
REMARK    6  A    between atoms: C_10  and  C_11
REMARK                            x       y       z     vdW  Elec       q    Type
REMARK                         _______ _______ _______ _____ _____    ______ ____
ROOT
ATOM      1  C   UNL     1      -1.145   2.291   0.031  0.00  0.00    +0.218 C 
ATOM      2  C   UNL     1       0.560   4.011  -0.265  0.00  0.00    +0.159 C 
ATOM      3  N   UNL     1       1.601   3.138  -0.009  0.00  0.00    -0.259 N 
ATOM      4  C   UNL     1       1.296   1.784  -0.001  0.00  0.00    +0.205 A 
ATOM      5  N   UNL     1      -0.016   1.360   0.009  0.00  0.00    -0.287 N 
ATOM      6  C   UNL     1       0.002  -0.004   0.002  0.00  0.00    +0.072 A 
ATOM      7  C   UNL     1      -1.003  -0.964   0.002  0.00  0.00    +0.028 A 
ATOM      8  C   UNL     1      -0.608  -2.292  -0.007  0.00  0.00    +0.002 A 
ATOM      9  C   UNL     1       0.726  -2.661  -0.015  0.00  0.00    +0.002 A 
ATOM     10  C   UNL     1       1.745  -1.726  -0.015  0.00  0.00    +0.030 A 
ATOM     11  C   UNL     1       1.370  -0.378  -0.006  0.00  0.00    +0.091 A 
ATOM     12  N   UNL     1       2.098   0.757  -0.007  0.00  0.00    -0.214 NA
ATOM     13  N   UNL     1       0.855   5.326  -0.538  0.00  0.00    -0.332 N 
ATOM     14  H   UNL     1       2.502   3.457   0.156  0.00  0.00    +0.158 HD
ATOM     15  H   UNL     1       1.778   5.623  -0.548  0.00  0.00    +0.145 HD
ATOM     16  H   UNL     1       0.141   5.956  -0.720  0.00  0.00    +0.145 HD
ATOM     17  N   UNL     1      -0.748   3.719  -0.279  0.00  0.00    -0.337 N 
ATOM     18  H   UNL     1      -1.452   4.435  -0.492  0.00  0.00    +0.164 HD
ENDROOT
BRANCH   1  21
ATOM     19  C   UNL     1      -4.210   0.789  -1.589  0.00  0.00    +0.162 A 
ATOM     20  C   UNL     1      -3.278   1.166  -0.634  0.00  0.00    +0.057 A 
ATOM     21  C   UNL     1      -2.154   1.877  -1.009  0.00  0.00    -0.001 A 
ATOM     22  C   UNL     1      -1.951   2.206  -2.337  0.00  0.00    +0.011 A 
ATOM     23  C   UNL     1      -2.873   1.828  -3.294  0.00  0.00    +0.050 A 
ATOM     24  C   UNL     1      -4.005   1.119  -2.925  0.00  0.00    +0.162 A 
BRANCH  19  26
ATOM     25  C   UNL     1      -5.464  -0.210   0.168  0.00  0.00    +0.277 C 
ATOM     26  O   UNL     1      -5.319   0.094  -1.221  0.00  0.00    -0.491 OA
ENDBRANCH  19  26
BRANCH  24  27
ATOM     27  O   UNL     1      -4.914   0.747  -3.866  0.00  0.00    -0.484 OA
BRANCH  27  28
ATOM     28  C   UNL     1      -4.638   1.121  -5.217  0.00  0.00    +0.264 C 
BRANCH  28  29
ATOM     29  C   UNL     1      -5.746   0.626  -6.111  0.00  0.00    -0.010 A 
ATOM     30  C   UNL     1      -5.661  -0.626  -6.689  0.00  0.00    +0.008 A 
ATOM     31  C   UNL     1      -6.680  -1.082  -7.505  0.00  0.00    +0.015 A 
ATOM     32  C   UNL     1      -7.779  -0.280  -7.751  0.00  0.00    +0.018 A 
ATOM     33  C   UNL     1      -7.862   0.976  -7.177  0.00  0.00    +0.015 A 
ATOM     34  C   UNL     1      -6.845   1.428  -6.357  0.00  0.00    +0.008 A 
ATOM     35 BR   UNL     1      -9.170  -0.900  -8.873  0.00  0.00    -0.050 Br
ENDBRANCH  28  29
ENDBRANCH  27  28
ENDBRANCH  24  27
ENDBRANCH   1  21
TORSDOF 5
