REMARK  Name = ZINC02093191
REMARK  13 active torsions:
REMARK  status: ('A' for Active; 'I' for Inactive)
REMARK    1  A    between atoms: C_1  and  C_2
REMARK    2  A    between atoms: C_3  and  C_38
REMARK    3  A    between atoms: C_11  and  O_13
REMARK    4  A    between atoms: O_13  and  C_14
REMARK    5  A    between atoms: C_14  and  C_16
REMARK    6  A    between atoms: C_16  and  C_18
REMARK    7  A    between atoms: C_16  and  N_29
REMARK    8  A    between atoms: C_18  and  C_19
REMARK    9  A    between atoms: C_30  and  O_32
REMARK   10  A    between atoms: O_32  and  C_33
REMARK   11  A    between atoms: C_33  and  C_34
REMARK   12  A    between atoms: C_33  and  C_35
REMARK   13  A    between atoms: C_33  and  C_36
REMARK                            x       y       z     vdW  Elec       q    Type
REMARK                         _______ _______ _______ _____ _____    ______ ____
ROOT
ATOM      1  C   UNL     1      -0.094  -5.117   5.922  0.00  0.00    +0.189 C 
ENDROOT
BRANCH   1   2
ATOM      2  N   UNL     1      -0.644  -6.435   5.595  0.00  0.00    -0.268 N 
ATOM      3  C   UNL     1      -0.001  -7.236   4.723  0.00  0.00    +0.401 C 
ATOM      4  O   UNL     1       1.035  -6.865   4.207  0.00  0.00    -0.226 OA
ATOM      5  H   UNL     1      -1.471  -6.731   6.007  0.00  0.00    +0.153 HD
BRANCH   3   6
ATOM      6  O   UNL     1      -0.507  -8.447   4.423  0.00  0.00    -0.445 OA
BRANCH   6   7
ATOM      7  C   UNL     1       0.227  -9.244   3.491  0.00  0.00    +0.107 C 
ATOM      8  C   UNL     1       1.631  -9.509   4.040  0.00  0.00    +0.055 C 
ATOM      9  C   UNL     1      -0.496 -10.575   3.277  0.00  0.00    +0.055 C 
ATOM     10  C   UNL     1       0.333  -8.501   2.157  0.00  0.00    +0.055 C 
ENDBRANCH   6   7
ENDBRANCH   3   6
ENDBRANCH   1   2
BRANCH   1  11
ATOM     11  C   UNL     1       0.001  -4.287   4.667  0.00  0.00    +0.333 C 
ATOM     12  O   UNL     1       0.000  -4.826   3.585  0.00  0.00    -0.248 OA
BRANCH  11  13
ATOM     13  O   UNL     1       0.087  -2.950   4.751  0.00  0.00    -0.423 OA
BRANCH  13  24
ATOM     14  C   UNL     1      -1.351   0.316  -0.688  0.00  0.00    +0.045 C 
ATOM     15  C   UNL     1      -0.051  -0.008   0.001  0.00  0.00    -0.030 A 
ATOM     16  C   UNL     1       1.134   0.414  -0.512  0.00  0.00    +0.037 A 
ATOM     17  C   UNL     1       2.338   0.098   0.151  0.00  0.00    +0.340 A 
ATOM     18  O   UNL     1       3.393   0.483  -0.320  0.00  0.00    -0.245 OA
ATOM     19  O   UNL     1       2.351  -0.614   1.288  0.00  0.00    -0.422 OA
ATOM     20  C   UNL     1       1.208  -1.063   1.851  0.00  0.00    +0.143 A 
ATOM     21  C   UNL     1      -0.030  -0.779   1.246  0.00  0.00    +0.022 A 
ATOM     22  C   UNL     1      -1.216  -1.238   1.829  0.00  0.00    +0.035 A 
ATOM     23  C   UNL     1      -1.168  -1.956   2.990  0.00  0.00    +0.084 A 
ATOM     24  C   UNL     1       0.055  -2.235   3.597  0.00  0.00    +0.153 A 
ATOM     25  C   UNL     1       1.240  -1.799   3.027  0.00  0.00    +0.094 A 
ATOM     26 CL   UNL     1      -2.640  -2.525   3.713  0.00  0.00    -0.080 Cl
ATOM     27  C   UNL     1       1.162   1.216  -1.788  0.00  0.00    +0.051 C 
ENDBRANCH  13  24
ENDBRANCH  11  13
ENDBRANCH   1  11
BRANCH   1  28
ATOM     28  C   UNL     1       1.300  -5.282   6.530  0.00  0.00    +0.071 C 
BRANCH  28  29
ATOM     29  C   UNL     1       1.190  -6.006   7.848  0.00  0.00    -0.020 A 
ATOM     30  C   UNL     1       1.110  -5.443   9.064  0.00  0.00    +0.087 A 
ATOM     31  N   UNL     1       1.022  -6.415  10.023  0.00  0.00    -0.360 N 
ATOM     32  H   UNL     1       0.955  -6.252  10.977  0.00  0.00    +0.165 HD
ATOM     33  C   UNL     1       1.045  -7.659   9.432  0.00  0.00    +0.047 A 
ATOM     34  C   UNL     1       1.145  -7.457   8.043  0.00  0.00    +0.003 A 
ATOM     35  C   UNL     1       1.183  -8.554   7.181  0.00  0.00    +0.010 A 
ATOM     36  C   UNL     1       1.120  -9.820   7.691  0.00  0.00    +0.001 A 
ATOM     37  C   UNL     1       1.017 -10.025   9.060  0.00  0.00    +0.002 A 
ATOM     38  C   UNL     1       0.987  -8.956   9.930  0.00  0.00    +0.026 A 
ENDBRANCH  28  29
ENDBRANCH   1  28
TORSDOF 8
