REMARK  Name = ZINC41645161
REMARK  7 active torsions:
REMARK  status: ('A' for Active; 'I' for Inactive)
REMARK    1  A    between atoms: C_1  and  C_2
REMARK    2  A    between atoms: C_2  and  C_3
REMARK    3  A    between atoms: C_3  and  C_5
REMARK    4  A    between atoms: C_3  and  N_11
REMARK    5  A    between atoms: C_12  and  N_16
REMARK    6  A    between atoms: C_17  and  C_19
REMARK    7  A    between atoms: C_19  and  C_30
REMARK                            x       y       z     vdW  Elec       q    Type
REMARK                         _______ _______ _______ _____ _____    ______ ____
ROOT
ATOM      1  N   UNL     1      -2.673  -2.222   2.215  0.00  0.00    -0.269 N 
ATOM      2  C   UNL     1      -3.182  -3.067   3.134  0.00  0.00    +0.243 C 
ATOM      3  O   UNL     1      -3.032  -4.264   3.005  0.00  0.00    -0.273 OA
ATOM      4  H   UNL     1      -2.792  -1.265   2.318  0.00  0.00    +0.156 HD
ENDROOT
BRANCH   2   5
ATOM      5  C   UNL     1      -3.936  -2.525   4.320  0.00  0.00    +0.170 C 
ATOM      6  C   UNL     1      -4.055  -3.594   5.375  0.00  0.00    +0.242 C 
ATOM      7  O   UNL     1      -5.088  -4.228   5.441  0.00  0.00    -0.273 OA
ATOM      8  N   UNL     1      -3.084  -3.877   6.238  0.00  0.00    -0.283 N 
ATOM      9  C   UNL     1      -1.885  -3.189   6.393  0.00  0.00    +0.047 A 
ATOM     10  C   UNL     1      -0.838  -3.796   7.080  0.00  0.00    +0.024 A 
ATOM     11  C   UNL     1       0.365  -3.138   7.239  0.00  0.00    +0.002 A 
ATOM     12  C   UNL     1       0.544  -1.869   6.718  0.00  0.00    +0.001 A 
ATOM     13  C   UNL     1      -0.488  -1.252   6.037  0.00  0.00    +0.016 A 
ATOM     14  C   UNL     1      -1.699  -1.906   5.879  0.00  0.00    +0.031 A 
ATOM     15  S   UNL     1      -3.030  -1.116   5.029  0.00  0.00    -0.098 S 
ATOM     16  C   UNL     1      -5.330  -2.073   3.881  0.00  0.00    +0.043 C 
ATOM     17  H   UNL     1      -3.226  -4.642   6.818  0.00  0.00    +0.155 HD
ENDBRANCH   2   5
BRANCH   1  19
ATOM     18  N   UNL     1      -1.414  -1.994   0.125  0.00  0.00    -0.243 N 
ATOM     19  C   UNL     1      -1.974  -2.724   1.117  0.00  0.00    +0.124 A 
ATOM     20  C   UNL     1      -1.733  -4.036   0.848  0.00  0.00    +0.065 A 
ATOM     21  C   UNL     1      -1.004  -4.102  -0.342  0.00  0.00    +0.136 A 
ATOM     22  N   UNL     1      -0.817  -2.883  -0.778  0.00  0.00    -0.177 NA
BRANCH  18  23
ATOM     23  C   UNL     1      -1.433  -0.534   0.013  0.00  0.00    +0.139 C 
BRANCH  23  24
ATOM     24  C   UNL     1      -2.125  -0.137  -1.266  0.00  0.00    -0.023 A 
ATOM     25  C   UNL     1      -1.625  -0.564  -2.483  0.00  0.00    +0.006 A 
ATOM     26  C   UNL     1      -2.260  -0.200  -3.656  0.00  0.00    +0.000 A 
ATOM     27  C   UNL     1      -3.393   0.590  -3.613  0.00  0.00    +0.000 A 
ATOM     28  C   UNL     1      -3.893   1.015  -2.396  0.00  0.00    +0.000 A 
ATOM     29  C   UNL     1      -3.261   0.648  -1.223  0.00  0.00    +0.006 A 
ENDBRANCH  23  24
BRANCH  23  31
ATOM     30  C   UNL     1      -0.019   1.526   0.010  0.00  0.00    +0.006 C 
ATOM     31  C   UNL     1       0.002  -0.004   0.002  0.00  0.00    +0.028 C 
ENDBRANCH  23  31
ENDBRANCH  18  23
ENDBRANCH   1  19
TORSDOF 5
