REMARK  Name = ZINC02742196
REMARK  12 active torsions:
REMARK  status: ('A' for Active; 'I' for Inactive)
REMARK    1  A    between atoms: C_1  and  C_2
REMARK    2  A    between atoms: C_7  and  O_8
REMARK    3  A    between atoms: O_8  and  C_9
REMARK    4  A    between atoms: C_9  and  C_10
REMARK    5  A    between atoms: C_10  and  C_11
REMARK    6  A    between atoms: C_11  and  C_12
REMARK    7  A    between atoms: N_14  and  C_15
REMARK    8  A    between atoms: C_16  and  C_29
REMARK    9  A    between atoms: C_21  and  C_25
REMARK   10  A    between atoms: C_25  and  C_26
REMARK   11  A    between atoms: C_25  and  C_27
REMARK   12  A    between atoms: C_25  and  C_28
REMARK                            x       y       z     vdW  Elec       q    Type
REMARK                         _______ _______ _______ _____ _____    ______ ____
ROOT
ATOM      1  C   UNL     1      -3.057   0.494   1.206  0.00  0.00    +0.084 A 
ATOM      2  C   UNL     1      -2.447   0.874   0.018  0.00  0.00    +0.068 A 
ATOM      3  C   UNL     1      -3.100   0.495  -1.223  0.00  0.00    -0.023 A 
ATOM      4  C   UNL     1      -4.253  -0.194  -1.079  0.00  0.00    -0.004 A 
ATOM      5  S   UNL     1      -4.477  -0.342   0.671  0.00  0.00    -0.077 S 
ATOM      6  C   UNL     1      -5.137  -0.713  -2.171  0.00  0.00    +0.046 C 
ATOM      7  C   UNL     1      -4.352  -0.673  -3.490  0.00  0.00    -0.000 C 
ATOM      8  C   UNL     1      -3.686   0.699  -3.627  0.00  0.00    +0.009 C 
ATOM      9  C   UNL     1      -2.555   0.832  -2.605  0.00  0.00    +0.037 C 
ENDROOT
BRANCH   2  10
ATOM     10  C   UNL     1      -1.187   1.624   0.017  0.00  0.00    +0.244 C 
ATOM     11  O   UNL     1      -1.204   2.841   0.023  0.00  0.00    -0.270 OA
ATOM     12  N   UNL     1      -0.011   0.966   0.007  0.00  0.00    -0.325 N 
ATOM     13  H   UNL     1       0.002  -0.004   0.002  0.00  0.00    +0.145 HD
ATOM     14  H   UNL     1       0.822   1.462   0.002  0.00  0.00    +0.145 HD
ENDBRANCH   2  10
BRANCH   1  17
ATOM     15  C   UNL     1      -3.364   0.278   3.544  0.00  0.00    +0.218 C 
ATOM     16  O   UNL     1      -4.393  -0.332   3.342  0.00  0.00    -0.275 OA
ATOM     17  N   UNL     1      -2.633   0.728   2.505  0.00  0.00    -0.279 N 
ATOM     18  H   UNL     1      -1.811   1.216   2.667  0.00  0.00    +0.155 HD
BRANCH  15  19
ATOM     19  C   UNL     1      -2.904   0.533   4.956  0.00  0.00    +0.099 C 
BRANCH  19  20
ATOM     20  C   UNL     1      -3.906  -0.078   5.937  0.00  0.00    +0.050 C 
BRANCH  20  21
ATOM     21  C   UNL     1      -3.439   0.181   7.371  0.00  0.00    +0.229 C 
BRANCH  21  22
ATOM     22  O   UNL     1      -4.375  -0.390   8.287  0.00  0.00    -0.492 OA
BRANCH  22  29
ATOM     23  C   UNL     1      -6.220  -1.500  10.116  0.00  0.00    +0.047 C 
ATOM     24  C   UNL     1      -4.976  -0.772  10.557  0.00  0.00    -0.007 A 
ATOM     25  C   UNL     1      -4.699  -0.632  11.903  0.00  0.00    +0.027 A 
ATOM     26  C   UNL     1      -3.561   0.042  12.309  0.00  0.00    +0.041 A 
ATOM     27  C   UNL     1      -2.695   0.570  11.368  0.00  0.00    +0.023 A 
ATOM     28  C   UNL     1      -2.966   0.427  10.021  0.00  0.00    +0.047 A 
ATOM     29  C   UNL     1      -4.107  -0.248   9.612  0.00  0.00    +0.123 A 
ATOM     30 CL   UNL     1      -3.218   0.224  14.001  0.00  0.00    -0.084 Cl
ENDBRANCH  22  29
ENDBRANCH  21  22
ENDBRANCH  20  21
ENDBRANCH  19  20
ENDBRANCH  15  19
ENDBRANCH   1  17
BRANCH   7  31
ATOM     31  C   UNL     1      -5.307  -0.899  -4.663  0.00  0.00    -0.035 C 
ATOM     32  C   UNL     1      -4.524  -0.842  -5.976  0.00  0.00    +0.011 C 
ATOM     33  C   UNL     1      -5.971  -2.271  -4.524  0.00  0.00    +0.011 C 
ATOM     34  C   UNL     1      -6.382   0.190  -4.662  0.00  0.00    +0.011 C 
ENDBRANCH   7  31
TORSDOF 8
