REMARK  Name = ZINC09015526
REMARK  5 active torsions:
REMARK  status: ('A' for Active; 'I' for Inactive)
REMARK    1  A    between atoms: C_9  and  O_30
REMARK    2  A    between atoms: C_10  and  C_11
REMARK    3  A    between atoms: N_12  and  N_13
REMARK    4  A    between atoms: C_14  and  C_16
REMARK    5  A    between atoms: C_18  and  C_22
REMARK                            x       y       z     vdW  Elec       q    Type
REMARK                         _______ _______ _______ _____ _____    ______ ____
ROOT
ATOM      1  N   UNL     1       7.321   0.148  -0.069  0.00  0.00    -0.202 N 
ATOM      2  C   UNL     1       8.490  -0.523  -0.084  0.00  0.00    +0.281 C 
ATOM      3  O   UNL     1       8.492  -1.740  -0.089  0.00  0.00    -0.267 OA
ATOM      4  H   UNL     1       7.319   1.118  -0.065  0.00  0.00    +0.178 HD
ENDROOT
BRANCH   2   5
ATOM      5  C   UNL     1       9.762   0.215  -0.093  0.00  0.00    +0.122 A 
ATOM      6  C   UNL     1      11.034  -0.327  -0.114  0.00  0.00    +0.062 A 
ATOM      7  C   UNL     1      11.907   0.775  -0.115  0.00  0.00    +0.095 A 
ATOM      8  N   UNL     1      11.171   1.866  -0.097  0.00  0.00    -0.173 NA
ATOM      9  N   UNL     1       9.921   1.573  -0.088  0.00  0.00    -0.272 N 
ATOM     10  H   UNL     1       9.197   2.218  -0.079  0.00  0.00    +0.189 HD
BRANCH   7  11
ATOM     11  C   UNL     1      13.390   0.719  -0.134  0.00  0.00    +0.022 A 
ATOM     12  C   UNL     1      14.043  -0.512  -0.158  0.00  0.00    +0.031 A 
ATOM     13  C   UNL     1      15.423  -0.558  -0.176  0.00  0.00    +0.042 A 
ATOM     14  C   UNL     1      16.158   0.615  -0.170  0.00  0.00    +0.021 A 
ATOM     15  C   UNL     1      15.516   1.839  -0.145  0.00  0.00    +0.022 A 
ATOM     16  C   UNL     1      14.135   1.897  -0.134  0.00  0.00    +0.050 A 
ATOM     17 CL   UNL     1      13.330   3.435  -0.110  0.00  0.00    -0.083 Cl
ATOM     18 CL   UNL     1      16.238  -2.091  -0.206  0.00  0.00    -0.084 Cl
ENDBRANCH   7  11
ENDBRANCH   2   5
BRANCH   1  20
ATOM     19  C   UNL     1       4.982   0.092  -0.046  0.00  0.00    +0.142 C 
ATOM     20  N   UNL     1       6.109  -0.555  -0.060  0.00  0.00    -0.187 NA
BRANCH  19  30
ATOM     21  C   UNL     1      -0.016   1.357   0.009  0.00  0.00    +0.001 A 
ATOM     22  C   UNL     1       1.167   2.091   0.002  0.00  0.00    +0.001 A 
ATOM     23  C   UNL     1       2.379   1.466  -0.013  0.00  0.00    +0.009 A 
ATOM     24  C   UNL     1       2.435   0.067  -0.021  0.00  0.00    -0.006 A 
ATOM     25  C   UNL     1       1.233  -0.683  -0.013  0.00  0.00    -0.017 A 
ATOM     26  C   UNL     1       0.002  -0.004   0.002  0.00  0.00    +0.008 A 
ATOM     27  C   UNL     1       1.291  -2.087  -0.020  0.00  0.00    +0.012 A 
ATOM     28  C   UNL     1       2.487  -2.733  -0.034  0.00  0.00    +0.046 A 
ATOM     29  C   UNL     1       3.696  -2.040  -0.042  0.00  0.00    +0.126 A 
ATOM     30  C   UNL     1       3.711  -0.645  -0.037  0.00  0.00    +0.044 A 
BRANCH  29  31
ATOM     31  O   UNL     1       4.868  -2.727  -0.055  0.00  0.00    -0.506 OA
ATOM     32  H   UNL     1       5.199  -2.922  -0.942  0.00  0.00    +0.292 HD
ENDBRANCH  29  31
ENDBRANCH  19  30
ENDBRANCH   1  20
TORSDOF 5
