REMARK  Name = ZINC32105569
REMARK  9 active torsions:
REMARK  status: ('A' for Active; 'I' for Inactive)
REMARK    1  A    between atoms: C_1  and  C_2
REMARK    2  A    between atoms: C_2  and  N_3
REMARK    3  A    between atoms: N_3  and  C_4
REMARK    4  A    between atoms: C_4  and  C_5
REMARK    5  A    between atoms: C_6  and  C_8
REMARK    6  A    between atoms: C_8  and  S_9
REMARK    7  A    between atoms: S_9  and  C_10
REMARK    8  A    between atoms: C_22  and  C_27
REMARK    9  A    between atoms: C_24  and  C_26
REMARK                            x       y       z     vdW  Elec       q    Type
REMARK                         _______ _______ _______ _____ _____    ______ ____
ROOT
ATOM      1  C   UNL     1       1.211   1.756  -0.000  0.00  0.00    +0.198 A 
ATOM      2  N   UNL     1      -0.015   1.283   0.009  0.00  0.00    -0.122 NA
ATOM      3  N   UNL     1       0.002  -0.004   0.002  0.00  0.00    -0.127 NA
ATOM      4  C   UNL     1       1.245  -0.434  -0.012  0.00  0.00    +0.179 A 
ATOM      5  N   UNL     1       2.057   0.689  -0.014  0.00  0.00    -0.260 N 
ATOM      6  C   UNL     1       3.411   0.529  -0.028  0.00  0.00    +0.208 A 
ATOM      7  N   UNL     1       3.974  -0.636  -0.039  0.00  0.00    -0.235 NA
ATOM      8  C   UNL     1       3.256  -1.805  -0.038  0.00  0.00    +0.093 A 
ATOM      9  C   UNL     1       1.869  -1.693  -0.025  0.00  0.00    +0.085 A 
ATOM     10  S   UNL     1       1.278  -3.364  -0.029  0.00  0.00    -0.063 S 
ATOM     11  C   UNL     1       2.837  -4.214  -0.048  0.00  0.00    +0.111 A 
ATOM     12  C   UNL     1       3.791  -3.179  -0.051  0.00  0.00    +0.037 A 
ATOM     13  C   UNL     1       5.149  -3.575  -0.065  0.00  0.00    -0.037 A 
ATOM     14  C   UNL     1       5.450  -4.918  -0.075  0.00  0.00    +0.027 A 
ATOM     15  C   UNL     1       4.437  -5.863  -0.071  0.00  0.00    +0.040 A 
ATOM     16  N   UNL     1       3.172  -5.486  -0.057  0.00  0.00    -0.245 NA
ATOM     17  C   UNL     1       4.780  -7.330  -0.082  0.00  0.00    +0.065 C 
ATOM     18  C   UNL     1       6.247  -2.543  -0.070  0.00  0.00    +0.044 C 
ENDROOT
BRANCH   1  19
ATOM     19  S   UNL     1       1.674   3.456   0.005  0.00  0.00    -0.076 S 
BRANCH  19  20
ATOM     20  C   UNL     1       0.092   4.342   0.025  0.00  0.00    +0.173 C 
BRANCH  20  22
ATOM     21  N   UNL     1      -0.688   6.690   0.046  0.00  0.00    -0.301 N 
ATOM     22  C   UNL     1       0.347   5.827   0.031  0.00  0.00    +0.226 C 
ATOM     23  O   UNL     1       1.486   6.247   0.022  0.00  0.00    -0.275 OA
BRANCH  21  25
ATOM     24  C   UNL     1      -2.527   5.999   1.503  0.00  0.00    +0.024 C 
ATOM     25  C   UNL     1      -2.063   6.183   0.057  0.00  0.00    +0.104 C 
ENDBRANCH  21  25
BRANCH  21  26
ATOM     26  C   UNL     1      -0.440   8.133   0.051  0.00  0.00    +0.104 C 
ATOM     27  C   UNL     1      -0.367   8.644  -1.389  0.00  0.00    +0.024 C 
ENDBRANCH  21  26
ENDBRANCH  20  22
ENDBRANCH  19  20
ENDBRANCH   1  19
TORSDOF 5
