REMARK  Name = ZINC38670954
REMARK  5 active torsions:
REMARK  status: ('A' for Active; 'I' for Inactive)
REMARK    1  A    between atoms: C_1  and  N_2
REMARK    2  A    between atoms: N_2  and  C_3
REMARK    3  A    between atoms: C_3  and  C_4
REMARK    4  A    between atoms: C_10  and  C_12
REMARK    5  A    between atoms: C_15  and  C_17
REMARK                            x       y       z     vdW  Elec       q    Type
REMARK                         _______ _______ _______ _____ _____    ______ ____
ROOT
ATOM      1  C   UNL     1      -0.124   0.066  -2.438  0.00  0.00    +0.133 A 
ATOM      2  C   UNL     1      -0.337  -0.594  -3.619  0.00  0.00    +0.080 A 
ATOM      3  S   UNL     1      -0.273   0.652  -4.749  0.00  0.00    -0.073 S 
ATOM      4  C   UNL     1       0.032   2.002  -3.622  0.00  0.00    +0.125 A 
ATOM      5  N   UNL     1       0.056   1.379  -2.455  0.00  0.00    -0.233 NA
ENDROOT
BRANCH   4   6
ATOM      6  C   UNL     1       0.207   3.435  -3.915  0.00  0.00    +0.073 A 
ATOM      7  C   UNL     1       0.444   4.401  -2.989  0.00  0.00    +0.038 A 
ATOM      8  C   UNL     1       0.550   5.666  -3.712  0.00  0.00    +0.000 A 
ATOM      9  C   UNL     1       0.781   6.988  -3.320  0.00  0.00    +0.010 A 
ATOM     10  C   UNL     1       0.824   7.977  -4.261  0.00  0.00    +0.001 A 
ATOM     11  C   UNL     1       0.639   7.681  -5.604  0.00  0.00    +0.002 A 
ATOM     12  C   UNL     1       0.409   6.386  -6.014  0.00  0.00    +0.026 A 
ATOM     13  C   UNL     1       0.362   5.361  -5.074  0.00  0.00    +0.047 A 
ATOM     14  N   UNL     1       0.162   4.002  -5.169  0.00  0.00    -0.353 N 
ATOM     15  H   UNL     1       0.010   3.517  -5.995  0.00  0.00    +0.166 HD
ENDBRANCH   4   6
BRANCH   1  18
ATOM     16  C   UNL     1      -0.081   1.461   0.012  0.00  0.00    +0.132 C 
ATOM     17  N   UNL     1      -0.023  -0.003   0.003  0.00  0.00    -0.295 N 
ATOM     18  C   UNL     1      -0.102  -0.673  -1.163  0.00  0.00    +0.266 C 
ATOM     19  O   UNL     1      -0.154  -1.888  -1.164  0.00  0.00    -0.268 OA
BRANCH  17  20
ATOM     20  C   UNL     1       0.119  -0.738   1.262  0.00  0.00    +0.142 C 
BRANCH  20  21
ATOM     21  C   UNL     1      -1.246  -1.047   1.821  0.00  0.00    -0.030 A 
ATOM     22  C   UNL     1      -1.861  -0.151   2.676  0.00  0.00    +0.005 A 
ATOM     23  C   UNL     1      -3.113  -0.434   3.189  0.00  0.00    +0.000 A 
ATOM     24  C   UNL     1      -3.750  -1.613   2.847  0.00  0.00    +0.000 A 
ATOM     25  C   UNL     1      -3.135  -2.508   1.992  0.00  0.00    +0.000 A 
ATOM     26  C   UNL     1      -1.884  -2.223   1.475  0.00  0.00    +0.005 A 
ENDBRANCH  20  21
ENDBRANCH  17  20
ENDBRANCH   1  18
TORSDOF 4
