REMARK  Name = ZINC16853047
REMARK  9 active torsions:
REMARK  status: ('A' for Active; 'I' for Inactive)
REMARK    1  A    between atoms: C_1  and  C_2
REMARK    2  A    between atoms: C_4  and  C_18
REMARK    3  A    between atoms: C_5  and  C_9
REMARK    4  A    between atoms: C_6  and  O_8
REMARK    5  A    between atoms: C_9  and  C_10
REMARK    6  A    between atoms: C_13  and  O_16
REMARK    7  A    between atoms: O_16  and  C_17
REMARK    8  A    between atoms: C_19  and  C_20
REMARK    9  A    between atoms: C_23  and  O_26
REMARK                            x       y       z     vdW  Elec       q    Type
REMARK                         _______ _______ _______ _____ _____    ______ ____
ROOT
ATOM      1  C   UNL     1      -2.983  -1.710  -5.353  0.00  0.00    +0.088 C 
ATOM      2  C   UNL     1      -2.534  -1.467  -3.936  0.00  0.00    +0.130 A 
ATOM      3  N   UNL     1      -1.757  -2.354  -3.351  0.00  0.00    -0.232 NA
ATOM      4  C   UNL     1      -1.338  -2.173  -2.095  0.00  0.00    +0.074 A 
ATOM      5  C   UNL     1      -1.739  -1.023  -1.408  0.00  0.00    +0.044 A 
ATOM      6  C   UNL     1      -2.564  -0.119  -2.066  0.00  0.00    +0.220 A 
ATOM      7  N   UNL     1      -2.931  -0.371  -3.319  0.00  0.00    -0.198 NA
ENDROOT
BRANCH   6   8
ATOM      8  O   UNL     1      -2.984   1.009  -1.441  0.00  0.00    -0.492 OA
ATOM      9  H   UNL     1      -2.394   1.766  -1.559  0.00  0.00    +0.294 HD
ENDBRANCH   6   8
BRANCH   4  10
ATOM     10  C   UNL     1      -0.469  -3.168  -1.446  0.00  0.00    +0.029 C 
ATOM     11  C   UNL     1      -0.090  -4.270  -2.117  0.00  0.00    +0.010 C 
BRANCH  11  12
ATOM     12  C   UNL     1       0.779  -5.265  -1.467  0.00  0.00    -0.025 A 
ATOM     13  C   UNL     1       1.217  -5.064  -0.155  0.00  0.00    +0.011 A 
ATOM     14  C   UNL     1       2.027  -6.000   0.450  0.00  0.00    +0.046 A 
ATOM     15  C   UNL     1       2.417  -7.138  -0.246  0.00  0.00    +0.117 A 
ATOM     16  C   UNL     1       1.988  -7.340  -1.552  0.00  0.00    +0.046 A 
ATOM     17  C   UNL     1       1.174  -6.412  -2.163  0.00  0.00    +0.011 A 
BRANCH  15  18
ATOM     18  O   UNL     1       3.219  -8.056   0.353  0.00  0.00    -0.507 OA
ATOM     19  H   UNL     1       4.164  -7.894   0.227  0.00  0.00    +0.292 HD
ENDBRANCH  15  18
ENDBRANCH  11  12
ENDBRANCH   4  10
BRANCH   5  20
ATOM     20  C   UNL     1      -1.293  -0.774   0.010  0.00  0.00    +0.077 C 
BRANCH  20  21
ATOM     21  C   UNL     1       0.002  -0.004   0.002  0.00  0.00    -0.043 A 
ATOM     22  C   UNL     1      -0.017   1.378   0.010  0.00  0.00    +0.007 A 
ATOM     23  C   UNL     1       1.169   2.087   0.002  0.00  0.00    +0.046 A 
ATOM     24  C   UNL     1       2.380   1.409  -0.013  0.00  0.00    +0.120 A 
ATOM     25  C   UNL     1       2.396   0.022  -0.020  0.00  0.00    +0.046 A 
ATOM     26  C   UNL     1       1.207  -0.681  -0.013  0.00  0.00    +0.007 A 
BRANCH  24  27
ATOM     27  O   UNL     1       3.548   2.104  -0.021  0.00  0.00    -0.495 OA
ATOM     28  C   UNL     1       3.456   3.530  -0.013  0.00  0.00    +0.277 C 
ENDBRANCH  24  27
ENDBRANCH  20  21
ENDBRANCH   5  20
TORSDOF 7
