REMARK  Name = ZINC57004399
REMARK  7 active torsions:
REMARK  status: ('A' for Active; 'I' for Inactive)
REMARK    1  A    between atoms: C_1  and  C_2
REMARK    2  A    between atoms: N_7  and  C_9
REMARK    3  A    between atoms: C_9  and  C_10
REMARK    4  A    between atoms: C_15  and  C_16
REMARK    5  A    between atoms: C_16  and  N_17
REMARK    6  A    between atoms: N_20  and  C_21
REMARK    7  A    between atoms: C_30  and  O_32
REMARK                            x       y       z     vdW  Elec       q    Type
REMARK                         _______ _______ _______ _____ _____    ______ ____
ROOT
ATOM      1  N   UNL     1       4.603  -3.142   1.486  0.00  0.00    -0.295 N 
ATOM      2  C   UNL     1       5.536  -2.330   0.952  0.00  0.00    +0.300 C 
ATOM      3  O   UNL     1       5.472  -2.019  -0.222  0.00  0.00    -0.253 OA
ATOM      4  N   UNL     1       6.541  -1.862   1.719  0.00  0.00    -0.290 N 
ATOM      5  H   UNL     1       4.654  -3.390   2.423  0.00  0.00    +0.151 HD
ATOM      6  H   UNL     1       6.592  -2.109   2.655  0.00  0.00    +0.151 HD
ENDROOT
BRANCH   4   7
ATOM      7  C   UNL     1       7.556  -0.979   1.138  0.00  0.00    +0.134 C 
ATOM      8  C   UNL     1       8.681  -1.794   0.539  0.00  0.00    -0.021 A 
ATOM      9  C   UNL     1       8.751  -2.482  -0.661  0.00  0.00    +0.006 A 
ATOM     10  C   UNL     1       9.900  -3.168  -1.002  0.00  0.00    +0.000 A 
ATOM     11  C   UNL     1      10.984  -3.169  -0.145  0.00  0.00    +0.000 A 
ATOM     12  C   UNL     1      10.916  -2.484   1.052  0.00  0.00    +0.004 A 
ATOM     13  C   UNL     1       9.765  -1.795   1.397  0.00  0.00    -0.040 A 
ATOM     14  C   UNL     1       9.442  -0.980   2.631  0.00  0.00    +0.069 C 
ATOM     15  C   UNL     1       8.216  -0.123   2.241  0.00  0.00    +0.143 C 
BRANCH  15  16
ATOM     16  O   UNL     1       7.333   0.040   3.353  0.00  0.00    -0.389 OA
ATOM     17  H   UNL     1       7.702   0.571   4.073  0.00  0.00    +0.210 HD
ENDBRANCH  15  16
ENDBRANCH   4   7
BRANCH   1  18
ATOM     18  C   UNL     1       3.511  -3.651   0.652  0.00  0.00    +0.141 C 
BRANCH  18  24
ATOM     19  C   UNL     1       1.666  -3.960   2.315  0.00  0.00    -0.059 A 
ATOM     20  C   UNL     1       0.837  -4.766   3.073  0.00  0.00    +0.002 A 
ATOM     21  C   UNL     1       0.959  -6.141   3.004  0.00  0.00    +0.000 A 
ATOM     22  C   UNL     1       1.909  -6.711   2.177  0.00  0.00    +0.000 A 
ATOM     23  C   UNL     1       2.736  -5.905   1.418  0.00  0.00    +0.005 A 
ATOM     24  C   UNL     1       2.612  -4.530   1.484  0.00  0.00    -0.029 A 
BRANCH  19  25
ATOM     25  C   UNL     1       1.534  -2.461   2.390  0.00  0.00    -0.043 C 
BRANCH  25  31
ATOM     26  C   UNL     1      -0.019   1.526   0.010  0.00  0.00    +0.005 C 
ATOM     27  C   UNL     1       0.002  -0.004   0.002  0.00  0.00    -0.031 C 
ATOM     28  C   UNL     1      -1.434  -0.535   0.015  0.00  0.00    -0.001 C 
ATOM     29  C   UNL     1      -1.402  -2.064   0.086  0.00  0.00    -0.018 C 
ATOM     30  C   UNL     1      -0.613  -2.496   1.324  0.00  0.00    -0.078 C 
ATOM     31  N   UNL     1       0.758  -1.980   1.239  0.00  0.00    +0.383 N 
ATOM     32  C   UNL     1       0.740  -0.512   1.242  0.00  0.00    -0.075 C 
ATOM     33  H   UNL     1       1.188  -2.307   0.386  0.00  0.00    -0.081 HD
ENDBRANCH  25  31
ENDBRANCH  19  25
ENDBRANCH  18  24
ENDBRANCH   1  18
TORSDOF 6
