REMARK  Name = ZINC67304126
REMARK  8 active torsions:
REMARK  status: ('A' for Active; 'I' for Inactive)
REMARK    1  A    between atoms: C_1  and  C_2
REMARK    2  A    between atoms: C_2  and  C_4
REMARK    3  A    between atoms: C_2  and  N_19
REMARK    4  A    between atoms: C_4  and  C_5
REMARK    5  A    between atoms: N_15  and  C_16
REMARK    6  A    between atoms: C_16  and  C_17
REMARK    7  A    between atoms: C_16  and  C_18
REMARK    8  A    between atoms: C_20  and  C_22
REMARK                            x       y       z     vdW  Elec       q    Type
REMARK                         _______ _______ _______ _____ _____    ______ ____
ROOT
ATOM      1  C   UNL     1       0.658  -2.010   1.299  0.00  0.00    +0.217 C 
ATOM      2  O   UNL     1       0.068  -2.617   0.431  0.00  0.00    -0.276 OA
ATOM      3  N   UNL     1       1.242  -2.681   2.312  0.00  0.00    -0.298 N 
ATOM      4  C   UNL     1       1.956  -1.959   3.374  0.00  0.00    +0.127 C 
ATOM      5  C   UNL     1       1.362  -2.366   4.729  0.00  0.00    +0.128 C 
ATOM      6  N   UNL     1       1.296  -3.832   4.791  0.00  0.00    -0.283 N 
ATOM      7  C   UNL     1       0.582  -4.555   3.728  0.00  0.00    +0.128 C 
ATOM      8  C   UNL     1       1.171  -4.148   2.377  0.00  0.00    +0.127 C 
ATOM      9  C   UNL     1       1.880  -4.503   5.803  0.00  0.00    +0.302 C 
ATOM     10  O   UNL     1       2.548  -3.904   6.624  0.00  0.00    -0.253 OA
ATOM     11  N   UNL     1       1.723  -5.838   5.907  0.00  0.00    -0.297 N 
ATOM     12  H   UNL     1       1.252  -6.326   5.213  0.00  0.00    +0.150 HD
ENDROOT
BRANCH  11  13
ATOM     13  C   UNL     1       2.265  -6.551   7.066  0.00  0.00    +0.068 C 
ATOM     14  C   UNL     1       1.259  -6.492   8.217  0.00  0.00    +0.027 C 
ATOM     15  C   UNL     1       2.524  -8.012   6.690  0.00  0.00    +0.027 C 
ENDBRANCH  11  13
BRANCH   1  16
ATOM     16  C   UNL     1       0.740  -0.507   1.246  0.00  0.00    +0.118 C 
BRANCH  16  18
ATOM     17  C   UNL     1      -0.025   1.530   0.017  0.00  0.00    +0.028 C 
ATOM     18  C   UNL     1       0.001   0.000   0.006  0.00  0.00    +0.079 C 
BRANCH  18  19
ATOM     19  N   UNL     1       0.690  -0.468  -1.199  0.00  0.00    -0.312 N 
ATOM     20  C   UNL     1       0.011  -0.600  -2.356  0.00  0.00    +0.216 C 
ATOM     21  O   UNL     1      -1.171  -0.331  -2.399  0.00  0.00    -0.276 OA
ATOM     22  H   UNL     1       1.635  -0.684  -1.164  0.00  0.00    +0.149 HD
BRANCH  20  23
ATOM     23  C   UNL     1       0.720  -1.082  -3.595  0.00  0.00    +0.075 C 
ATOM     24  C   UNL     1       1.823  -0.080  -3.996  0.00  0.00    +0.013 C 
ATOM     25  C   UNL     1       1.787  -0.076  -5.545  0.00  0.00    +0.001 C 
ATOM     26  C   UNL     1       0.273  -0.182  -5.852  0.00  0.00    +0.001 C 
ATOM     27  C   UNL     1      -0.265  -1.147  -4.775  0.00  0.00    +0.013 C 
ENDBRANCH  20  23
ENDBRANCH  18  19
ENDBRANCH  16  18
ENDBRANCH   1  16
TORSDOF 5
