REMARK  Name = ZINC20262885
REMARK  7 active torsions:
REMARK  status: ('A' for Active; 'I' for Inactive)
REMARK    1  A    between atoms: C_1  and  C_2
REMARK    2  A    between atoms: N_8  and  S_9
REMARK    3  A    between atoms: S_9  and  C_12
REMARK    4  A    between atoms: C_15  and  N_19
REMARK    5  A    between atoms: C_16  and  N_18
REMARK    6  A    between atoms: N_19  and  C_20
REMARK    7  A    between atoms: N_19  and  C_21
REMARK                            x       y       z     vdW  Elec       q    Type
REMARK                         _______ _______ _______ _____ _____    ______ ____
ROOT
ATOM      1  C   UNL     1       0.206   0.760   0.447  0.00  0.00    +0.107 A 
ATOM      2  C   UNL     1       1.444   1.205   0.871  0.00  0.00    +0.030 A 
ATOM      3  C   UNL     1       2.479   0.307   1.059  0.00  0.00    +0.027 A 
ATOM      4  C   UNL     1       2.276  -1.044   0.822  0.00  0.00    +0.050 A 
ATOM      5  C   UNL     1       1.026  -1.493   0.394  0.00  0.00    +0.048 A 
ATOM      6  C   UNL     1      -0.005  -0.586   0.209  0.00  0.00    +0.053 A 
ENDROOT
BRANCH   1   7
ATOM      7  S   UNL     1      -1.105   1.911   0.203  0.00  0.00    +0.061 S 
ATOM      8  O   UNL     1      -0.502   3.135  -0.195  0.00  0.00    -0.153 OA
ATOM      9  O   UNL     1      -2.084   1.251  -0.587  0.00  0.00    -0.153 OA
BRANCH   7  16
ATOM     10  C   UNL     1      -3.124   0.185   1.183  0.00  0.00    +0.026 C 
ATOM     11  C   UNL     1      -2.784   1.245   2.233  0.00  0.00    +0.077 C 
ATOM     12  C   UNL     1      -4.050   2.022   2.607  0.00  0.00    +0.020 C 
ATOM     13  C   UNL     1      -3.680   3.169   3.550  0.00  0.00    +0.003 C 
ATOM     14  C   UNL     1      -2.719   4.125   2.841  0.00  0.00    +0.017 C 
ATOM     15  C   UNL     1      -1.433   3.370   2.472  0.00  0.00    +0.110 C 
ATOM     16  N   UNL     1      -1.798   2.185   1.683  0.00  0.00    -0.174 NA
ENDBRANCH   7  16
ENDBRANCH   1   7
BRANCH   5  17
ATOM     17  N   UNL     1       0.815  -2.856   0.153  0.00  0.00    -0.356 N 
ATOM     18  H   UNL     1      -0.171  -3.208  -0.184  0.00  0.00    +0.142 HD
ATOM     19  H   UNL     1       1.635  -3.574   0.300  0.00  0.00    +0.142 HD
ENDBRANCH   5  17
BRANCH   4  20
ATOM     20  N   UNL     1       3.322  -1.955   1.011  0.00  0.00    -0.335 N 
ATOM     21  C   UNL     1       4.462  -1.635   0.141  0.00  0.00    +0.129 C 
ATOM     22  C   UNL     1       3.732  -2.001   2.421  0.00  0.00    +0.129 C 
ENDBRANCH   4  20
TORSDOF 4
