REMARK  Name = ZINC06102556
REMARK  6 active torsions:
REMARK  status: ('A' for Active; 'I' for Inactive)
REMARK    1  A    between atoms: C_1  and  N_52
REMARK    2  A    between atoms: C_10  and  C_12
REMARK    3  A    between atoms: C_12  and  C_13
REMARK    4  A    between atoms: C_18  and  N_19
REMARK    5  A    between atoms: N_19  and  S_20
REMARK    6  A    between atoms: S_20  and  C_23
REMARK                            x       y       z     vdW  Elec       q    Type
REMARK                         _______ _______ _______ _____ _____    ______ ____
ROOT
ATOM      1  C   UNL     1      -4.321   3.421  -1.189  0.00  0.00    -0.026 A 
ATOM      2  C   UNL     1      -4.963   2.564  -0.316  0.00  0.00    +0.005 A 
ATOM      3  C   UNL     1      -6.315   2.714  -0.066  0.00  0.00    +0.000 A 
ATOM      4  C   UNL     1      -7.031   3.713  -0.698  0.00  0.00    +0.002 A 
ATOM      5  C   UNL     1      -6.397   4.570  -1.577  0.00  0.00    +0.025 A 
ATOM      6  C   UNL     1      -5.038   4.426  -1.825  0.00  0.00    +0.051 A 
ENDROOT
BRANCH   6   7
ATOM      7  N   UNL     1      -4.393   5.291  -2.712  0.00  0.00    -0.216 N 
ATOM      8  H   UNL     1      -4.255   5.025  -3.635  0.00  0.00    +0.174 HD
BRANCH   7   9
ATOM      9  S   UNL     1      -3.864   6.770  -2.189  0.00  0.00    +0.074 S 
ATOM     10  O   UNL     1      -3.224   7.388  -3.297  0.00  0.00    -0.150 OA
ATOM     11  O   UNL     1      -4.955   7.373  -1.506  0.00  0.00    -0.150 OA
BRANCH   9  12
ATOM     12  C   UNL     1      -2.613   6.480  -0.983  0.00  0.00    +0.128 A 
ATOM     13  C   UNL     1      -1.288   6.728  -1.288  0.00  0.00    +0.051 A 
ATOM     14  C   UNL     1      -0.306   6.506  -0.340  0.00  0.00    +0.061 A 
ATOM     15  C   UNL     1      -0.649   6.023   0.911  0.00  0.00    +0.061 A 
ATOM     16  C   UNL     1      -1.974   5.769   1.215  0.00  0.00    +0.043 A 
ATOM     17  C   UNL     1      -2.956   5.998   0.267  0.00  0.00    +0.069 A 
ATOM     18 CL   UNL     1      -4.620   5.679   0.648  0.00  0.00    -0.081 Cl
ATOM     19 CL   UNL     1       0.584   5.736   2.100  0.00  0.00    -0.082 Cl
ATOM     20 CL   UNL     1       1.357   6.824  -0.722  0.00  0.00    -0.082 Cl
ENDBRANCH   9  12
ENDBRANCH   7   9
ENDBRANCH   6   7
BRANCH   1  21
ATOM     21  C   UNL     1      -2.847   3.260  -1.456  0.00  0.00    +0.026 C 
BRANCH  21  31
ATOM     22  C   UNL     1      -2.407   4.169  -4.183  0.00  0.00    -0.095 C 
ATOM     23  C   UNL     1      -3.136   2.000  -4.981  0.00  0.00    -0.074 C 
ATOM     24  C   UNL     1      -4.215   0.943  -4.747  0.00  0.00    +0.017 C 
ATOM     25  C   UNL     1      -4.088   0.377  -3.355  0.00  0.00    -0.047 A 
ATOM     26  C   UNL     1      -4.727  -0.819  -3.066  0.00  0.00    +0.004 A 
ATOM     27  C   UNL     1      -4.639  -1.369  -1.803  0.00  0.00    +0.000 A 
ATOM     28  C   UNL     1      -3.911  -0.724  -0.821  0.00  0.00    +0.000 A 
ATOM     29  C   UNL     1      -3.279   0.470  -1.106  0.00  0.00    +0.002 A 
ATOM     30  C   UNL     1      -3.360   1.020  -2.377  0.00  0.00    -0.058 A 
ATOM     31  C   UNL     1      -2.643   2.318  -2.643  0.00  0.00    -0.033 C 
ATOM     32  N   UNL     1      -3.187   2.955  -3.854  0.00  0.00    +0.383 N 
ATOM     33  H   UNL     1      -4.163   3.221  -3.684  0.00  0.00    -0.081 HD
ENDBRANCH  21  31
ENDBRANCH   1  21
TORSDOF 5
