REMARK  Name = ZINC49198170
REMARK  8 active torsions:
REMARK  status: ('A' for Active; 'I' for Inactive)
REMARK    1  A    between atoms: C_1  and  C_2
REMARK    2  A    between atoms: N_7  and  C_9
REMARK    3  A    between atoms: C_9  and  C_11
REMARK    4  A    between atoms: C_9  and  C_12
REMARK    5  A    between atoms: C_12  and  N_13
REMARK    6  A    between atoms: N_16  and  C_17
REMARK    7  A    between atoms: C_17  and  C_18
REMARK    8  A    between atoms: N_22  and  C_24
REMARK                            x       y       z     vdW  Elec       q    Type
REMARK                         _______ _______ _______ _____ _____    ______ ____
ROOT
ATOM      1  N   UNL     1       1.995  -4.565   1.353  0.00  0.00    -0.301 N 
ATOM      2  C   UNL     1       1.953  -5.895   1.139  0.00  0.00    +0.300 C 
ATOM      3  O   UNL     1       1.355  -6.617   1.913  0.00  0.00    -0.253 OA
ATOM      4  N   UNL     1       2.574  -6.424   0.067  0.00  0.00    -0.299 N 
ATOM      5  H   UNL     1       2.472  -3.989   0.736  0.00  0.00    +0.150 HD
ATOM      6  H   UNL     1       3.051  -5.848  -0.551  0.00  0.00    +0.150 HD
ENDROOT
BRANCH   1   7
ATOM      7  C   UNL     1       1.320  -3.989   2.519  0.00  0.00    +0.090 C 
BRANCH   7   8
ATOM      8  C   UNL     1       1.403  -2.463   2.455  0.00  0.00    -0.054 C 
ATOM      9  C   UNL     1       0.598  -1.859   3.607  0.00  0.00    -0.012 C 
BRANCH   8  15
ATOM     10  C   UNL     1      -2.636  -2.213  -0.299  0.00  0.00    +0.005 C 
ATOM     11  C   UNL     1      -1.141  -1.893  -0.244  0.00  0.00    -0.031 C 
ATOM     12  C   UNL     1      -0.932  -0.389  -0.444  0.00  0.00    -0.001 C 
ATOM     13  C   UNL     1       0.559  -0.068  -0.309  0.00  0.00    -0.018 C 
ATOM     14  C   UNL     1       1.057  -0.547   1.057  0.00  0.00    -0.078 C 
ATOM     15  N   UNL     1       0.854  -1.996   1.175  0.00  0.00    +0.383 N 
ATOM     16  C   UNL     1      -0.580  -2.305   1.118  0.00  0.00    -0.075 C 
ATOM     17  H   UNL     1       1.327  -2.464   0.417  0.00  0.00    -0.081 HD
ENDBRANCH   8  15
ENDBRANCH   7   8
ENDBRANCH   1   7
BRANCH   4  18
ATOM     18  C   UNL     1       2.529  -7.870  -0.166  0.00  0.00    +0.110 C 
BRANCH  18  19
ATOM     19  C   UNL     1       3.307  -8.206  -1.440  0.00  0.00    +0.025 C 
ATOM     20  C   UNL     1       2.564  -7.685  -2.699  0.00  0.00    +0.025 C 
ATOM     21  C   UNL     1       3.051  -8.641  -3.808  0.00  0.00    +0.105 C 
ATOM     22  N   UNL     1       3.517  -9.871  -3.151  0.00  0.00    -0.330 N 
ATOM     23  C   UNL     1       3.320  -9.734  -1.696  0.00  0.00    +0.110 C 
BRANCH  22  24
ATOM     24  C   UNL     1       4.057 -10.985  -3.797  0.00  0.00    +0.030 A 
ATOM     25  C   UNL     1       4.456 -12.092  -3.060  0.00  0.00    +0.023 A 
ATOM     26  C   UNL     1       4.988 -13.193  -3.703  0.00  0.00    +0.002 A 
ATOM     27  C   UNL     1       5.125 -13.193  -5.079  0.00  0.00    +0.000 A 
ATOM     28  C   UNL     1       4.729 -12.092  -5.816  0.00  0.00    +0.002 A 
ATOM     29  C   UNL     1       4.191 -10.990  -5.180  0.00  0.00    +0.023 A 
ENDBRANCH  22  24
ENDBRANCH  18  19
ENDBRANCH   4  18
TORSDOF 6
