REMARK  Name = ZINC12499755
REMARK  11 active torsions:
REMARK  status: ('A' for Active; 'I' for Inactive)
REMARK    1  A    between atoms: C_1  and  C_2
REMARK    2  A    between atoms: C_2  and  O_3
REMARK    3  A    between atoms: O_3  and  C_4
REMARK    4  A    between atoms: C_4  and  C_6
REMARK    5  A    between atoms: C_10  and  N_11
REMARK    6  A    between atoms: N_11  and  C_12
REMARK    7  A    between atoms: C_12  and  N_14
REMARK    8  A    between atoms: C_15  and  C_17
REMARK    9  A    between atoms: C_17  and  O_18
REMARK   10  A    between atoms: O_18  and  C_19
REMARK   11  A    between atoms: C_24  and  C_25
REMARK                            x       y       z     vdW  Elec       q    Type
REMARK                         _______ _______ _______ _____ _____    ______ ____
ROOT
ATOM      1  N   UNL     1       5.359  -4.022  -0.074  0.00  0.00    -0.290 N 
ATOM      2  H   UNL     1       4.598  -4.625  -0.070  0.00  0.00    +0.154 HD
ENDROOT
BRANCH   1   7
ATOM      3  C   UNL     1       7.048  -5.863  -0.095  0.00  0.00    +0.091 A 
ATOM      4  C   UNL     1       8.476  -6.132  -0.117  0.00  0.00    -0.021 A 
ATOM      5  C   UNL     1       9.268  -5.038  -0.117  0.00  0.00    -0.004 A 
ATOM      6  S   UNL     1       8.147  -3.668  -0.098  0.00  0.00    -0.077 S 
ATOM      7  C   UNL     1       6.646  -4.533  -0.089  0.00  0.00    +0.086 A 
ATOM      8  C   UNL     1      10.765  -5.007  -0.131  0.00  0.00    +0.043 C 
ATOM      9  C   UNL     1      11.281  -6.407   0.234  0.00  0.00    +0.005 C 
ATOM     10  C   UNL     1      10.526  -7.444  -0.602  0.00  0.00    +0.005 C 
ATOM     11  C   UNL     1       9.073  -7.534  -0.132  0.00  0.00    +0.037 C 
BRANCH   3  12
ATOM     12  C   UNL     1       6.069  -6.952  -0.084  0.00  0.00    +0.342 C 
ATOM     13  O   UNL     1       5.650  -7.403  -1.133  0.00  0.00    -0.245 OA
BRANCH  12  14
ATOM     14  O   UNL     1       5.632  -7.454   1.089  0.00  0.00    -0.461 OA
BRANCH  14  16
ATOM     15  C   UNL     1       4.288  -8.968   2.442  0.00  0.00    +0.048 C 
ATOM     16  C   UNL     1       4.662  -8.532   1.024  0.00  0.00    +0.229 C 
ENDBRANCH  14  16
ENDBRANCH  12  14
ENDBRANCH   3  12
ENDBRANCH   1   7
BRANCH   1  17
ATOM     17  C   UNL     1       5.162  -2.689  -0.064  0.00  0.00    +0.141 C 
ATOM     18  S   UNL     1       6.504  -1.626  -0.071  0.00  0.00    -0.018 S 
BRANCH  17  19
ATOM     19  N   UNL     1       3.909  -2.192  -0.049  0.00  0.00    -0.265 N 
ATOM     20  C   UNL     1       3.713  -0.859  -0.040  0.00  0.00    +0.256 C 
ATOM     21  O   UNL     1       4.664  -0.106  -0.044  0.00  0.00    -0.272 OA
ATOM     22  H   UNL     1       3.149  -2.795  -0.045  0.00  0.00    +0.157 HD
BRANCH  20  23
ATOM     23  C   UNL     1       2.312  -0.304  -0.023  0.00  0.00    +0.325 C 
BRANCH  23  24
ATOM     24  O   UNL     1       2.366   1.124  -0.015  0.00  0.00    -0.482 OA
BRANCH  24  25
ATOM     25  C   UNL     1       1.179   1.786   0.000  0.00  0.00    +0.124 A 
ATOM     26  C   UNL     1      -0.013   1.076   0.008  0.00  0.00    +0.047 A 
ATOM     27  C   UNL     1      -1.218   1.751   0.017  0.00  0.00    +0.019 A 
ATOM     28  C   UNL     1      -1.237   3.134   0.030  0.00  0.00    +0.018 A 
ATOM     29  C   UNL     1      -0.050   3.844   0.023  0.00  0.00    +0.022 A 
ATOM     30  C   UNL     1       1.158   3.173   0.008  0.00  0.00    -0.008 A 
ATOM     31  C   UNL     1       2.450   3.947   0.000  0.00  0.00    +0.047 C 
ATOM     32 BR   UNL     1      -2.888   4.055   0.050  0.00  0.00    -0.050 Br
ENDBRANCH  24  25
ENDBRANCH  23  24
ENDBRANCH  20  23
ENDBRANCH  17  19
ENDBRANCH   1  17
TORSDOF 9
