REMARK  Name = ZINC08741413
REMARK  7 active torsions:
REMARK  status: ('A' for Active; 'I' for Inactive)
REMARK    1  A    between atoms: C_1  and  O_2
REMARK    2  A    between atoms: O_2  and  C_3
REMARK    3  A    between atoms: C_3  and  C_5
REMARK    4  A    between atoms: C_8  and  N_11
REMARK    5  A    between atoms: N_11  and  C_12
REMARK    6  A    between atoms: C_12  and  C_13
REMARK    7  A    between atoms: C_14  and  O_28
REMARK                            x       y       z     vdW  Elec       q    Type
REMARK                         _______ _______ _______ _____ _____    ______ ____
ROOT
ATOM      1  C   UNL     1      -0.961  -2.232  -0.001  0.00  0.00    +0.054 A 
ATOM      2  C   UNL     1      -0.814  -2.915   1.194  0.00  0.00    +0.125 A 
ATOM      3  C   UNL     1      -0.541  -4.279   1.197  0.00  0.00    +0.046 A 
ATOM      4  C   UNL     1      -0.415  -4.960   0.006  0.00  0.00    +0.016 A 
ATOM      5  C   UNL     1      -0.562  -4.279  -1.202  0.00  0.00    +0.026 A 
ATOM      6  C   UNL     1      -0.843  -2.905  -1.209  0.00  0.00    +0.148 A 
ATOM      7  O   UNL     1      -0.993  -2.229  -2.370  0.00  0.00    -0.421 OA
ATOM      8  C   UNL     1      -0.892  -2.815  -3.574  0.00  0.00    +0.345 A 
ATOM      9  O   UNL     1      -1.038  -2.153  -4.583  0.00  0.00    -0.245 OA
ATOM     10  C   UNL     1      -0.606  -4.253  -3.677  0.00  0.00    +0.067 A 
ATOM     11  C   UNL     1      -0.431  -4.992  -2.487  0.00  0.00    -0.000 A 
ATOM     12  C   UNL     1      -0.169  -6.355  -2.551  0.00  0.00    +0.009 A 
ATOM     13  C   UNL     1      -0.063  -6.972  -3.781  0.00  0.00    +0.001 A 
ATOM     14  C   UNL     1      -0.225  -6.245  -4.952  0.00  0.00    +0.001 A 
ATOM     15  C   UNL     1      -0.494  -4.893  -4.909  0.00  0.00    +0.015 A 
ENDROOT
BRANCH   2  16
ATOM     16  O   UNL     1      -0.937  -2.250   2.372  0.00  0.00    -0.506 OA
ATOM     17  H   UNL     1      -1.839  -2.230   2.720  0.00  0.00    +0.292 HD
ENDBRANCH   2  16
BRANCH   1  18
ATOM     18  C   UNL     1      -1.256  -0.754   0.010  0.00  0.00    +0.144 C 
BRANCH  18  19
ATOM     19  N   UNL     1       0.002  -0.004   0.002  0.00  0.00    -0.339 N 
ATOM     20  H   UNL     1       0.849  -0.478  -0.009  0.00  0.00    +0.146 HD
BRANCH  19  24
ATOM     21  C   UNL     1      -0.054   4.152   0.025  0.00  0.00    +0.059 A 
ATOM     22  C   UNL     1       1.165   3.468   0.010  0.00  0.00    +0.017 A 
ATOM     23  C   UNL     1       1.180   2.097   0.002  0.00  0.00    +0.024 A 
ATOM     24  C   UNL     1      -0.017   1.386   0.010  0.00  0.00    +0.027 A 
ATOM     25  C   UNL     1      -1.233   2.064   0.019  0.00  0.00    +0.024 A 
ATOM     26  C   UNL     1      -1.255   3.435   0.033  0.00  0.00    +0.017 A 
BRANCH  21  27
ATOM     27  C   UNL     1      -0.074   5.626   0.034  0.00  0.00    +0.339 C 
ATOM     28  O   UNL     1       0.970   6.248   0.027  0.00  0.00    -0.245 OA
BRANCH  27  30
ATOM     29  C   UNL     1      -1.194   7.734   0.056  0.00  0.00    +0.280 C 
ATOM     30  O   UNL     1      -1.250   6.284   0.048  0.00  0.00    -0.464 OA
ENDBRANCH  27  30
ENDBRANCH  21  27
ENDBRANCH  19  24
ENDBRANCH  18  19
ENDBRANCH   1  18
TORSDOF 6
