REMARK  Name = ZINC21518529
REMARK  7 active torsions:
REMARK  status: ('A' for Active; 'I' for Inactive)
REMARK    1  A    between atoms: C_3  and  O_18
REMARK    2  A    between atoms: C_6  and  N_7
REMARK    3  A    between atoms: N_7  and  C_8
REMARK    4  A    between atoms: C_8  and  C_9
REMARK    5  A    between atoms: C_12  and  O_16
REMARK    6  A    between atoms: C_14  and  O_15
REMARK    7  A    between atoms: O_18  and  C_19
REMARK                            x       y       z     vdW  Elec       q    Type
REMARK                         _______ _______ _______ _____ _____    ______ ____
ROOT
ATOM      1  N   UNL     1       0.060  -4.173  -0.019  0.00  0.00    -0.340 N 
ATOM      2  H   UNL     1       1.020  -4.709  -0.031  0.00  0.00    +0.146 HD
ENDROOT
BRANCH   1   8
ATOM      3  C   UNL     1       1.232  -2.062  -0.020  0.00  0.00    +0.026 A 
ATOM      4  C   UNL     1       1.212  -0.680  -0.013  0.00  0.00    +0.049 A 
ATOM      5  C   UNL     1       0.002  -0.004   0.002  0.00  0.00    +0.145 A 
ATOM      6  C   UNL     1      -1.191  -0.714   0.015  0.00  0.00    +0.084 A 
ATOM      7  C   UNL     1      -1.172  -2.096   0.003  0.00  0.00    +0.046 A 
ATOM      8  C   UNL     1       0.040  -2.773  -0.012  0.00  0.00    +0.029 A 
ATOM      9 CL   UNL     1      -2.705   0.134   0.041  0.00  0.00    -0.080 Cl
BRANCH   5  10
ATOM     10  O   UNL     1      -0.016   1.356   0.009  0.00  0.00    -0.433 OA
BRANCH  10  11
ATOM     11  C   UNL     1       1.248   2.022   0.001  0.00  0.00    +0.541 C 
ATOM     12  F   UNL     1       1.979   1.650   1.134  0.00  0.00    -0.166 F 
ATOM     13  F   UNL     1       1.957   1.662  -1.150  0.00  0.00    -0.166 F 
ENDBRANCH  10  11
ENDBRANCH   5  10
ENDBRANCH   1   8
BRANCH   1  14
ATOM     14  C   UNL     1      -1.199  -4.923  -0.011  0.00  0.00    +0.140 C 
BRANCH  14  15
ATOM     15  C   UNL     1      -0.902  -6.401  -0.021  0.00  0.00    +0.011 A 
ATOM     16  C   UNL     1      -0.982  -7.112  -1.203  0.00  0.00    +0.012 A 
ATOM     17  C   UNL     1      -0.711  -8.467  -1.216  0.00  0.00    +0.046 A 
ATOM     18  C   UNL     1      -0.357  -9.116  -0.041  0.00  0.00    +0.120 A 
ATOM     19  C   UNL     1      -0.277  -8.405   1.146  0.00  0.00    +0.091 A 
ATOM     20  C   UNL     1      -0.544  -7.044   1.155  0.00  0.00    +0.125 A 
BRANCH  20  21
ATOM     21  O   UNL     1      -0.461  -6.342   2.316  0.00  0.00    -0.506 OA
ATOM     22  H   UNL     1      -0.177  -6.853   3.248  0.00  0.00    +0.292 HD
ENDBRANCH  20  21
BRANCH  18  23
ATOM     23  O   UNL     1      -0.090 -10.449  -0.054  0.00  0.00    -0.507 OA
ATOM     24  H   UNL     1       0.190 -10.963   0.877  0.00  0.00    +0.292 HD
ENDBRANCH  18  23
ENDBRANCH  14  15
ENDBRANCH   1  14
TORSDOF 7
