REMARK  Name = ZINC14246898
REMARK  9 active torsions:
REMARK  status: ('A' for Active; 'I' for Inactive)
REMARK    1  A    between atoms: C_1  and  C_2
REMARK    2  A    between atoms: C_2  and  N_3
REMARK    3  A    between atoms: N_14  and  N_15
REMARK    4  A    between atoms: C_16  and  C_18
REMARK    5  A    between atoms: C_20  and  C_25
REMARK    6  A    between atoms: C_22  and  C_23
REMARK    7  A    between atoms: C_22  and  C_24
REMARK    8  A    between atoms: C_26  and  C_27
REMARK    9  A    between atoms: C_26  and  C_28
REMARK                            x       y       z     vdW  Elec       q    Type
REMARK                         _______ _______ _______ _____ _____    ______ ____
ROOT
ATOM      1  N   UNL     1      -3.161  -2.673   0.848  0.00  0.00    -0.280 N 
ATOM      2  C   UNL     1      -3.825  -3.588   1.592  0.00  0.00    +0.263 A 
ATOM      3  O   UNL     1      -5.019  -3.775   1.444  0.00  0.00    -0.267 OA
ATOM      4  C   UNL     1      -3.053  -4.344   2.587  0.00  0.00    +0.065 A 
ATOM      5  C   UNL     1      -3.646  -5.304   3.406  0.00  0.00    +0.015 A 
ATOM      6  C   UNL     1      -2.881  -5.979   4.317  0.00  0.00    +0.001 A 
ATOM      7  C   UNL     1      -1.522  -5.717   4.434  0.00  0.00    +0.002 A 
ATOM      8  C   UNL     1      -0.915  -4.781   3.644  0.00  0.00    +0.028 A 
ATOM      9  C   UNL     1      -1.671  -4.075   2.704  0.00  0.00    +0.080 A 
ATOM     10  N   UNL     1      -1.111  -3.139   1.901  0.00  0.00    -0.214 NA
ATOM     11  C   UNL     1      -1.822  -2.479   1.022  0.00  0.00    +0.216 A 
ATOM     12  N   UNL     1      -1.190  -1.543   0.241  0.00  0.00    -0.234 N 
ATOM     13  H   UNL     1      -1.695  -1.041  -0.418  0.00  0.00    +0.173 HD
ENDROOT
BRANCH  12  14
ATOM     14  N   UNL     1       0.183  -1.314   0.396  0.00  0.00    -0.234 N 
ATOM     15  C   UNL     1       0.804  -0.399  -0.375  0.00  0.00    +0.233 C 
ATOM     16  O   UNL     1       0.173   0.229  -1.199  0.00  0.00    -0.274 OA
ATOM     17  H   UNL     1       0.687  -1.816   1.055  0.00  0.00    +0.173 HD
BRANCH  15  18
ATOM     18  C   UNL     1       2.282  -0.156  -0.213  0.00  0.00    +0.090 C 
ATOM     19  C   UNL     1       2.725   1.241   0.227  0.00  0.00    +0.030 C 
ATOM     20  C   UNL     1       2.810   0.068   1.206  0.00  0.00    -0.016 C 
ATOM     21  C   UNL     1       1.797   0.028   2.351  0.00  0.00    +0.012 C 
ATOM     22  C   UNL     1       4.201  -0.477   1.536  0.00  0.00    +0.012 C 
BRANCH  19  23
ATOM     23  C   UNL     1       1.649   2.269   0.466  0.00  0.00    -0.023 C 
ATOM     24  C   UNL     1       1.974   3.520   0.678  0.00  0.00    -0.079 C 
ATOM     25  C   UNL     1       3.423   3.932   0.684  0.00  0.00    +0.038 C 
ATOM     26  C   UNL     1       0.897   4.548   0.916  0.00  0.00    +0.038 C 
ENDBRANCH  19  23
ENDBRANCH  15  18
ENDBRANCH  12  14
BRANCH   1  28
ATOM     27  C   UNL     1      -3.862  -2.628  -1.494  0.00  0.00    +0.027 C 
ATOM     28  C   UNL     1      -3.885  -1.889  -0.155  0.00  0.00    +0.125 C 
ENDBRANCH   1  28
TORSDOF 4
