REMARK  Name = ZINC38677294
REMARK  11 active torsions:
REMARK  status: ('A' for Active; 'I' for Inactive)
REMARK    1  A    between atoms: C_1  and  C_2
REMARK    2  A    between atoms: C_2  and  C_3
REMARK    3  A    between atoms: C_6  and  C_9
REMARK    4  A    between atoms: C_14  and  O_23
REMARK    5  A    between atoms: C_18  and  N_22
REMARK    6  A    between atoms: C_19  and  C_20
REMARK    7  A    between atoms: O_23  and  C_24
REMARK    8  A    between atoms: C_24  and  C_26
REMARK    9  A    between atoms: C_26  and  C_28
REMARK   10  A    between atoms: C_26  and  O_29
REMARK   11  A    between atoms: O_29  and  C_30
REMARK                            x       y       z     vdW  Elec       q    Type
REMARK                         _______ _______ _______ _____ _____    ______ ____
ROOT
ATOM      1  C   UNL     1       2.644  -1.912  -4.911  0.00  0.00    +0.098 C 
ATOM      2  C   UNL     1       3.694  -0.900  -5.286  0.00  0.00    +0.008 A 
ATOM      3  C   UNL     1       3.314   0.280  -5.900  0.00  0.00    +0.012 A 
ATOM      4  C   UNL     1       4.264   1.219  -6.251  0.00  0.00    +0.047 A 
ATOM      5  C   UNL     1       5.605   0.981  -5.988  0.00  0.00    +0.135 A 
ATOM      6  C   UNL     1       5.989  -0.200  -5.373  0.00  0.00    +0.093 A 
ATOM      7  C   UNL     1       5.033  -1.143  -5.021  0.00  0.00    +0.138 A 
ATOM      8  O   UNL     1       5.425  -2.294  -4.420  0.00  0.00    -0.441 OA
ATOM      9  C   UNL     1       4.610  -3.362  -4.421  0.00  0.00    +0.199 C 
ATOM     10  C   UNL     1       3.283  -3.246  -4.646  0.00  0.00    +0.098 C 
ENDROOT
BRANCH   1  14
ATOM     11  C   UNL     1       0.603  -0.599  -1.396  0.00  0.00    -0.048 A 
ATOM     12  C   UNL     1      -0.100  -0.795  -2.571  0.00  0.00    +0.004 A 
ATOM     13  C   UNL     1       0.561  -1.220  -3.708  0.00  0.00    +0.005 A 
ATOM     14  C   UNL     1       1.924  -1.448  -3.671  0.00  0.00    -0.035 A 
ATOM     15  C   UNL     1       2.626  -1.251  -2.497  0.00  0.00    +0.005 A 
ATOM     16  C   UNL     1       1.966  -0.822  -1.361  0.00  0.00    +0.004 A 
BRANCH  11  18
ATOM     17  C   UNL     1      -0.127   1.394  -0.113  0.00  0.00    +0.009 C 
ATOM     18  C   UNL     1      -0.118  -0.136  -0.156  0.00  0.00    +0.032 C 
ENDBRANCH  11  18
ENDBRANCH   1  14
BRANCH   9  19
ATOM     19  N   UNL     1       5.141  -4.606  -4.186  0.00  0.00    -0.328 N 
ATOM     20  H   UNL     1       6.092  -4.704  -4.022  0.00  0.00    +0.145 HD
ATOM     21  H   UNL     1       4.565  -5.386  -4.183  0.00  0.00    +0.145 HD
ENDBRANCH   9  19
BRANCH  10  22
ATOM     22  C   UNL     1       2.468  -4.424  -4.632  0.00  0.00    +0.101 C 
ATOM     23  N   UNL     1       1.822  -5.358  -4.620  0.00  0.00    -0.191 NA
ENDBRANCH  10  22
BRANCH   5  24
ATOM     24  O   UNL     1       6.541   1.904  -6.333  0.00  0.00    -0.423 OA
BRANCH  24  25
ATOM     25  C   UNL     1       7.430   1.575  -7.284  0.00  0.00    +0.353 C 
ATOM     26  O   UNL     1       7.326   0.524  -7.871  0.00  0.00    -0.246 OA
BRANCH  25  27
ATOM     27  C   UNL     1       8.557   2.517  -7.620  0.00  0.00    +0.279 C 
ATOM     28  C   UNL     1       7.985   3.806  -8.215  0.00  0.00    +0.064 C 
BRANCH  27  29
ATOM     29  O   UNL     1       9.427   1.900  -8.571  0.00  0.00    -0.478 OA
BRANCH  29  30
ATOM     30  C   UNL     1      10.751   2.197  -8.481  0.00  0.00    +0.122 A 
ATOM     31  C   UNL     1      11.186   3.159  -7.581  0.00  0.00    +0.048 A 
ATOM     32  C   UNL     1      12.531   3.460  -7.490  0.00  0.00    +0.042 A 
ATOM     33  C   UNL     1      13.444   2.804  -8.298  0.00  0.00    +0.124 A 
ATOM     34  C   UNL     1      13.011   1.845  -9.197  0.00  0.00    +0.042 A 
ATOM     35  C   UNL     1      11.667   1.536  -9.285  0.00  0.00    +0.048 A 
ATOM     36  F   UNL     1      14.759   3.100  -8.209  0.00  0.00    -0.205 F 
ENDBRANCH  29  30
ENDBRANCH  27  29
ENDBRANCH  25  27
ENDBRANCH  24  25
ENDBRANCH   5  24
TORSDOF 9
