REMARK  Name = ZINC01836387
REMARK  9 active torsions:
REMARK  status: ('A' for Active; 'I' for Inactive)
REMARK    1  A    between atoms: C_1  and  C_2
REMARK    2  A    between atoms: C_5  and  N_8
REMARK    3  A    between atoms: C_17  and  S_18
REMARK    4  A    between atoms: S_18  and  C_19
REMARK    5  A    between atoms: C_19  and  C_21
REMARK    6  A    between atoms: C_19  and  C_22
REMARK    7  A    between atoms: N_24  and  C_25
REMARK    8  A    between atoms: C_33  and  C_35
REMARK    9  A    between atoms: C_33  and  C_36
REMARK                            x       y       z     vdW  Elec       q    Type
REMARK                         _______ _______ _______ _____ _____    ______ ____
ROOT
ATOM      1  N   UNL     1       2.388  -3.369  -1.064  0.00  0.00    -0.255 N 
ATOM      2  C   UNL     1       2.148  -4.658  -1.369  0.00  0.00    +0.268 A 
ATOM      3  O   UNL     1       2.971  -5.311  -1.986  0.00  0.00    -0.267 OA
ATOM      4  C   UNL     1       0.910  -5.247  -0.961  0.00  0.00    +0.076 A 
ATOM      5  C   UNL     1       0.450  -6.628  -1.199  0.00  0.00    -0.021 A 
ATOM      6  C   UNL     1      -0.757  -6.947  -0.708  0.00  0.00    +0.006 A 
ATOM      7  S   UNL     1      -1.352  -5.464   0.076  0.00  0.00    -0.072 S 
ATOM      8  C   UNL     1       0.035  -4.412  -0.255  0.00  0.00    +0.117 A 
ATOM      9  N   UNL     1       0.332  -3.146   0.020  0.00  0.00    -0.215 NA
ATOM     10  C   UNL     1       1.478  -2.624  -0.366  0.00  0.00    +0.178 A 
ATOM     11  C   UNL     1      -1.513  -8.248  -0.755  0.00  0.00    +0.112 C 
ATOM     12  S   UNL     1      -0.743  -9.313  -2.013  0.00  0.00    -0.149 S 
ATOM     13  C   UNL     1       1.029  -9.035  -1.700  0.00  0.00    +0.015 C 
ATOM     14  C   UNL     1       1.351  -7.574  -1.982  0.00  0.00    +0.053 C 
ATOM     15  C   UNL     1       1.348  -9.358  -0.238  0.00  0.00    +0.023 C 
ATOM     16  C   UNL     1       1.860  -9.934  -2.617  0.00  0.00    +0.023 C 
ENDROOT
BRANCH   1  21
ATOM     17  C   UNL     1       7.277  -0.985  -2.682  0.00  0.00    +0.044 C 
ATOM     18  C   UNL     1       5.979  -1.619  -2.253  0.00  0.00    -0.050 A 
ATOM     19  C   UNL     1       4.790  -1.214  -2.830  0.00  0.00    +0.005 A 
ATOM     20  C   UNL     1       3.598  -1.792  -2.438  0.00  0.00    +0.026 A 
ATOM     21  C   UNL     1       3.596  -2.781  -1.464  0.00  0.00    +0.052 A 
ATOM     22  C   UNL     1       4.791  -3.182  -0.882  0.00  0.00    +0.026 A 
ATOM     23  C   UNL     1       5.980  -2.603  -1.281  0.00  0.00    +0.005 A 
ENDBRANCH   1  21
BRANCH  10  24
ATOM     24  S   UNL     1       1.841  -0.943   0.014  0.00  0.00    -0.075 S 
BRANCH  24  25
ATOM     25  C   UNL     1       0.330  -0.489   0.902  0.00  0.00    +0.137 C 
ATOM     26  C   UNL     1       0.236  -1.298   2.197  0.00  0.00    +0.029 C 
BRANCH  25  27
ATOM     27  C   UNL     1       0.362   0.982   1.230  0.00  0.00    +0.230 C 
ATOM     28  O   UNL     1       1.418   1.579   1.236  0.00  0.00    -0.274 OA
ATOM     29  N   UNL     1      -0.783   1.635   1.510  0.00  0.00    -0.285 N 
ATOM     30  H   UNL     1      -1.635   1.177   1.430  0.00  0.00    +0.155 HD
BRANCH  29  31
ATOM     31  C   UNL     1      -0.744   2.974   1.915  0.00  0.00    +0.033 A 
ATOM     32  C   UNL     1      -1.658   3.445   2.849  0.00  0.00    +0.023 A 
ATOM     33  C   UNL     1      -1.612   4.765   3.252  0.00  0.00    +0.002 A 
ATOM     34  C   UNL     1      -0.665   5.620   2.718  0.00  0.00    +0.000 A 
ATOM     35  C   UNL     1       0.242   5.155   1.784  0.00  0.00    +0.002 A 
ATOM     36  C   UNL     1       0.206   3.835   1.381  0.00  0.00    +0.023 A 
ENDBRANCH  29  31
ENDBRANCH  25  27
ENDBRANCH  24  25
ENDBRANCH  10  24
TORSDOF 5
