REMARK  Name = ZINC39631309
REMARK  11 active torsions:
REMARK  status: ('A' for Active; 'I' for Inactive)
REMARK    1  A    between atoms: C_1  and  C_2
REMARK    2  A    between atoms: C_2  and  C_4
REMARK    3  A    between atoms: C_2  and  N_11
REMARK    4  A    between atoms: C_4  and  C_5
REMARK    5  A    between atoms: C_5  and  C_6
REMARK    6  A    between atoms: C_6  and  C_7
REMARK    7  A    between atoms: C_7  and  C_8
REMARK    8  A    between atoms: C_7  and  C_9
REMARK    9  A    between atoms: C_7  and  O_10
REMARK   10  A    between atoms: C_12  and  C_14
REMARK   11  A    between atoms: C_25  and  C_27
REMARK                            x       y       z     vdW  Elec       q    Type
REMARK                         _______ _______ _______ _____ _____    ______ ____
ROOT
ATOM      1  C   UNL     1       2.799  -0.500   2.249  0.00  0.00    +0.100 C 
ATOM      2  C   UNL     1       2.654   0.260   3.587  0.00  0.00    +0.121 C 
ATOM      3  N   UNL     1       3.985   0.143   4.229  0.00  0.00    -0.296 N 
ATOM      4  C   UNL     1       4.948   0.296   3.112  0.00  0.00    +0.115 C 
ATOM      5  C   UNL     1       4.305  -0.473   1.940  0.00  0.00    -0.004 C 
ATOM      6  C   UNL     1       4.562   0.258   0.626  0.00  0.00    -0.010 C 
ATOM      7  C   UNL     1       6.061   0.221   0.311  0.00  0.00    -0.082 C 
ATOM      8  N   UNL     1       6.508  -1.174   0.214  0.00  0.00    +0.379 N 
ATOM      9  C   UNL     1       6.343  -1.844   1.510  0.00  0.00    -0.082 C 
ATOM     10  C   UNL     1       4.856  -1.894   1.875  0.00  0.00    -0.010 C 
ATOM     11  C   UNL     1       4.258  -0.057   5.533  0.00  0.00    +0.247 C 
ATOM     12  O   UNL     1       3.354  -0.273   6.317  0.00  0.00    -0.270 OA
ATOM     13  H   UNL     1       5.959  -1.654  -0.484  0.00  0.00    -0.086 HD
ATOM     14  H   UNL     1       7.480  -1.196  -0.053  0.00  0.00    -0.086 HD
ENDROOT
BRANCH  11  15
ATOM     15  C   UNL     1       5.655  -0.012   6.011  0.00  0.00    +0.037 A 
ATOM     16  C   UNL     1       6.627   0.676   5.262  0.00  0.00    +0.013 A 
ATOM     17  C   UNL     1       7.918   0.731   5.680  0.00  0.00    +0.009 A 
ATOM     18  C   UNL     1       8.298   0.094   6.876  0.00  0.00    -0.018 A 
ATOM     19  C   UNL     1       9.627   0.137   7.328  0.00  0.00    +0.008 A 
ATOM     20  C   UNL     1       9.965  -0.488   8.489  0.00  0.00    +0.001 A 
ATOM     21  C   UNL     1       9.012  -1.174   9.240  0.00  0.00    +0.001 A 
ATOM     22  C   UNL     1       7.715  -1.238   8.833  0.00  0.00    +0.008 A 
ATOM     23  C   UNL     1       7.327  -0.603   7.639  0.00  0.00    -0.017 A 
ATOM     24  C   UNL     1       5.997  -0.644   7.195  0.00  0.00    +0.021 A 
ENDBRANCH  11  15
BRANCH   1  26
ATOM     25  N   UNL     1       1.519  -0.504   0.132  0.00  0.00    -0.312 N 
ATOM     26  C   UNL     1       2.028   0.203   1.161  0.00  0.00    +0.218 C 
ATOM     27  O   UNL     1       1.865   1.403   1.212  0.00  0.00    -0.275 OA
ATOM     28  H   UNL     1       1.650  -1.464   0.091  0.00  0.00    +0.149 HD
BRANCH  25  30
ATOM     29  C   UNL     1      -0.692   0.330  -0.499  0.00  0.00    +0.028 C 
ATOM     30  C   UNL     1       0.770   0.179  -0.926  0.00  0.00    +0.070 C 
BRANCH  30  31
ATOM     31  C   UNL     1       0.842  -0.643  -2.214  0.00  0.00    +0.022 C 
BRANCH  31  32
ATOM     32  C   UNL     1       2.289  -0.689  -2.709  0.00  0.00    +0.005 C 
BRANCH  32  33
ATOM     33  C   UNL     1       2.362  -1.511  -3.998  0.00  0.00    +0.034 C 
BRANCH  33  34
ATOM     34  C   UNL     1       3.809  -1.557  -4.492  0.00  0.00    +0.061 C 
ATOM     35  C   UNL     1       3.864  -2.271  -5.844  0.00  0.00    +0.041 C 
ATOM     36  C   UNL     1       4.341  -0.130  -4.648  0.00  0.00    +0.041 C 
BRANCH  34  37
ATOM     37  O   UNL     1       4.613  -2.264  -3.547  0.00  0.00    -0.389 OA
ATOM     38  H   UNL     1       4.333  -3.178  -3.398  0.00  0.00    +0.210 HD
ENDBRANCH  34  37
ENDBRANCH  33  34
ENDBRANCH  32  33
ENDBRANCH  31  32
ENDBRANCH  30  31
ENDBRANCH  25  30
ENDBRANCH   1  26
TORSDOF 8
