REMARK  Name = ZINC37064353
REMARK  8 active torsions:
REMARK  status: ('A' for Active; 'I' for Inactive)
REMARK    1  A    between atoms: C_1  and  C_2
REMARK    2  A    between atoms: C_2  and  C_4
REMARK    3  A    between atoms: C_2  and  N_7
REMARK    4  A    between atoms: C_4  and  C_5
REMARK    5  A    between atoms: C_4  and  C_6
REMARK    6  A    between atoms: N_7  and  S_8
REMARK    7  A    between atoms: S_8  and  C_11
REMARK    8  A    between atoms: C_14  and  N_18
REMARK                            x       y       z     vdW  Elec       q    Type
REMARK                         _______ _______ _______ _____ _____    ______ ____
ROOT
ATOM      1  C   UNL     1      -0.951   0.603  -3.133  0.00  0.00    +0.133 A 
ATOM      2  C   UNL     1      -2.204   0.962  -2.669  0.00  0.00    +0.047 A 
ATOM      3  C   UNL     1      -2.805   2.120  -3.123  0.00  0.00    +0.040 A 
ATOM      4  C   UNL     1      -2.150   2.925  -4.046  0.00  0.00    +0.027 A 
ATOM      5  C   UNL     1      -0.891   2.563  -4.510  0.00  0.00    +0.040 A 
ATOM      6  C   UNL     1      -0.293   1.406  -4.048  0.00  0.00    +0.047 A 
ATOM      7 BR   UNL     1       1.423   0.916  -4.673  0.00  0.00    -0.048 Br
ATOM      8 BR   UNL     1      -3.095  -0.135  -1.413  0.00  0.00    -0.048 Br
ENDROOT
BRANCH   1   9
ATOM      9  S   UNL     1      -0.188  -0.875  -2.551  0.00  0.00    +0.061 S 
ATOM     10  O   UNL     1       0.751  -1.265  -3.545  0.00  0.00    -0.153 OA
ATOM     11  O   UNL     1      -1.236  -1.730  -2.117  0.00  0.00    -0.153 OA
BRANCH   9  12
ATOM     12  N   UNL     1       0.688  -0.476  -1.203  0.00  0.00    -0.187 NA
ATOM     13  H   UNL     1       1.655  -0.556  -1.212  0.00  0.00    +0.148 HD
BRANCH  12  15
ATOM     14  C   UNL     1      -0.019   1.526   0.010  0.00  0.00    +0.026 C 
ATOM     15  C   UNL     1       0.002  -0.004   0.002  0.00  0.00    +0.076 C 
BRANCH  15  16
ATOM     16  C   UNL     1       0.742  -0.511   1.242  0.00  0.00    +0.001 C 
ATOM     17  C   UNL     1       0.026  -0.018   2.500  0.00  0.00    +0.009 C 
ATOM     18  C   UNL     1       0.763  -2.041   1.233  0.00  0.00    +0.009 C 
ENDBRANCH  15  16
ENDBRANCH  12  15
ENDBRANCH   9  12
ENDBRANCH   1   9
BRANCH   4  19
ATOM     19  N   UNL     1      -2.755   4.096  -4.508  0.00  0.00    -0.358 N 
ATOM     20  H   UNL     1      -3.634   4.348  -4.184  0.00  0.00    +0.142 HD
ATOM     21  H   UNL     1      -2.296   4.658  -5.152  0.00  0.00    +0.142 HD
ENDBRANCH   4  19
TORSDOF 5
