REMARK  Name = ZINC33583989
REMARK  9 active torsions:
REMARK  status: ('A' for Active; 'I' for Inactive)
REMARK    1  A    between atoms: C_1  and  C_2
REMARK    2  A    between atoms: C_2  and  C_4
REMARK    3  A    between atoms: C_2  and  N_16
REMARK    4  A    between atoms: C_11  and  C_13
REMARK    5  A    between atoms: C_13  and  C_14
REMARK    6  A    between atoms: C_14  and  O_15
REMARK    7  A    between atoms: C_20  and  C_21
REMARK    8  A    between atoms: C_26  and  O_27
REMARK    9  A    between atoms: O_27  and  C_28
REMARK                            x       y       z     vdW  Elec       q    Type
REMARK                         _______ _______ _______ _____ _____    ______ ____
ROOT
ATOM      1  N   UNL     1      -0.703  -1.014  -0.424  0.00  0.00    -0.244 N 
ATOM      2  C   UNL     1      -0.796  -1.537  -1.635  0.00  0.00    +0.259 C 
ATOM      3  O   UNL     1       0.163  -1.598  -2.381  0.00  0.00    -0.269 OA
ATOM      4  C   UNL     1      -2.124  -2.045  -2.035  0.00  0.00    +0.077 C 
ATOM      5  C   UNL     1      -2.514  -2.625  -3.199  0.00  0.00    +0.031 C 
ATOM      6  S   UNL     1      -3.077  -1.685  -0.566  0.00  0.00    -0.061 S 
ATOM      7  C   UNL     1      -1.767  -0.955   0.402  0.00  0.00    +0.121 C 
ATOM      8  S   UNL     1      -1.844  -0.327   1.993  0.00  0.00    -0.027 S 
ENDROOT
BRANCH   5   9
ATOM      9  C   UNL     1      -3.834  -3.257  -3.298  0.00  0.00    +0.018 A 
ATOM     10  C   UNL     1      -4.528  -3.624  -2.139  0.00  0.00    +0.011 A 
ATOM     11  C   UNL     1      -5.768  -4.217  -2.240  0.00  0.00    +0.001 A 
ATOM     12  C   UNL     1      -6.332  -4.452  -3.483  0.00  0.00    +0.004 A 
ATOM     13  C   UNL     1      -5.658  -4.095  -4.636  0.00  0.00    +0.046 A 
ATOM     14  C   UNL     1      -4.413  -3.493  -4.556  0.00  0.00    +0.127 A 
BRANCH  14  15
ATOM     15  O   UNL     1      -3.754  -3.137  -5.688  0.00  0.00    -0.495 OA
ATOM     16  C   UNL     1      -4.405  -3.407  -6.930  0.00  0.00    +0.277 C 
ENDBRANCH  14  15
ENDBRANCH   5   9
BRANCH   1  18
ATOM     17  C   UNL     1       0.449   0.994   0.366  0.00  0.00    +0.038 C 
ATOM     18  C   UNL     1       0.588  -0.493   0.033  0.00  0.00    +0.165 C 
BRANCH  18  19
ATOM     19  C   UNL     1       1.026  -1.245   1.263  0.00  0.00    +0.236 C 
ATOM     20  O   UNL     1       0.266  -2.019   1.804  0.00  0.00    -0.274 OA
ATOM     21  N   UNL     1       2.264  -1.056   1.763  0.00  0.00    -0.297 N 
ATOM     22  C   UNL     1       3.149  -0.027   1.201  0.00  0.00    +0.108 C 
ATOM     23  C   UNL     1       4.483  -0.678   0.822  0.00  0.00    +0.019 C 
ATOM     24  C   UNL     1       5.057  -1.404   2.041  0.00  0.00    +0.003 C 
ATOM     25  C   UNL     1       4.090  -2.505   2.483  0.00  0.00    +0.022 C 
ATOM     26  C   UNL     1       2.750  -1.871   2.885  0.00  0.00    +0.078 C 
BRANCH  26  27
ATOM     27  C   UNL     1       1.734  -2.970   3.199  0.00  0.00    +0.050 C 
BRANCH  27  28
ATOM     28  C   UNL     1       2.293  -3.886   4.290  0.00  0.00    +0.157 C 
BRANCH  28  29
ATOM     29  O   UNL     1       1.344  -4.913   4.583  0.00  0.00    -0.395 OA
ATOM     30  H   UNL     1       1.633  -5.532   5.267  0.00  0.00    +0.209 HD
ENDBRANCH  28  29
ENDBRANCH  27  28
ENDBRANCH  26  27
ENDBRANCH  18  19
ENDBRANCH   1  18
TORSDOF 7
