REMARK  Name = ZINC00254989
REMARK  3 active torsions:
REMARK  status: ('A' for Active; 'I' for Inactive)
REMARK    1  A    between atoms: C_3  and  C_6
REMARK    2  A    between atoms: N_8  and  N_12
REMARK    3  A    between atoms: C_13  and  C_14
REMARK                            x       y       z     vdW  Elec       q    Type
REMARK                         _______ _______ _______ _____ _____    ______ ____
ROOT
ATOM      1  C   UNL     1       0.916   5.132   0.019  0.00  0.00    +0.099 A 
ATOM      2  C   UNL     1       2.217   5.522   0.009  0.00  0.00    +0.144 A 
ATOM      3  N   UNL     1       2.221   6.898   0.015  0.00  0.00    -0.207 N 
ATOM      4  C   UNL     1       0.919   7.308   0.029  0.00  0.00    +0.214 A 
ATOM      5  N   UNL     1       0.144   6.250   0.025  0.00  0.00    -0.213 NA
ATOM      6  N   UNL     1       0.487   8.623   0.039  0.00  0.00    -0.327 N 
ATOM      7  H   UNL     1       1.134   9.346   0.036  0.00  0.00    +0.145 HD
ATOM      8  H   UNL     1      -0.462   8.822   0.048  0.00  0.00    +0.145 HD
ENDROOT
BRANCH   1  11
ATOM      9  C   UNL     1      -1.079   1.914   0.017  0.00  0.00    +0.008 A 
ATOM     10  C   UNL     1      -0.864   3.276   0.026  0.00  0.00    +0.018 A 
ATOM     11  C   UNL     1       0.426   3.738   0.017  0.00  0.00    +0.039 A 
ATOM     12  S   UNL     1       1.360   2.217   0.001  0.00  0.00    -0.095 S 
ATOM     13  C   UNL     1      -0.013   1.076   0.008  0.00  0.00    +0.046 A 
ENDBRANCH   1  11
BRANCH   3  14
ATOM     14  N   UNL     1       3.352   7.726   0.009  0.00  0.00    -0.172 NA
ATOM     15  C   UNL     1       4.378   7.418  -0.724  0.00  0.00    +0.142 C 
BRANCH  15  16
ATOM     16  C   UNL     1       5.567   8.288  -0.730  0.00  0.00    +0.013 A 
ATOM     17  C   UNL     1       6.673   7.959  -1.518  0.00  0.00    +0.012 A 
ATOM     18  C   UNL     1       7.783   8.778  -1.520  0.00  0.00    +0.021 A 
ATOM     19  C   UNL     1       7.803   9.925  -0.743  0.00  0.00    +0.042 A 
ATOM     20  C   UNL     1       6.711  10.257   0.041  0.00  0.00    +0.040 A 
ATOM     21  C   UNL     1       5.591   9.450   0.048  0.00  0.00    +0.051 A 
ATOM     22 CL   UNL     1       4.220   9.872   1.024  0.00  0.00    -0.083 Cl
ATOM     23 CL   UNL     1       9.204  10.950  -0.751  0.00  0.00    -0.083 Cl
ENDBRANCH  15  16
ENDBRANCH   3  14
TORSDOF 3
