REMARK  Name = ZINC12942330
REMARK  7 active torsions:
REMARK  status: ('A' for Active; 'I' for Inactive)
REMARK    1  A    between atoms: C_1  and  C_2
REMARK    2  A    between atoms: C_13  and  C_15
REMARK    3  A    between atoms: C_15  and  C_16
REMARK    4  A    between atoms: N_18  and  C_19
REMARK    5  A    between atoms: C_19  and  C_20
REMARK    6  A    between atoms: C_20  and  N_21
REMARK    7  A    between atoms: C_25  and  C_26
REMARK                            x       y       z     vdW  Elec       q    Type
REMARK                         _______ _______ _______ _____ _____    ______ ____
ROOT
ATOM      1  C   UNL     1      -4.986   4.323  -0.434  0.00  0.00    +0.215 C 
ATOM      2  O   UNL     1      -5.720   4.514   0.513  0.00  0.00    -0.276 OA
ATOM      3  N   UNL     1      -5.256   4.898  -1.622  0.00  0.00    -0.314 N 
ATOM      4  H   UNL     1      -4.670   4.745  -2.380  0.00  0.00    +0.149 HD
ENDROOT
BRANCH   1   5
ATOM      5  C   UNL     1      -3.772   3.443  -0.281  0.00  0.00    +0.123 C 
BRANCH   5  18
ATOM      6  C   UNL     1      -7.055   1.570   2.415  0.00  0.00    +0.109 C 
ATOM      7  C   UNL     1      -5.883   2.479   2.148  0.00  0.00    +0.217 C 
ATOM      8  O   UNL     1      -5.878   3.608   2.592  0.00  0.00    -0.276 OA
ATOM      9  N   UNL     1      -4.840   2.039   1.417  0.00  0.00    -0.270 N 
ATOM     10  C   UNL     1      -4.843   0.746   0.906  0.00  0.00    +0.079 C 
ATOM     11  C   UNL     1      -3.686   0.088   0.769  0.00  0.00    +0.023 C 
ATOM     12  C   UNL     1      -2.424   0.760   1.133  0.00  0.00    -0.019 A 
ATOM     13  C   UNL     1      -1.242   0.036   1.273  0.00  0.00    +0.008 A 
ATOM     14  C   UNL     1      -0.078   0.687   1.629  0.00  0.00    +0.001 A 
ATOM     15  C   UNL     1      -0.085   2.054   1.849  0.00  0.00    +0.000 A 
ATOM     16  C   UNL     1      -1.255   2.780   1.704  0.00  0.00    +0.006 A 
ATOM     17  C   UNL     1      -2.421   2.142   1.344  0.00  0.00    -0.019 A 
ATOM     18  C   UNL     1      -3.698   2.922   1.156  0.00  0.00    +0.120 C 
ENDBRANCH   5  18
ENDBRANCH   1   5
BRANCH   3  19
ATOM     19  C   UNL     1      -6.436   5.753  -1.771  0.00  0.00    +0.123 C 
BRANCH  19  20
ATOM     20  C   UNL     1      -6.511   6.275  -3.207  0.00  0.00    +0.136 C 
BRANCH  20  21
ATOM     21  N   UNL     1      -7.691   7.131  -3.356  0.00  0.00    -0.227 N 
ATOM     22  C   UNL     1      -8.838   6.589  -3.728  0.00  0.00    +0.260 C 
ATOM     23  O   UNL     1      -8.941   5.397  -3.950  0.00  0.00    -0.269 OA
ATOM     24  C   UNL     1      -9.991   7.505  -3.854  0.00  0.00    +0.080 C 
ATOM     25  C   UNL     1     -11.273   7.238  -4.208  0.00  0.00    +0.028 C 
ATOM     26  S   UNL     1      -9.230   9.063  -3.418  0.00  0.00    -0.026 S 
ATOM     27  C   UNL     1      -7.580   8.453  -3.116  0.00  0.00    +0.286 C 
ATOM     28  O   UNL     1      -6.594   9.079  -2.776  0.00  0.00    -0.262 OA
BRANCH  25  29
ATOM     29  C   UNL     1     -12.296   8.289  -4.112  0.00  0.00    -0.024 A 
ATOM     30  C   UNL     1     -11.998   9.505  -3.487  0.00  0.00    +0.009 A 
ATOM     31  C   UNL     1     -12.961  10.487  -3.405  0.00  0.00    +0.020 A 
ATOM     32  C   UNL     1     -14.226  10.269  -3.928  0.00  0.00    +0.041 A 
ATOM     33  C   UNL     1     -14.530   9.065  -4.543  0.00  0.00    +0.020 A 
ATOM     34  C   UNL     1     -13.575   8.075  -4.638  0.00  0.00    +0.009 A 
ATOM     35 CL   UNL     1     -15.434  11.509  -3.814  0.00  0.00    -0.084 Cl
ENDBRANCH  25  29
ENDBRANCH  20  21
ENDBRANCH  19  20
ENDBRANCH   3  19
TORSDOF 6
