REMARK  Name = ZINC20480978
REMARK  4 active torsions:
REMARK  status: ('A' for Active; 'I' for Inactive)
REMARK    1  A    between atoms: C_1  and  N_2
REMARK    2  A    between atoms: C_6  and  C_12
REMARK    3  A    between atoms: C_12  and  C_14
REMARK    4  A    between atoms: C_12  and  N_21
REMARK                            x       y       z     vdW  Elec       q    Type
REMARK                         _______ _______ _______ _____ _____    ______ ____
ROOT
ATOM      1  C   UNL     1       2.465   3.926  -0.001  0.00  0.00    -0.012 C 
ENDROOT
BRANCH   1   7
ATOM      2  C   UNL     1      -2.892  -0.145   0.028  0.00  0.00    +0.138 C 
ATOM      3  N   UNL     1      -2.541   1.277   0.033  0.00  0.00    -0.274 N 
ATOM      4  C   UNL     1      -1.230   1.755   0.017  0.00  0.00    +0.040 A 
ATOM      5  C   UNL     1      -0.013   1.076   0.008  0.00  0.00    +0.024 A 
ATOM      6  C   UNL     1       1.173   1.780   0.000  0.00  0.00    +0.004 A 
ATOM      7  C   UNL     1       1.165   3.163   0.008  0.00  0.00    -0.057 A 
ATOM      8  C   UNL     1      -0.039   3.845   0.023  0.00  0.00    +0.008 A 
ATOM      9  C   UNL     1      -1.224   3.144   0.031  0.00  0.00    -0.017 A 
ATOM     10  C   UNL     1      -2.673   3.574   0.047  0.00  0.00    +0.133 C 
ATOM     11  C   UNL     1      -3.444   2.271   0.047  0.00  0.00    +0.224 C 
ATOM     12  O   UNL     1      -4.651   2.148   0.058  0.00  0.00    -0.275 OA
ENDBRANCH   1   7
BRANCH   1  13
ATOM     13  C   UNL     1       3.009   3.976  -1.405  0.00  0.00    -0.038 A 
ATOM     14  C   UNL     1       2.836   5.109  -2.186  0.00  0.00    +0.020 A 
ATOM     15  C   UNL     1       3.355   5.109  -3.472  0.00  0.00    +0.036 A 
ATOM     16  C   UNL     1       4.021   3.987  -3.930  0.00  0.00    +0.126 A 
ATOM     17  N   UNL     1       4.166   2.927  -3.160  0.00  0.00    -0.262 NA
ATOM     18  C   UNL     1       3.691   2.894  -1.930  0.00  0.00    +0.113 A 
ATOM     19 BR   UNL     1       3.153   6.624  -4.586  0.00  0.00    -0.049 Br
ENDBRANCH   1  13
BRANCH   1  20
ATOM     20  N   UNL     1       3.433   3.255   0.876  0.00  0.00    +0.385 N 
ATOM     21  H   UNL     1       4.381   3.812   0.870  0.00  0.00    -0.089 HD
ATOM     22  H   UNL     1       3.607   2.231   0.514  0.00  0.00    -0.089 HD
ATOM     23  H   UNL     1       3.036   3.219   1.901  0.00  0.00    -0.089 HD
ENDBRANCH   1  20
TORSDOF 3
