REMARK  Name = ZINC12330089
REMARK  8 active torsions:
REMARK  status: ('A' for Active; 'I' for Inactive)
REMARK    1  A    between atoms: C_1  and  C_2
REMARK    2  A    between atoms: C_8  and  O_29
REMARK    3  A    between atoms: C_17  and  C_18
REMARK    4  A    between atoms: C_17  and  N_57
REMARK    5  A    between atoms: C_18  and  C_20
REMARK    6  A    between atoms: C_18  and  O_28
REMARK    7  A    between atoms: C_24  and  O_26
REMARK    8  A    between atoms: O_26  and  C_27
REMARK                            x       y       z     vdW  Elec       q    Type
REMARK                         _______ _______ _______ _____ _____    ______ ____
ROOT
ATOM      1  C   UNL     1      -5.858  -8.976   0.130  0.00  0.00    +0.044 C 
ATOM      2  C   UNL     1      -4.697  -8.284  -0.537  0.00  0.00    -0.050 A 
ATOM      3  C   UNL     1      -4.895  -7.095  -1.213  0.00  0.00    +0.007 A 
ATOM      4  C   UNL     1      -3.831  -6.463  -1.823  0.00  0.00    +0.046 A 
ATOM      5  C   UNL     1      -2.557  -7.019  -1.761  0.00  0.00    +0.127 A 
ATOM      6  C   UNL     1      -2.361  -8.209  -1.081  0.00  0.00    +0.023 A 
ATOM      7  C   UNL     1      -3.433  -8.839  -0.472  0.00  0.00    +0.013 A 
ATOM      8  C   UNL     1      -0.996  -8.841  -0.982  0.00  0.00    +0.152 C 
ATOM      9  C   UNL     1      -0.077  -8.256  -2.058  0.00  0.00    +0.084 C 
ATOM     10  C   UNL     1      -0.202  -6.729  -2.019  0.00  0.00    +0.110 C 
ATOM     11  O   UNL     1      -1.535  -6.370  -2.377  0.00  0.00    -0.485 OA
ATOM     12  C   UNL     1       0.786  -6.111  -3.009  0.00  0.00    +0.029 C 
ATOM     13  C   UNL     1       0.706  -4.585  -2.919  0.00  0.00    -0.075 C 
ATOM     14  C   UNL     1       0.049  -4.697  -0.589  0.00  0.00    -0.075 C 
ATOM     15  C   UNL     1       0.109  -6.227  -0.608  0.00  0.00    +0.029 C 
ATOM     16  N   UNL     1       1.047  -4.167  -1.542  0.00  0.00    +0.382 N 
ATOM     17  H   UNL     1       1.971  -4.542  -1.300  0.00  0.00    -0.082 HD
ENDROOT
BRANCH   8  18
ATOM     18  O   UNL     1      -1.111 -10.253  -1.172  0.00  0.00    -0.387 OA
ATOM     19  H   UNL     1      -1.678 -10.692  -0.524  0.00  0.00    +0.210 HD
ENDBRANCH   8  18
BRANCH  16  20
ATOM     20  C   UNL     1       1.091  -2.692  -1.459  0.00  0.00    -0.042 C 
BRANCH  20  21
ATOM     21  C   UNL     1       2.281  -2.188  -2.277  0.00  0.00    +0.128 C 
BRANCH  21  22
ATOM     22  C   UNL     1       2.363  -0.687  -2.171  0.00  0.00    -0.017 A 
ATOM     23  C   UNL     1       3.021  -0.105  -1.103  0.00  0.00    +0.006 A 
ATOM     24  C   UNL     1       3.098   1.272  -1.003  0.00  0.00    +0.004 A 
ATOM     25  C   UNL     1       2.518   2.070  -1.971  0.00  0.00    +0.045 A 
ATOM     26  C   UNL     1       1.857   1.488  -3.043  0.00  0.00    +0.120 A 
ATOM     27  C   UNL     1       1.781   0.106  -3.141  0.00  0.00    +0.051 A 
BRANCH  26  28
ATOM     28  O   UNL     1       1.286   2.271  -3.996  0.00  0.00    -0.495 OA
ATOM     29  C   UNL     1       1.403   3.685  -3.830  0.00  0.00    +0.277 C 
ENDBRANCH  26  28
ENDBRANCH  21  22
BRANCH  21  30
ATOM     30  O   UNL     1       3.486  -2.768  -1.773  0.00  0.00    -0.389 OA
ATOM     31  H   UNL     1       3.667  -2.557  -0.847  0.00  0.00    +0.210 HD
ENDBRANCH  21  30
ENDBRANCH  20  21
ENDBRANCH  16  20
TORSDOF 6
