REMARK  Name = ZINC06646400
REMARK  9 active torsions:
REMARK  status: ('A' for Active; 'I' for Inactive)
REMARK    1  A    between atoms: C_1  and  O_2
REMARK    2  A    between atoms: O_2  and  C_3
REMARK    3  A    between atoms: C_5  and  C_10
REMARK    4  A    between atoms: C_8  and  O_9
REMARK    5  A    between atoms: C_10  and  C_12
REMARK    6  A    between atoms: C_13  and  C_14
REMARK    7  A    between atoms: C_16  and  O_22
REMARK    8  A    between atoms: C_17  and  O_21
REMARK    9  A    between atoms: O_22  and  C_23
REMARK                            x       y       z     vdW  Elec       q    Type
REMARK                         _______ _______ _______ _____ _____    ______ ____
ROOT
ATOM      1  C   UNL     1       3.662   3.240  -0.017  0.00  0.00    +0.052 C 
ATOM      2  C   UNL     1       4.823   3.932  -0.024  0.00  0.00    +0.012 C 
ENDROOT
BRANCH   2   3
ATOM      3  C   UNL     1       6.105   3.215  -0.041  0.00  0.00    -0.020 A 
ATOM      4  C   UNL     1       7.310   3.929  -0.049  0.00  0.00    +0.057 A 
ATOM      5  C   UNL     1       8.511   3.250  -0.064  0.00  0.00    +0.163 A 
ATOM      6  C   UNL     1       8.525   1.855  -0.071  0.00  0.00    +0.173 A 
ATOM      7  C   UNL     1       7.331   1.145  -0.063  0.00  0.00    +0.063 A 
ATOM      8  C   UNL     1       6.127   1.815  -0.043  0.00  0.00    +0.027 A 
ATOM      9 BR   UNL     1       7.358  -0.746  -0.073  0.00  0.00    -0.046 Br
BRANCH   6  10
ATOM     10  O   UNL     1       9.709   1.189  -0.085  0.00  0.00    -0.503 OA
ATOM     11  H   UNL     1      10.060   0.992   0.794  0.00  0.00    +0.292 HD
ENDBRANCH   6  10
BRANCH   5  12
ATOM     12  O   UNL     1       9.683   3.941  -0.072  0.00  0.00    -0.491 OA
ATOM     13  C   UNL     1       9.595   5.367  -0.064  0.00  0.00    +0.277 C 
ENDBRANCH   5  12
ENDBRANCH   2   3
BRANCH   1  14
ATOM     14  C   UNL     1       2.424   3.932  -0.001  0.00  0.00    +0.186 C 
ATOM     15  O   UNL     1       2.408   5.150   0.006  0.00  0.00    -0.287 OA
BRANCH  14  18
ATOM     16  C   UNL     1      -1.249   3.146   0.031  0.00  0.00    +0.162 A 
ATOM     17  C   UNL     1      -0.065   3.857   0.023  0.00  0.00    +0.061 A 
ATOM     18  C   UNL     1       1.155   3.177   0.008  0.00  0.00    +0.025 A 
ATOM     19  C   UNL     1       1.172   1.779   0.000  0.00  0.00    +0.015 A 
ATOM     20  C   UNL     1      -0.013   1.076   0.008  0.00  0.00    +0.050 A 
ATOM     21  C   UNL     1      -1.225   1.752   0.017  0.00  0.00    +0.158 A 
BRANCH  16  23
ATOM     22  C   UNL     1      -2.389   5.234   0.054  0.00  0.00    +0.277 C 
ATOM     23  O   UNL     1      -2.439   3.805   0.046  0.00  0.00    -0.491 OA
ENDBRANCH  16  23
BRANCH  21  24
ATOM     24  O   UNL     1      -2.390   1.054   0.019  0.00  0.00    -0.503 OA
ATOM     25  H   UNL     1      -2.724   0.847   0.902  0.00  0.00    +0.292 HD
ENDBRANCH  21  24
ENDBRANCH  14  18
ENDBRANCH   1  14
TORSDOF 7
