REMARK  Name = ZINC16528803
REMARK  14 active torsions:
REMARK  status: ('A' for Active; 'I' for Inactive)
REMARK    1  A    between atoms: C_1  and  C_2
REMARK    2  A    between atoms: C_2  and  C_3
REMARK    3  A    between atoms: C_3  and  C_4
REMARK    4  A    between atoms: C_4  and  C_5
REMARK    5  A    between atoms: C_5  and  C_7
REMARK    6  A    between atoms: C_5  and  C_9
REMARK    7  A    between atoms: C_7  and  C_8
REMARK    8  A    between atoms: N_11  and  C_12
REMARK    9  A    between atoms: N_11  and  C_16
REMARK   10  A    between atoms: C_12  and  C_13
REMARK   11  A    between atoms: C_13  and  O_14
REMARK   12  A    between atoms: O_14  and  C_15
REMARK   13  A    between atoms: C_16  and  C_17
REMARK   14  A    between atoms: C_27  and  C_29
REMARK                            x       y       z     vdW  Elec       q    Type
REMARK                         _______ _______ _______ _____ _____    ______ ____
ROOT
ATOM      1  C   UNL     1       2.453   0.541   1.703  0.00  0.00    +0.234 C 
ATOM      2  O   UNL     1       3.272   1.174   2.335  0.00  0.00    -0.274 OA
ATOM      3  N   UNL     1       1.398   1.169   1.147  0.00  0.00    -0.289 N 
ATOM      4  C   UNL     1       0.400   0.412   0.378  0.00  0.00    +0.114 C 
ATOM      5  C   UNL     1      -0.943   0.490   1.121  0.00  0.00    +0.062 C 
ATOM      6  C   UNL     1      -1.147   1.892   1.594  0.00  0.00    -0.003 A 
ATOM      7  C   UNL     1      -0.221   2.883   1.699  0.00  0.00    -0.012 A 
ATOM      8  C   UNL     1      -0.671   4.113   2.177  0.00  0.00    +0.013 A 
ATOM      9  C   UNL     1      -1.973   4.275   2.506  0.00  0.00    +0.046 A 
ATOM     10  S   UNL     1      -2.645   2.657   2.157  0.00  0.00    -0.101 S 
ATOM     11  C   UNL     1       1.230   2.621   1.299  0.00  0.00    +0.139 C 
ENDROOT
BRANCH  11  12
ATOM     12  C   UNL     1       1.534   3.310  -0.006  0.00  0.00    -0.004 A 
ATOM     13  C   UNL     1       0.501   3.719  -0.828  0.00  0.00    +0.008 A 
ATOM     14  C   UNL     1       0.779   4.356  -2.023  0.00  0.00    +0.020 A 
ATOM     15  C   UNL     1       2.092   4.575  -2.401  0.00  0.00    +0.042 A 
ATOM     16  C   UNL     1       3.126   4.161  -1.582  0.00  0.00    +0.040 A 
ATOM     17  C   UNL     1       2.847   3.528  -0.383  0.00  0.00    +0.048 A 
ATOM     18 CL   UNL     1       4.144   3.007   0.646  0.00  0.00    -0.083 Cl
ATOM     19 CL   UNL     1       2.441   5.370  -3.905  0.00  0.00    -0.083 Cl
ENDBRANCH  11  12
BRANCH   1  20
ATOM     20  C   UNL     1       2.615  -0.948   1.539  0.00  0.00    +0.203 C 
BRANCH  20  23
ATOM     21  C   UNL     1       3.792  -1.663   3.549  0.00  0.00    +0.219 C 
ATOM     22  O   UNL     1       4.812  -1.950   4.138  0.00  0.00    -0.275 OA
ATOM     23  N   UNL     1       3.830  -1.386   2.231  0.00  0.00    -0.290 N 
BRANCH  21  24
ATOM     24  C   UNL     1       2.481  -1.617   4.291  0.00  0.00    +0.075 C 
BRANCH  24  25
ATOM     25  C   UNL     1       1.573  -2.743   3.794  0.00  0.00    +0.009 C 
ATOM     26  C   UNL     1       2.180  -4.094   4.177  0.00  0.00    +0.004 C 
ENDBRANCH  24  25
BRANCH  24  27
ATOM     27  C   UNL     1       2.737  -1.792   5.790  0.00  0.00    +0.013 C 
BRANCH  27  28
ATOM     28  C   UNL     1       1.425  -1.610   6.556  0.00  0.00    +0.000 C 
BRANCH  28  30
ATOM     29  C   UNL     1       0.390  -1.475   8.826  0.00  0.00    +0.004 C 
ATOM     30  C   UNL     1       1.702  -1.657   8.060  0.00  0.00    -0.003 C 
ENDBRANCH  28  30
ENDBRANCH  27  28
ENDBRANCH  24  27
ENDBRANCH  21  24
BRANCH  23  31
ATOM     31  C   UNL     1       5.086  -1.523   1.490  0.00  0.00    +0.136 C 
BRANCH  31  32
ATOM     32  C   UNL     1       5.891  -0.227   1.607  0.00  0.00    +0.178 C 
BRANCH  32  33
ATOM     33  O   UNL     1       6.261  -0.017   2.971  0.00  0.00    -0.381 OA
ATOM     34  C   UNL     1       7.020   1.173   3.192  0.00  0.00    +0.194 C 
ENDBRANCH  32  33
ENDBRANCH  31  32
ENDBRANCH  23  31
ENDBRANCH  20  23
ENDBRANCH   1  20
TORSDOF 11
