REMARK  Name = ZINC67291390
REMARK  10 active torsions:
REMARK  status: ('A' for Active; 'I' for Inactive)
REMARK    1  A    between atoms: C_1  and  C_2
REMARK    2  A    between atoms: C_6  and  N_8
REMARK    3  A    between atoms: N_8  and  C_9
REMARK    4  A    between atoms: C_10  and  C_12
REMARK    5  A    between atoms: C_12  and  S_13
REMARK    6  A    between atoms: S_13  and  C_14
REMARK    7  A    between atoms: N_23  and  C_25
REMARK    8  A    between atoms: C_25  and  C_26
REMARK    9  A    between atoms: C_31  and  O_32
REMARK   10  A    between atoms: O_32  and  C_33
REMARK                            x       y       z     vdW  Elec       q    Type
REMARK                         _______ _______ _______ _____ _____    ______ ____
ROOT
ATOM      1  C   UNL     1      -0.334  -7.412   4.943  0.00  0.00    +0.192 A 
ATOM      2  N   UNL     1      -0.332  -6.633   6.015  0.00  0.00    -0.183 NA
ATOM      3  C   UNL     1      -0.410  -7.157   7.231  0.00  0.00    +0.276 A 
ATOM      4  O   UNL     1      -0.408  -6.358   8.325  0.00  0.00    -0.266 OA
ATOM      5  C   UNL     1      -0.496  -8.544   7.367  0.00  0.00    +0.024 A 
ATOM      6  C   UNL     1      -0.497  -9.320   6.230  0.00  0.00    +0.049 A 
ATOM      7  N   UNL     1      -0.420  -8.730   5.044  0.00  0.00    -0.227 NA
ATOM      8  C   UNL     1      -0.594 -10.821   6.303  0.00  0.00    +0.037 C 
ATOM      9  C   UNL     1      -0.273 -11.289   7.724  0.00  0.00    -0.072 C 
ATOM     10  N   UNL     1      -1.093 -10.519   8.671  0.00  0.00    +0.386 N 
ATOM     11  C   UNL     1      -0.581  -9.146   8.742  0.00  0.00    -0.035 C 
ATOM     12  H   UNL     1      -2.051 -10.505   8.355  0.00  0.00    -0.081 HD
ENDROOT
BRANCH   1  13
ATOM     13  S   UNL     1      -0.226  -6.677   3.345  0.00  0.00    -0.077 S 
BRANCH  13  14
ATOM     14  C   UNL     1      -0.129  -4.898   3.686  0.00  0.00    +0.173 C 
BRANCH  14  17
ATOM     15  N   UNL     1       0.052  -2.797   2.393  0.00  0.00    -0.274 N 
ATOM     16  C   UNL     1       0.165  -2.077   3.663  0.00  0.00    +0.138 C 
ATOM     17  C   UNL     1      -0.031  -4.143   2.385  0.00  0.00    +0.230 C 
ATOM     18  O   UNL     1      -0.028  -4.745   1.333  0.00  0.00    -0.274 OA
BRANCH  15  24
ATOM     19  C   UNL     1      -2.233   0.322  -0.643  0.00  0.00    +0.044 C 
ATOM     20  C   UNL     1      -1.065  -0.570  -0.311  0.00  0.00    -0.049 A 
ATOM     21  C   UNL     1      -0.011  -0.688  -1.199  0.00  0.00    +0.003 A 
ATOM     22  C   UNL     1       1.063  -1.505  -0.898  0.00  0.00    +0.002 A 
ATOM     23  C   UNL     1       1.087  -2.205   0.292  0.00  0.00    +0.023 A 
ATOM     24  C   UNL     1       0.031  -2.089   1.186  0.00  0.00    +0.036 A 
ATOM     25  C   UNL     1      -1.044  -1.263   0.883  0.00  0.00    +0.027 A 
ENDBRANCH  15  24
ENDBRANCH  14  17
ENDBRANCH  13  14
ENDBRANCH   1  13
BRANCH  10  26
ATOM     26  C   UNL     1      -1.021 -11.140  10.001  0.00  0.00    -0.039 C 
BRANCH  26  27
ATOM     27  C   UNL     1      -1.956 -10.423  10.940  0.00  0.00    -0.022 A 
ATOM     28  C   UNL     1      -1.463  -9.479  11.820  0.00  0.00    +0.005 A 
ATOM     29  C   UNL     1      -2.321  -8.822  12.683  0.00  0.00    +0.000 A 
ATOM     30  C   UNL     1      -3.674  -9.108  12.668  0.00  0.00    +0.004 A 
ATOM     31  C   UNL     1      -4.172 -10.051  11.790  0.00  0.00    +0.046 A 
ATOM     32  C   UNL     1      -3.314 -10.708  10.919  0.00  0.00    +0.121 A 
BRANCH  32  33
ATOM     33  O   UNL     1      -3.802 -11.632  10.051  0.00  0.00    -0.495 OA
ATOM     34  C   UNL     1      -5.210 -11.874  10.085  0.00  0.00    +0.277 C 
ENDBRANCH  32  33
ENDBRANCH  26  27
ENDBRANCH  10  26
TORSDOF 7
