REMARK  Name = ZINC41803039
REMARK  7 active torsions:
REMARK  status: ('A' for Active; 'I' for Inactive)
REMARK    1  A    between atoms: C_1  and  C_2
REMARK    2  A    between atoms: C_2  and  C_4
REMARK    3  A    between atoms: C_2  and  N_9
REMARK    4  A    between atoms: N_9  and  C_10
REMARK    5  A    between atoms: C_10  and  C_11
REMARK    6  A    between atoms: C_10  and  C_12
REMARK    7  A    between atoms: C_10  and  C_19
REMARK                            x       y       z     vdW  Elec       q    Type
REMARK                         _______ _______ _______ _____ _____    ______ ____
ROOT
ATOM      1  C   UNL     1       1.953   0.039  -1.170  0.00  0.00    +0.059 C 
ATOM      2  C   UNL     1       0.996   0.914  -0.358  0.00  0.00    +0.007 C 
ENDROOT
BRANCH   1   3
ATOM      3  C   UNL     1       2.636   0.879  -2.218  0.00  0.00    -0.047 A 
ATOM      4  C   UNL     1       2.359   0.674  -3.557  0.00  0.00    +0.003 A 
ATOM      5  C   UNL     1       2.984   1.444  -4.519  0.00  0.00    +0.001 A 
ATOM      6  C   UNL     1       3.888   2.421  -4.143  0.00  0.00    +0.015 A 
ATOM      7  C   UNL     1       4.165   2.627  -2.803  0.00  0.00    +0.018 A 
ATOM      8  C   UNL     1       3.535   1.859  -1.841  0.00  0.00    +0.018 A 
ATOM      9 BR   UNL     1       5.402   3.962  -2.288  0.00  0.00    -0.050 Br
ENDBRANCH   1   3
BRANCH   1  10
ATOM     10  N   UNL     1       1.198  -1.039  -1.822  0.00  0.00    +0.399 N 
ATOM     11  H   UNL     1       0.516  -0.640  -2.450  0.00  0.00    -0.083 HD
ATOM     12  H   UNL     1       0.726  -1.591  -1.121  0.00  0.00    -0.083 HD
BRANCH  10  14
ATOM     13  C   UNL     1       2.492  -3.116  -1.737  0.00  0.00    -0.006 C 
ATOM     14  C   UNL     1       2.120  -1.895  -2.580  0.00  0.00    -0.005 C 
BRANCH  14  15
ATOM     15  C   UNL     1       1.454  -2.347  -3.854  0.00  0.00    +0.091 A 
ATOM     16  C   UNL     1       2.046  -2.452  -5.057  0.00  0.00    +0.043 A 
ATOM     17  C   UNL     1       1.060  -2.909  -5.961  0.00  0.00    +0.041 A 
ATOM     18  C   UNL     1      -0.076  -3.056  -5.256  0.00  0.00    +0.195 A 
ATOM     19  O   UNL     1       0.170  -2.720  -3.979  0.00  0.00    -0.469 OA
ENDBRANCH  14  15
ENDBRANCH  10  14
ENDBRANCH   1  10
BRANCH   1  20
ATOM     20  C   UNL     1       2.989  -0.558  -0.252  0.00  0.00    +0.349 C 
ATOM     21  O   UNL     1       2.678  -1.450   0.520  0.00  0.00    -0.248 OA
ATOM     22  O   UNL     1       4.137  -0.149  -0.281  0.00  0.00    -0.248 OA
ENDBRANCH   1  20
TORSDOF 5
