REMARK  Name = ZINC41108513
REMARK  7 active torsions:
REMARK  status: ('A' for Active; 'I' for Inactive)
REMARK    1  A    between atoms: C_1  and  C_2
REMARK    2  A    between atoms: C_2  and  O_3
REMARK    3  A    between atoms: O_3  and  C_4
REMARK    4  A    between atoms: C_7  and  N_10
REMARK    5  A    between atoms: C_14  and  C_15
REMARK    6  A    between atoms: C_25  and  C_27
REMARK    7  A    between atoms: C_27  and  C_28
REMARK                            x       y       z     vdW  Elec       q    Type
REMARK                         _______ _______ _______ _____ _____    ______ ____
ROOT
ATOM      1  C   UNL     1      -3.421  -6.074   1.943  0.00  0.00    +0.042 C 
ATOM      2  C   UNL     1      -3.476  -4.695   2.062  0.00  0.00    +0.082 C 
ATOM      3  C   UNL     1      -4.111  -4.034   3.234  0.00  0.00    +0.153 C 
ATOM      4  N   UNL     1      -4.093  -4.540   4.440  0.00  0.00    -0.283 NA
ATOM      5  N   UNL     1      -4.733  -2.808   2.918  0.00  0.00    -0.152 N 
ATOM      6  C   UNL     1      -4.293  -2.142   1.794  0.00  0.00    +0.181 C 
ATOM      7  N   UNL     1      -3.417  -2.557   0.914  0.00  0.00    -0.152 NA
ATOM      8  C   UNL     1      -2.902  -3.800   1.031  0.00  0.00    +0.273 C 
ATOM      9  O   UNL     1      -1.994  -4.177   0.307  0.00  0.00    -0.268 OA
ATOM     10  S   UNL     1      -5.228  -0.637   1.863  0.00  0.00    -0.038 S 
ATOM     11  C   UNL     1      -6.203  -1.034   3.308  0.00  0.00    +0.104 C 
ATOM     12  N   UNL     1      -5.740  -2.205   3.640  0.00  0.00    -0.169 NA
ATOM     13  H   UNL     1      -4.522  -4.068   5.171  0.00  0.00    +0.188 HD
ENDROOT
BRANCH   1  18
ATOM     14  N   UNL     1      -3.356  -6.360  -0.527  0.00  0.00    -0.316 N 
ATOM     15  C   UNL     1      -2.656  -7.132  -1.397  0.00  0.00    +0.092 A 
ATOM     16  C   UNL     1      -1.805  -7.926  -0.697  0.00  0.00    +0.020 A 
ATOM     17  C   UNL     1      -1.972  -7.647   0.659  0.00  0.00    +0.027 A 
ATOM     18  C   UNL     1      -2.943  -6.659   0.756  0.00  0.00    +0.047 A 
BRANCH  14  22
ATOM     19  C   UNL     1      -6.255  -3.545  -1.561  0.00  0.00    +0.121 A 
ATOM     20  C   UNL     1      -5.008  -3.513  -2.170  0.00  0.00    +0.047 A 
ATOM     21  C   UNL     1      -4.048  -4.445  -1.828  0.00  0.00    +0.030 A 
ATOM     22  C   UNL     1      -4.330  -5.414  -0.874  0.00  0.00    +0.047 A 
ATOM     23  C   UNL     1      -5.577  -5.445  -0.265  0.00  0.00    +0.030 A 
ATOM     24  C   UNL     1      -6.535  -4.510  -0.603  0.00  0.00    +0.047 A 
BRANCH  19  25
ATOM     25  O   UNL     1      -7.200  -2.628  -1.898  0.00  0.00    -0.492 OA
BRANCH  25  27
ATOM     26  C   UNL     1      -8.025  -0.723  -3.136  0.00  0.00    +0.048 C 
ATOM     27  C   UNL     1      -6.843  -1.664  -2.891  0.00  0.00    +0.225 C 
ENDBRANCH  25  27
ENDBRANCH  19  25
ENDBRANCH  14  22
ENDBRANCH   1  18
BRANCH  11  28
ATOM     28  C   UNL     1      -7.285  -0.221   3.971  0.00  0.00    +0.099 C 
BRANCH  28  29
ATOM     29  C   UNL     1      -7.819  -0.972   5.163  0.00  0.00    -0.041 A 
ATOM     30  C   UNL     1      -8.880  -1.845   5.011  0.00  0.00    +0.004 A 
ATOM     31  C   UNL     1      -9.370  -2.534   6.105  0.00  0.00    +0.000 A 
ATOM     32  C   UNL     1      -8.797  -2.352   7.350  0.00  0.00    +0.000 A 
ATOM     33  C   UNL     1      -7.735  -1.480   7.501  0.00  0.00    +0.000 A 
ATOM     34  C   UNL     1      -7.243  -0.794   6.407  0.00  0.00    +0.004 A 
ENDBRANCH  28  29
ENDBRANCH  11  28
TORSDOF 6
