REMARK  Name = ZINC39923275
REMARK  4 active torsions:
REMARK  status: ('A' for Active; 'I' for Inactive)
REMARK    1  A    between atoms: C_3  and  C_7
REMARK    2  A    between atoms: N_8  and  N_9
REMARK    3  A    between atoms: C_10  and  C_12
REMARK    4  A    between atoms: C_15  and  C_18
REMARK                            x       y       z     vdW  Elec       q    Type
REMARK                         _______ _______ _______ _____ _____    ______ ____
ROOT
ATOM      1  C   UNL     1       5.800  -2.282   0.236  0.00  0.00    +0.240 C 
ATOM      2  C   UNL     1       5.825  -2.813  -1.186  0.00  0.00    +0.041 C 
ATOM      3  C   UNL     1       6.952  -3.549  -1.236  0.00  0.00    +0.092 C 
ATOM      4  N   UNL     1       7.590  -3.521  -0.037  0.00  0.00    -0.153 NA
ATOM      5  N   UNL     1       7.022  -2.848   0.831  0.00  0.00    -0.170 NA
ENDROOT
BRANCH   3   6
ATOM      6  C   UNL     1       7.429  -4.287  -2.432  0.00  0.00    +0.005 A 
ATOM      7  C   UNL     1       6.698  -4.244  -3.618  0.00  0.00    +0.030 A 
ATOM      8  C   UNL     1       7.146  -4.932  -4.728  0.00  0.00    +0.043 A 
ATOM      9  C   UNL     1       8.320  -5.663  -4.665  0.00  0.00    +0.040 A 
ATOM     10  C   UNL     1       9.050  -5.709  -3.490  0.00  0.00    +0.043 A 
ATOM     11  C   UNL     1       8.613  -5.020  -2.375  0.00  0.00    +0.030 A 
ATOM     12 CL   UNL     1      10.520  -6.629  -3.418  0.00  0.00    -0.083 Cl
ATOM     13 CL   UNL     1       6.236  -4.880  -6.206  0.00  0.00    -0.083 Cl
ENDBRANCH   3   6
BRANCH   1  15
ATOM     14  N   UNL     1       4.726  -0.061   0.055  0.00  0.00    -0.205 N 
ATOM     15  C   UNL     1       5.853  -0.776   0.243  0.00  0.00    +0.263 C 
ATOM     16  O   UNL     1       6.910  -0.207   0.418  0.00  0.00    -0.271 OA
ATOM     17  H   UNL     1       3.880  -0.516  -0.085  0.00  0.00    +0.177 HD
BRANCH  14  19
ATOM     18  C   UNL     1       3.676   2.027   0.007  0.00  0.00    +0.139 C 
ATOM     19  N   UNL     1       4.775   1.339   0.061  0.00  0.00    -0.188 NA
BRANCH  18  22
ATOM     20  C   UNL     1       1.209  -0.238   1.695  0.00  0.00    +0.020 A 
ATOM     21  C   UNL     1       2.421   0.273   1.267  0.00  0.00    +0.012 A 
ATOM     22  C   UNL     1       2.413   1.438   0.490  0.00  0.00    +0.013 A 
ATOM     23  C   UNL     1       1.187   2.034   0.182  0.00  0.00    +0.120 A 
ATOM     24  N   UNL     1       0.060   1.508   0.614  0.00  0.00    -0.263 NA
ATOM     25  C   UNL     1       0.038   0.412   1.347  0.00  0.00    +0.111 A 
ENDBRANCH  18  22
ENDBRANCH  14  19
ENDBRANCH   1  15
TORSDOF 4
