REMARK  Name = ZINC04745847
REMARK  3 active torsions:
REMARK  status: ('A' for Active; 'I' for Inactive)
REMARK    1  A    between atoms: C_1  and  N_2
REMARK    2  A    between atoms: C_5  and  C_7
REMARK    3  A    between atoms: N_14  and  C_15
REMARK                            x       y       z     vdW  Elec       q    Type
REMARK                         _______ _______ _______ _____ _____    ______ ____
ROOT
ATOM      1  C   UNL     1      -2.565   1.533   0.020  0.00  0.00    +0.029 C 
ATOM      2  C   UNL     1      -1.281   1.979   0.015  0.00  0.00    +0.079 C 
ATOM      3  C   UNL     1      -0.014   1.217  -0.008  0.00  0.00    +0.276 C 
ATOM      4  O   UNL     1       0.003  -0.004  -0.026  0.00  0.00    -0.267 OA
ATOM      5  N   UNL     1       1.094   1.925  -0.013  0.00  0.00    -0.154 NA
ATOM      6  C   UNL     1       1.090   3.248   0.006  0.00  0.00    +0.156 C 
ATOM      7  S   UNL     1      -0.650   3.652   0.036  0.00  0.00    -0.051 S 
ATOM      8  N   UNL     1       2.163   4.104   0.002  0.00  0.00    -0.296 N 
ATOM      9  H   UNL     1       2.020   5.061  -0.063  0.00  0.00    +0.154 HD
ENDROOT
BRANCH   8  10
ATOM     10  C   UNL     1       3.462   3.596   0.093  0.00  0.00    +0.035 A 
ATOM     11  C   UNL     1       3.687   2.365   0.696  0.00  0.00    +0.043 A 
ATOM     12  C   UNL     1       4.973   1.863   0.780  0.00  0.00    +0.044 A 
ATOM     13  C   UNL     1       6.035   2.590   0.273  0.00  0.00    +0.040 A 
ATOM     14  C   UNL     1       5.814   3.819  -0.324  0.00  0.00    +0.044 A 
ATOM     15  C   UNL     1       4.531   4.323  -0.415  0.00  0.00    +0.043 A 
ATOM     16 CL   UNL     1       7.150   4.728  -0.958  0.00  0.00    -0.083 Cl
ATOM     17 CL   UNL     1       5.254   0.322   1.529  0.00  0.00    -0.083 Cl
ENDBRANCH   8  10
BRANCH   1  22
ATOM     18  C   UNL     1      -7.164   3.484   0.090  0.00  0.00    +0.148 C 
ATOM     19  N   UNL     1      -5.704   3.367   0.076  0.00  0.00    -0.356 N 
ATOM     20  C   UNL     1      -4.838   4.421   0.084  0.00  0.00    +0.086 A 
ATOM     21  C   UNL     1      -3.577   3.956   0.066  0.00  0.00    +0.027 A 
ATOM     22  C   UNL     1      -3.674   2.491   0.045  0.00  0.00    -0.006 A 
ATOM     23  C   UNL     1      -5.025   2.202   0.048  0.00  0.00    +0.093 A 
ENDBRANCH   1  22
TORSDOF 2
