REMARK  Name = ZINC13567376
REMARK  8 active torsions:
REMARK  status: ('A' for Active; 'I' for Inactive)
REMARK    1  A    between atoms: C_1  and  O_2
REMARK    2  A    between atoms: O_2  and  C_3
REMARK    3  A    between atoms: C_6  and  C_11
REMARK    4  A    between atoms: C_8  and  O_9
REMARK    5  A    between atoms: O_9  and  C_10
REMARK    6  A    between atoms: C_22  and  S_24
REMARK    7  A    between atoms: S_24  and  C_25
REMARK    8  A    between atoms: C_25  and  C_26
REMARK                            x       y       z     vdW  Elec       q    Type
REMARK                         _______ _______ _______ _____ _____    ______ ____
ROOT
ATOM      1  C   UNL     1       2.507  -2.501  -4.386  0.00  0.00    +0.067 C 
ATOM      2  C   UNL     1       1.802  -2.085  -5.679  0.00  0.00    +0.109 C 
ATOM      3  C   UNL     1       2.127  -0.651  -6.002  0.00  0.00    +0.219 C 
ATOM      4  O   UNL     1       1.284   0.051  -6.518  0.00  0.00    -0.275 OA
ATOM      5  N   UNL     1       3.340  -0.138  -5.726  0.00  0.00    -0.270 N 
ATOM      6  C   UNL     1       4.312  -0.916  -5.111  0.00  0.00    +0.137 A 
ATOM      7  C   UNL     1       3.950  -2.080  -4.445  0.00  0.00    +0.067 A 
ATOM      8  C   UNL     1       4.941  -2.840  -3.838  0.00  0.00    +0.280 A 
ATOM      9  O   UNL     1       4.627  -3.981  -3.177  0.00  0.00    -0.265 OA
ATOM     10  N   UNL     1       6.203  -2.428  -3.917  0.00  0.00    -0.183 NA
ATOM     11  C   UNL     1       6.515  -1.313  -4.562  0.00  0.00    +0.194 A 
ATOM     12  N   UNL     1       5.593  -0.564  -5.150  0.00  0.00    -0.206 NA
ATOM     13  H   UNL     1       3.538   0.783  -5.959  0.00  0.00    +0.156 HD
ENDROOT
BRANCH   1  17
ATOM     14  C   UNL     1       0.606  -0.608  -1.056  0.00  0.00    +0.162 A 
ATOM     15  C   UNL     1       1.173   0.159  -2.062  0.00  0.00    +0.050 A 
ATOM     16  C   UNL     1       1.787  -0.456  -3.137  0.00  0.00    +0.008 A 
ATOM     17  C   UNL     1       1.837  -1.836  -3.212  0.00  0.00    -0.036 A 
ATOM     18  C   UNL     1       1.273  -2.606  -2.212  0.00  0.00    +0.053 A 
ATOM     19  C   UNL     1       0.662  -1.996  -1.129  0.00  0.00    +0.162 A 
BRANCH  14  21
ATOM     20  C   UNL     1      -0.017   1.425   0.010  0.00  0.00    +0.277 C 
ATOM     21  O   UNL     1       0.002  -0.004   0.002  0.00  0.00    -0.491 OA
ENDBRANCH  14  21
BRANCH  19  22
ATOM     22  O   UNL     1       0.112  -2.753  -0.142  0.00  0.00    -0.491 OA
ATOM     23  C   UNL     1       0.206  -4.171  -0.283  0.00  0.00    +0.277 C 
ENDBRANCH  19  22
ENDBRANCH   1  17
BRANCH  11  24
ATOM     24  S   UNL     1       8.202  -0.811  -4.638  0.00  0.00    -0.081 S 
BRANCH  24  25
ATOM     25  C   UNL     1       9.086  -2.102  -3.719  0.00  0.00    +0.112 C 
BRANCH  25  26
ATOM     26  C   UNL     1      10.560  -1.790  -3.707  0.00  0.00    -0.034 A 
ATOM     27  C   UNL     1      11.375  -2.267  -4.717  0.00  0.00    +0.004 A 
ATOM     28  C   UNL     1      12.728  -1.981  -4.707  0.00  0.00    +0.003 A 
ATOM     29  C   UNL     1      13.267  -1.219  -3.688  0.00  0.00    +0.038 A 
ATOM     30  C   UNL     1      12.451  -0.742  -2.676  0.00  0.00    +0.124 A 
ATOM     31  C   UNL     1      11.095  -1.023  -2.690  0.00  0.00    +0.042 A 
ATOM     32  F   UNL     1      12.977   0.003  -1.679  0.00  0.00    -0.205 F 
ENDBRANCH  25  26
ENDBRANCH  24  25
ENDBRANCH  11  24
TORSDOF 6
