REMARK  Name = ZINC39016683
REMARK  10 active torsions:
REMARK  status: ('A' for Active; 'I' for Inactive)
REMARK    1  A    between atoms: C_1  and  C_2
REMARK    2  A    between atoms: C_6  and  C_29
REMARK    3  A    between atoms: C_7  and  N_8
REMARK    4  A    between atoms: C_9  and  C_11
REMARK    5  A    between atoms: C_11  and  S_12
REMARK    6  A    between atoms: S_12  and  C_13
REMARK    7  A    between atoms: C_16  and  C_20
REMARK    8  A    between atoms: N_18  and  N_19
REMARK    9  A    between atoms: C_29  and  C_30
REMARK   10  A    between atoms: C_29  and  C_31
REMARK                            x       y       z     vdW  Elec       q    Type
REMARK                         _______ _______ _______ _____ _____    ______ ____
ROOT
ATOM      1  C   UNL     1      -0.375   4.687   4.879  0.00  0.00    +0.189 C 
ATOM      2  N   UNL     1       0.208   4.146   5.895  0.00  0.00    -0.161 NA
ATOM      3  N   UNL     1       0.317   5.045   6.963  0.00  0.00    -0.243 N 
ATOM      4  C   UNL     1      -0.295   6.304   6.503  0.00  0.00    +0.222 C 
ATOM      5  N   UNL     1      -0.726   6.006   5.127  0.00  0.00    -0.223 N 
ATOM      6  H   UNL     1       0.715   4.874   7.831  0.00  0.00    +0.170 HD
ENDROOT
BRANCH   4   7
ATOM      7  C   UNL     1      -1.494   6.670   7.381  0.00  0.00    +0.197 C 
ATOM      8  C   UNL     1      -1.053   6.943   8.805  0.00  0.00    -0.017 C 
ATOM      9  C   UNL     1      -1.385   8.214   9.025  0.00  0.00    +0.065 C 
ATOM     10  C   UNL     1      -0.989   8.612  10.435  0.00  0.00    +0.057 C 
ATOM     11  C   UNL     1      -0.759   7.280  11.181  0.00  0.00    +0.011 C 
ATOM     12  C   UNL     1      -0.403   6.327  10.016  0.00  0.00    +0.035 C 
ATOM     13  N   UNL     1      -1.971   8.739   7.915  0.00  0.00    -0.158 NA
ATOM     14  N   UNL     1      -2.073   7.958   6.963  0.00  0.00    -0.176 NA
ENDBRANCH   4   7
BRANCH   5  15
ATOM     15  N   UNL     1      -1.349   6.861   4.263  0.00  0.00    -0.250 NA
ATOM     16  H   UNL     1      -1.539   6.410   3.381  0.00  0.00    +0.141 HD
ATOM     17  H   UNL     1      -2.196   7.232   4.670  0.00  0.00    +0.141 HD
ENDBRANCH   5  15
BRANCH   1  18
ATOM     18  S   UNL     1      -0.683   3.853   3.358  0.00  0.00    -0.078 S 
BRANCH  18  19
ATOM     19  C   UNL     1      -0.016   2.188   3.628  0.00  0.00    +0.173 C 
BRANCH  19  21
ATOM     20  N   UNL     1       0.203   0.079   2.354  0.00  0.00    -0.284 N 
ATOM     21  C   UNL     1      -0.217   1.359   2.386  0.00  0.00    +0.227 C 
ATOM     22  O   UNL     1      -0.758   1.843   1.414  0.00  0.00    -0.275 OA
ATOM     23  H   UNL     1       0.566  -0.332   3.155  0.00  0.00    +0.155 HD
BRANCH  20  30
ATOM     24  C   UNL     1      -2.383  -0.569   1.361  0.00  0.00    +0.045 C 
ATOM     25  C   UNL     1      -1.126  -0.995   0.648  0.00  0.00    -0.029 A 
ATOM     26  C   UNL     1      -1.208  -1.717  -0.527  0.00  0.00    +0.005 A 
ATOM     27  C   UNL     1      -0.055  -2.108  -1.182  0.00  0.00    +0.001 A 
ATOM     28  C   UNL     1       1.184  -1.778  -0.664  0.00  0.00    +0.006 A 
ATOM     29  C   UNL     1       1.273  -1.056   0.510  0.00  0.00    -0.023 A 
ATOM     30  C   UNL     1       0.117  -0.657   1.168  0.00  0.00    +0.040 A 
BRANCH  29  31
ATOM     31  C   UNL     1       2.624  -0.697   1.074  0.00  0.00    +0.015 C 
ATOM     32  C   UNL     1       3.411  -1.976   1.367  0.00  0.00    +0.012 C 
ATOM     33  C   UNL     1       3.391   0.153   0.059  0.00  0.00    +0.012 C 
ENDBRANCH  29  31
ENDBRANCH  20  30
ENDBRANCH  19  21
ENDBRANCH  18  19
ENDBRANCH   1  18
TORSDOF 7
