REMARK  Name = ZINC20836252
REMARK  3 active torsions:
REMARK  status: ('A' for Active; 'I' for Inactive)
REMARK    1  A    between atoms: C_4  and  N_7
REMARK    2  A    between atoms: C_16  and  C_18
REMARK    3  A    between atoms: C_23  and  C_26
REMARK                            x       y       z     vdW  Elec       q    Type
REMARK                         _______ _______ _______ _____ _____    ______ ____
ROOT
ATOM      1  N   UNL     1      -2.496  11.998   0.080  0.00  0.00    -0.196 N 
ATOM      2  C   UNL     1      -2.019  13.215   0.409  0.00  0.00    +0.280 A 
ATOM      3  O   UNL     1      -2.776  14.121   0.708  0.00  0.00    -0.265 OA
ATOM      4  C   UNL     1      -0.565  13.424   0.399  0.00  0.00    +0.051 A 
ATOM      5  C   UNL     1       0.026  14.641   0.722  0.00  0.00    +0.014 A 
ATOM      6  C   UNL     1       1.400  14.755   0.687  0.00  0.00    +0.001 A 
ATOM      7  C   UNL     1       2.194  13.672   0.335  0.00  0.00    +0.001 A 
ATOM      8  C   UNL     1       1.627  12.457   0.012  0.00  0.00    +0.011 A 
ATOM      9  C   UNL     1       0.244  12.320   0.040  0.00  0.00    +0.020 A 
ATOM     10  C   UNL     1      -0.440  11.059  -0.291  0.00  0.00    +0.154 A 
ATOM     11  N   UNL     1      -1.750  11.011  -0.247  0.00  0.00    -0.158 NA
ENDROOT
BRANCH  10  12
ATOM     12  C   UNL     1       0.339   9.866  -0.674  0.00  0.00    +0.270 C 
ATOM     13  O   UNL     1       1.553   9.920  -0.718  0.00  0.00    -0.268 OA
ATOM     14  N   UNL     1      -0.295   8.716  -0.976  0.00  0.00    -0.259 N 
ATOM     15  C   UNL     1       0.437   7.593  -1.336  0.00  0.00    +0.165 A 
ATOM     16  N   UNL     1       0.010   6.389  -1.669  0.00  0.00    -0.224 NA
ATOM     17  C   UNL     1       0.859   5.421  -1.985  0.00  0.00    +0.087 A 
ATOM     18  C   UNL     1       2.203   5.679  -1.975  0.00  0.00    +0.077 A 
ATOM     19  S   UNL     1       2.208   7.397  -1.479  0.00  0.00    -0.060 S 
ATOM     20  H   UNL     1      -1.394   8.667  -0.937  0.00  0.00    +0.157 HD
BRANCH  17  21
ATOM     21  C   UNL     1       0.358   4.078  -2.349  0.00  0.00    +0.038 A 
ATOM     22  C   UNL     1      -0.933   3.628  -2.417  0.00  0.00    +0.017 A 
ATOM     23  C   UNL     1      -1.159   2.320  -2.790  0.00  0.00    +0.008 A 
ATOM     24  C   UNL     1      -0.100   1.519  -3.068  0.00  0.00    +0.046 A 
ATOM     25  S   UNL     1       1.280   2.622  -2.816  0.00  0.00    -0.095 S 
ENDBRANCH  17  21
ENDBRANCH  10  12
BRANCH   1  29
ATOM     26  C   UNL     1      -6.622  11.422   0.115  0.00  0.00    +0.000 A 
ATOM     27  C   UNL     1      -5.879  11.021  -0.980  0.00  0.00    +0.002 A 
ATOM     28  C   UNL     1      -4.511  11.210  -0.995  0.00  0.00    +0.028 A 
ATOM     29  C   UNL     1      -3.882  11.804   0.092  0.00  0.00    +0.069 A 
ATOM     30  C   UNL     1      -4.631  12.201   1.192  0.00  0.00    +0.028 A 
ATOM     31  C   UNL     1      -5.999  12.015   1.198  0.00  0.00    +0.002 A 
ENDBRANCH   1  29
TORSDOF 3
