REMARK  Name = ZINC37943794
REMARK  6 active torsions:
REMARK  status: ('A' for Active; 'I' for Inactive)
REMARK    1  A    between atoms: C_1  and  C_2
REMARK    2  A    between atoms: C_6  and  C_20
REMARK    3  A    between atoms: C_8  and  C_10
REMARK    4  A    between atoms: C_8  and  N_13
REMARK    5  A    between atoms: C_20  and  C_21
REMARK    6  A    between atoms: C_20  and  C_22
REMARK                            x       y       z     vdW  Elec       q    Type
REMARK                         _______ _______ _______ _____ _____    ______ ____
ROOT
ATOM      1  C   UNL     1      -0.538   0.833  -2.123  0.00  0.00    +0.007 C 
ATOM      2  C   UNL     1      -0.229  -0.548  -1.541  0.00  0.00    -0.015 C 
ATOM      3  C   UNL     1       0.717  -1.298  -2.482  0.00  0.00    +0.003 C 
ATOM      4  C   UNL     1       1.026  -2.679  -1.899  0.00  0.00    +0.003 C 
ATOM      5  C   UNL     1       1.690  -2.518  -0.530  0.00  0.00    -0.010 C 
ATOM      6  C   UNL     1       0.745  -1.768   0.410  0.00  0.00    +0.016 C 
ATOM      7  C   UNL     1       0.436  -0.387  -0.172  0.00  0.00    +0.001 C 
ENDROOT
BRANCH   6   8
ATOM      8  N   UNL     1       1.383  -1.613   1.724  0.00  0.00    +0.390 N 
ATOM      9  C   UNL     1       2.679  -1.119   1.540  0.00  0.00    -0.076 C 
ATOM     10  C   UNL     1       3.441  -0.998   2.877  0.00  0.00    -0.003 C 
ATOM     11  C   UNL     1       2.955   0.225   3.610  0.00  0.00    +0.079 C 
ATOM     12  N   UNL     1       1.850  -0.073   4.551  0.00  0.00    -0.318 NA
ATOM     13  C   UNL     1       0.850  -1.019   4.009  0.00  0.00    +0.062 C 
ATOM     14  C   UNL     1       0.540  -0.735   2.561  0.00  0.00    -0.062 C 
ATOM     15  H   UNL     1       2.208  -0.394   5.438  0.00  0.00    +0.122 HD
ATOM     16  H   UNL     1       1.443  -2.519   2.164  0.00  0.00    -0.080 HD
ENDBRANCH   6   8
BRANCH   6  17
ATOM     17  C   UNL     1      -0.535  -2.547   0.562  0.00  0.00    +0.200 C 
ATOM     18  O   UNL     1      -1.251  -2.732  -0.400  0.00  0.00    -0.278 OA
ATOM     19  N   UNL     1      -0.886  -3.039   1.767  0.00  0.00    -0.330 N 
ATOM     20  H   UNL     1      -0.295  -2.925   2.528  0.00  0.00    +0.145 HD
ATOM     21  H   UNL     1      -1.729  -3.507   1.873  0.00  0.00    +0.145 HD
ENDBRANCH   6  17
BRANCH   5  22
ATOM     22  C   UNL     1       2.000  -3.898   0.052  0.00  0.00    -0.015 C 
ATOM     23  C   UNL     1       0.738  -4.763   0.013  0.00  0.00    +0.007 C 
ATOM     24  C   UNL     1       3.101  -4.566  -0.775  0.00  0.00    +0.007 C 
ENDBRANCH   5  22
TORSDOF 3
