REMARK  Name = ZINC13770638
REMARK  7 active torsions:
REMARK  status: ('A' for Active; 'I' for Inactive)
REMARK    1  A    between atoms: C_1  and  C_2
REMARK    2  A    between atoms: C_7  and  N_8
REMARK    3  A    between atoms: C_9  and  C_11
REMARK    4  A    between atoms: C_11  and  S_12
REMARK    5  A    between atoms: S_12  and  C_13
REMARK    6  A    between atoms: N_24  and  C_27
REMARK    7  A    between atoms: N_30  and  C_31
REMARK                            x       y       z     vdW  Elec       q    Type
REMARK                         _______ _______ _______ _____ _____    ______ ____
ROOT
ATOM      1  C   UNL     1      -2.328   5.853   0.040  0.00  0.00    +0.198 A 
ATOM      2  N   UNL     1      -2.260   7.161   0.016  0.00  0.00    -0.120 NA
ATOM      3  N   UNL     1      -0.908   7.525  -0.011  0.00  0.00    -0.109 NA
ATOM      4  C   UNL     1      -0.190   6.426  -0.002  0.00  0.00    +0.245 A 
ATOM      5  N   UNL     1      -1.050   5.359   0.030  0.00  0.00    -0.249 N 
ATOM      6  C   UNL     1      -0.558   4.074   0.044  0.00  0.00    +0.102 A 
ATOM      7  C   UNL     1       0.808   3.807   0.027  0.00  0.00    +0.075 A 
ATOM      8  C   UNL     1       1.177   2.392   0.045  0.00  0.00    -0.020 A 
ATOM      9  C   UNL     1       0.153   1.513   0.074  0.00  0.00    +0.010 A 
ATOM     10  S   UNL     1      -1.303   2.518   0.075  0.00  0.00    -0.073 S 
ATOM     11  C   UNL     1       0.261   0.020   0.095  0.00  0.00    +0.126 C 
ATOM     12  N   UNL     1       1.639  -0.346  -0.284  0.00  0.00    -0.300 NA
ATOM     13  C   UNL     1       2.616   0.430   0.493  0.00  0.00    +0.089 C 
ATOM     14  C   UNL     1       2.616   1.890   0.032  0.00  0.00    +0.052 C 
ATOM     15  C   UNL     1       1.865  -1.788  -0.123  0.00  0.00    +0.105 C 
ATOM     16  C   UNL     1       1.705   4.984  -0.005  0.00  0.00    +0.268 A 
ATOM     17  O   UNL     1       2.913   4.832  -0.020  0.00  0.00    -0.266 OA
ATOM     18  N   UNL     1       1.181   6.221  -0.018  0.00  0.00    -0.245 N 
ENDROOT
BRANCH  18  19
ATOM     19  C   UNL     1       2.038   7.327  -0.050  0.00  0.00    +0.053 A 
ATOM     20  C   UNL     1       2.055   8.164  -1.158  0.00  0.00    +0.026 A 
ATOM     21  C   UNL     1       2.898   9.257  -1.184  0.00  0.00    +0.002 A 
ATOM     22  C   UNL     1       3.733   9.513  -0.112  0.00  0.00    +0.000 A 
ATOM     23  C   UNL     1       3.722   8.680   0.992  0.00  0.00    +0.002 A 
ATOM     24  C   UNL     1       2.877   7.588   1.026  0.00  0.00    +0.026 A 
ENDBRANCH  18  19
BRANCH   1  25
ATOM     25  S   UNL     1      -3.807   4.895   0.079  0.00  0.00    -0.076 S 
BRANCH  25  26
ATOM     26  C   UNL     1      -5.132   6.133   0.077  0.00  0.00    +0.173 C 
BRANCH  26  28
ATOM     27  N   UNL     1      -7.605   6.163   0.114  0.00  0.00    -0.285 N 
ATOM     28  C   UNL     1      -6.469   5.439   0.109  0.00  0.00    +0.227 C 
ATOM     29  O   UNL     1      -6.523   4.227   0.131  0.00  0.00    -0.275 OA
ATOM     30  H   UNL     1      -7.559   7.259   0.029  0.00  0.00    +0.155 HD
BRANCH  27  37
ATOM     31  C   UNL     1      -9.788   7.637   1.191  0.00  0.00    +0.045 C 
ATOM     32  C   UNL     1      -9.935   6.204   0.748  0.00  0.00    -0.029 A 
ATOM     33  C   UNL     1     -11.157   5.569   0.858  0.00  0.00    +0.005 A 
ATOM     34  C   UNL     1     -11.293   4.254   0.451  0.00  0.00    +0.000 A 
ATOM     35  C   UNL     1     -10.208   3.572  -0.068  0.00  0.00    +0.002 A 
ATOM     36  C   UNL     1      -8.985   4.204  -0.186  0.00  0.00    +0.023 A 
ATOM     37  C   UNL     1      -8.844   5.522   0.227  0.00  0.00    +0.036 A 
ENDBRANCH  27  37
ENDBRANCH  26  28
ENDBRANCH  25  26
ENDBRANCH   1  25
TORSDOF 5
