REMARK  Name = ZINC08743064
REMARK  9 active torsions:
REMARK  status: ('A' for Active; 'I' for Inactive)
REMARK    1  A    between atoms: C_1  and  C_2
REMARK    2  A    between atoms: C_2  and  C_4
REMARK    3  A    between atoms: C_2  and  S_15
REMARK    4  A    between atoms: N_6  and  C_7
REMARK    5  A    between atoms: C_10  and  O_13
REMARK    6  A    between atoms: O_13  and  C_14
REMARK    7  A    between atoms: S_15  and  C_16
REMARK    8  A    between atoms: C_27  and  C_30
REMARK    9  A    between atoms: C_27  and  C_31
REMARK                            x       y       z     vdW  Elec       q    Type
REMARK                         _______ _______ _______ _____ _____    ______ ____
ROOT
ATOM      1  C   UNL     1       3.683  -6.503  -1.139  0.00  0.00    +0.115 A 
ATOM      2  C   UNL     1       4.646  -7.351  -1.669  0.00  0.00    +0.072 A 
ATOM      3  C   UNL     1       4.403  -8.724  -1.797  0.00  0.00    +0.092 A 
ATOM      4  C   UNL     1       5.504  -9.523  -2.368  0.00  0.00    +0.034 A 
ATOM      5  C   UNL     1       5.523 -10.911  -2.624  0.00  0.00    +0.020 A 
ATOM      6  C   UNL     1       6.653 -11.483  -3.174  0.00  0.00    +0.000 A 
ATOM      7  C   UNL     1       7.747 -10.695  -3.483  0.00  0.00    +0.051 A 
ATOM      8  N   UNL     1       7.715  -9.392  -3.251  0.00  0.00    -0.244 NA
ATOM      9  C   UNL     1       6.661  -8.808  -2.727  0.00  0.00    +0.111 A 
ATOM     10  S   UNL     1       6.289  -7.126  -2.293  0.00  0.00    -0.064 S 
ATOM     11  C   UNL     1       8.993 -11.288  -4.092  0.00  0.00    +0.090 C 
ATOM     12  C   UNL     1       8.994 -12.805  -3.893  0.00  0.00    +0.070 C 
ATOM     13  O   UNL     1       7.723 -13.318  -4.308  0.00  0.00    -0.369 OA
ATOM     14  C   UNL     1       6.661 -12.969  -3.421  0.00  0.00    +0.197 C 
ATOM     15  C   UNL     1      10.104 -13.433  -4.739  0.00  0.00    +0.041 C 
ATOM     16  C   UNL     1       9.227 -13.129  -2.416  0.00  0.00    +0.041 C 
ATOM     17  N   UNL     1       3.188  -9.153  -1.386  0.00  0.00    -0.234 NA
ATOM     18  C   UNL     1       2.302  -8.323  -0.895  0.00  0.00    +0.223 A 
ATOM     19  N   UNL     1       2.516  -7.027  -0.763  0.00  0.00    -0.228 NA
ENDROOT
BRANCH   1  20
ATOM     20  S   UNL     1       3.992  -4.776  -0.973  0.00  0.00    -0.092 S 
BRANCH  20  22
ATOM     21  C   UNL     1       2.248  -4.866   1.128  0.00  0.00    +0.029 C 
ATOM     22  C   UNL     1       2.417  -4.241  -0.258  0.00  0.00    +0.136 C 
BRANCH  22  23
ATOM     23  C   UNL     1       2.405  -2.739  -0.137  0.00  0.00    +0.230 C 
ATOM     24  O   UNL     1       3.449  -2.122  -0.144  0.00  0.00    -0.274 OA
ATOM     25  N   UNL     1       1.234  -2.083  -0.020  0.00  0.00    -0.285 N 
ATOM     26  H   UNL     1       0.405  -2.580   0.062  0.00  0.00    +0.155 HD
BRANCH  25  27
ATOM     27  C   UNL     1       1.213  -0.681  -0.019  0.00  0.00    +0.034 A 
ATOM     28  C   UNL     1       2.138   0.027  -0.775  0.00  0.00    +0.027 A 
ATOM     29  C   UNL     1       2.117   1.408  -0.773  0.00  0.00    +0.047 A 
ATOM     30  C   UNL     1       1.173   2.087  -0.017  0.00  0.00    +0.120 A 
ATOM     31  C   UNL     1       0.249   1.379   0.739  0.00  0.00    +0.047 A 
ATOM     32  C   UNL     1       0.269  -0.001   0.738  0.00  0.00    +0.027 A 
BRANCH  30  33
ATOM     33  O   UNL     1       1.153   3.446  -0.015  0.00  0.00    -0.495 OA
ATOM     34  C   UNL     1       0.154   4.080   0.786  0.00  0.00    +0.277 C 
ENDBRANCH  30  33
ENDBRANCH  25  27
ENDBRANCH  22  23
ENDBRANCH  20  22
ENDBRANCH   1  20
TORSDOF 5
