REMARK  Name = ZINC00744271
REMARK  8 active torsions:
REMARK  status: ('A' for Active; 'I' for Inactive)
REMARK    1  A    between atoms: C_1  and  C_2
REMARK    2  A    between atoms: C_13  and  C_15
REMARK    3  A    between atoms: C_15  and  N_16
REMARK    4  A    between atoms: N_16  and  C_17
REMARK    5  A    between atoms: C_17  and  C_18
REMARK    6  A    between atoms: C_18  and  C_19
REMARK    7  A    between atoms: C_18  and  C_20
REMARK    8  A    between atoms: N_23  and  C_24
REMARK                            x       y       z     vdW  Elec       q    Type
REMARK                         _______ _______ _______ _____ _____    ______ ____
ROOT
ATOM      1  N   UNL     1      -2.542   4.150   0.037  0.00  0.00    -0.276 N 
ATOM      2  C   UNL     1      -3.178   4.395  -1.126  0.00  0.00    +0.307 C 
ATOM      3  O   UNL     1      -2.609   4.201  -2.183  0.00  0.00    -0.252 OA
ATOM      4  N   UNL     1      -4.445   4.855  -1.117  0.00  0.00    -0.269 N 
ATOM      5  H   UNL     1      -4.986   4.959  -0.166  0.00  0.00    +0.156 HD
ENDROOT
BRANCH   4   6
ATOM      6  C   UNL     1      -5.072   5.201  -2.320  0.00  0.00    +0.035 A 
ATOM      7  C   UNL     1      -5.966   6.263  -2.359  0.00  0.00    +0.024 A 
ATOM      8  C   UNL     1      -6.580   6.604  -3.548  0.00  0.00    +0.017 A 
ATOM      9  C   UNL     1      -6.313   5.883  -4.698  0.00  0.00    +0.018 A 
ATOM     10  C   UNL     1      -5.426   4.821  -4.661  0.00  0.00    +0.017 A 
ATOM     11  C   UNL     1      -4.806   4.478  -3.476  0.00  0.00    +0.024 A 
ATOM     12 BR   UNL     1      -7.160   6.349  -6.323  0.00  0.00    -0.050 Br
ENDBRANCH   4   6
BRANCH   1  13
ATOM     13  C   UNL     1      -1.165   3.651   0.028  0.00  0.00    +0.205 C 
BRANCH  13  25
ATOM     14  C   UNL     1       0.361  -0.492  -1.428  0.00  0.00    +0.033 C 
ATOM     15  C   UNL     1       0.005  -0.006  -0.021  0.00  0.00    +0.103 C 
ATOM     16  C   UNL     1       1.034  -0.511   0.959  0.00  0.00    -0.024 A 
ATOM     17  C   UNL     1       1.030  -1.867   1.261  0.00  0.00    +0.006 A 
ATOM     18  C   UNL     1       1.953  -2.390   2.143  0.00  0.00    +0.000 A 
ATOM     19  C   UNL     1       2.889  -1.559   2.729  0.00  0.00    +0.000 A 
ATOM     20  C   UNL     1       2.891  -0.211   2.434  0.00  0.00    +0.004 A 
ATOM     21  C   UNL     1       1.958   0.320   1.551  0.00  0.00    -0.041 A 
ATOM     22  C   UNL     1       2.003   1.804   1.298  0.00  0.00    +0.054 C 
ATOM     23  C   UNL     1       1.281   2.156  -0.002  0.00  0.00    +0.113 C 
ATOM     24  N   UNL     1      -0.017   1.460  -0.003  0.00  0.00    -0.293 N 
ATOM     25  C   UNL     1      -1.178   2.144   0.009  0.00  0.00    +0.233 C 
ATOM     26  O   UNL     1      -2.233   1.546   0.003  0.00  0.00    -0.274 OA
ENDBRANCH  13  25
ENDBRANCH   1  13
BRANCH   1  27
ATOM     27  C   UNL     1      -3.228   4.384   1.310  0.00  0.00    +0.113 C 
BRANCH  27  28
ATOM     28  C   UNL     1      -2.975   5.821   1.770  0.00  0.00    +0.000 C 
ATOM     29  C   UNL     1      -3.791   6.104   3.033  0.00  0.00    +0.009 C 
ATOM     30  C   UNL     1      -1.487   6.005   2.072  0.00  0.00    +0.009 C 
ENDBRANCH  27  28
ENDBRANCH   1  27
TORSDOF 5
