REMARK  Name = ZINC20356703
REMARK  7 active torsions:
REMARK  status: ('A' for Active; 'I' for Inactive)
REMARK    1  A    between atoms: C_1  and  C_2
REMARK    2  A    between atoms: C_14  and  C_15
REMARK    3  A    between atoms: C_18  and  O_21
REMARK    4  A    between atoms: O_21  and  C_22
REMARK    5  A    between atoms: C_22  and  C_23
REMARK    6  A    between atoms: C_23  and  O_24
REMARK    7  A    between atoms: O_24  and  C_25
REMARK                            x       y       z     vdW  Elec       q    Type
REMARK                         _______ _______ _______ _____ _____    ______ ____
ROOT
ATOM      1  C   UNL     1      -2.187  -0.904   1.273  0.00  0.00    +0.007 C 
ATOM      2  C   UNL     1      -1.687  -2.329   1.030  0.00  0.00    -0.011 C 
ATOM      3  C   UNL     1      -0.926  -2.384  -0.296  0.00  0.00    +0.022 C 
ATOM      4  C   UNL     1      -0.457  -3.820  -0.552  0.00  0.00    +0.107 C 
ATOM      5  N   UNL     1       0.320  -4.277   0.608  0.00  0.00    -0.308 N 
ATOM      6  C   UNL     1      -0.285  -4.183   1.944  0.00  0.00    +0.107 C 
ATOM      7  C   UNL     1      -0.756  -2.744   2.172  0.00  0.00    +0.022 C 
ATOM      8  C   UNL     1       1.597  -4.788   0.446  0.00  0.00    +0.182 C 
ATOM      9  N   UNL     1       2.423  -5.242   1.355  0.00  0.00    -0.149 NA
ATOM     10  N   UNL     1       3.666  -5.728   1.007  0.00  0.00    -0.150 N 
ATOM     11  C   UNL     1       4.591  -6.324   1.889  0.00  0.00    +0.153 C 
ATOM     12  N   UNL     1       4.250  -6.869   3.026  0.00  0.00    -0.283 NA
ATOM     13  C   UNL     1       5.997  -6.271   1.395  0.00  0.00    +0.081 C 
ATOM     14  C   UNL     1       7.064  -6.152   2.256  0.00  0.00    +0.024 C 
ATOM     15  C   UNL     1       6.183  -6.353  -0.075  0.00  0.00    +0.273 C 
ATOM     16  O   UNL     1       7.228  -6.765  -0.554  0.00  0.00    -0.268 OA
ATOM     17  N   UNL     1       5.165  -5.960  -0.865  0.00  0.00    -0.152 NA
ATOM     18  C   UNL     1       4.016  -5.645  -0.321  0.00  0.00    +0.182 C 
ATOM     19  S   UNL     1       2.537  -5.002  -1.060  0.00  0.00    -0.018 S 
ATOM     20  H   UNL     1       3.333  -6.813   3.335  0.00  0.00    +0.188 HD
ENDROOT
BRANCH  14  21
ATOM     21  C   UNL     1       6.832  -5.891   3.679  0.00  0.00    -0.024 A 
ATOM     22  C   UNL     1       7.677  -6.456   4.645  0.00  0.00    +0.011 A 
ATOM     23  C   UNL     1       7.455  -6.210   5.970  0.00  0.00    +0.046 A 
ATOM     24  C   UNL     1       6.394  -5.401   6.362  0.00  0.00    +0.121 A 
ATOM     25  C   UNL     1       5.552  -4.837   5.408  0.00  0.00    +0.046 A 
ATOM     26  C   UNL     1       5.767  -5.071   4.080  0.00  0.00    +0.011 A 
BRANCH  24  27
ATOM     27  O   UNL     1       6.178  -5.160   7.680  0.00  0.00    -0.489 OA
BRANCH  27  28
ATOM     28  C   UNL     1       5.071  -4.321   8.014  0.00  0.00    +0.270 C 
BRANCH  28  29
ATOM     29  C   UNL     1       4.988  -4.166   9.534  0.00  0.00    +0.270 C 
BRANCH  29  30
ATOM     30  O   UNL     1       6.144  -3.472  10.005  0.00  0.00    -0.489 OA
BRANCH  30  31
ATOM     31  C   UNL     1       6.227  -3.251  11.344  0.00  0.00    +0.121 A 
ATOM     32  C   UNL     1       5.219  -3.697  12.186  0.00  0.00    +0.045 A 
ATOM     33  C   UNL     1       5.306  -3.471  13.546  0.00  0.00    +0.004 A 
ATOM     34  C   UNL     1       6.397  -2.800  14.068  0.00  0.00    +0.000 A 
ATOM     35  C   UNL     1       7.402  -2.354  13.231  0.00  0.00    +0.004 A 
ATOM     36  C   UNL     1       7.323  -2.583  11.871  0.00  0.00    +0.045 A 
ENDBRANCH  30  31
ENDBRANCH  29  30
ENDBRANCH  28  29
ENDBRANCH  27  28
ENDBRANCH  24  27
ENDBRANCH  14  21
TORSDOF 6
