REMARK  Name = ZINC13065253
REMARK  16 active torsions:
REMARK  status: ('A' for Active; 'I' for Inactive)
REMARK    1  A    between atoms: C_1  and  C_2
REMARK    2  A    between atoms: C_2  and  C_3
REMARK    3  A    between atoms: C_3  and  C_5
REMARK    4  A    between atoms: C_3  and  N_74
REMARK    5  A    between atoms: N_9  and  C_10
REMARK    6  A    between atoms: C_10  and  C_11
REMARK    7  A    between atoms: C_10  and  C_12
REMARK    8  A    between atoms: C_10  and  C_13
REMARK    9  A    between atoms: C_13  and  C_14
REMARK   10  A    between atoms: C_15  and  C_16
REMARK   11  A    between atoms: C_15  and  N_74
REMARK   12  A    between atoms: C_19  and  C_22
REMARK   13  A    between atoms: C_23  and  C_24
REMARK   14  A    between atoms: C_23  and  N_74
REMARK   15  A    between atoms: C_27  and  C_37
REMARK   16  A    between atoms: C_30  and  C_36
REMARK                            x       y       z     vdW  Elec       q    Type
REMARK                         _______ _______ _______ _____ _____    ______ ____
ROOT
ATOM      1  N   UNL     1      -0.181   2.909   1.359  0.00  0.00    +0.392 N 
ATOM      2  H   UNL     1      -1.188   2.707   1.333  0.00  0.00    -0.080 HD
ENDROOT
BRANCH   1   3
ATOM      3  C   UNL     1       0.493   1.885   2.184  0.00  0.00    +0.003 C 
BRANCH   3   4
ATOM      4  C   UNL     1      -0.469   1.415   3.246  0.00  0.00    +0.139 A 
ATOM      5  N   UNL     1      -1.382   2.137   3.849  0.00  0.00    -0.115 NA
ATOM      6  N   UNL     1      -1.999   1.378   4.688  0.00  0.00    -0.023 NA
ATOM      7  N   UNL     1      -1.502   0.191   4.636  0.00  0.00    -0.043 NA
ATOM      8  N   UNL     1      -0.560   0.172   3.754  0.00  0.00    -0.225 N 
BRANCH   8   9
ATOM      9  C   UNL     1       0.258  -0.984   3.380  0.00  0.00    +0.061 C 
ATOM     10  C   UNL     1      -0.118  -1.440   1.969  0.00  0.00    +0.036 C 
ATOM     11  C   UNL     1       1.737  -0.593   3.412  0.00  0.00    +0.036 C 
BRANCH   9  12
ATOM     12  C   UNL     1       0.011  -2.125   4.368  0.00  0.00    +0.026 C 
ATOM     13  C   UNL     1       0.866  -3.332   3.978  0.00  0.00    +0.006 C 
ENDBRANCH   9  12
ENDBRANCH   8   9
ENDBRANCH   3   4
BRANCH   3  15
ATOM     14  C   UNL     1       2.770   2.828   1.776  0.00  0.00    +0.002 C 
ATOM     15  C   UNL     1       1.740   2.471   2.849  0.00  0.00    -0.011 C 
ENDBRANCH   3  15
ENDBRANCH   1   3
BRANCH   1  16
ATOM     16  C   UNL     1       0.025   4.248   1.949  0.00  0.00    -0.042 C 
BRANCH  16  17
ATOM     17  C   UNL     1      -0.854   4.382   3.166  0.00  0.00    -0.064 A 
ATOM     18  C   UNL     1      -2.207   4.620   3.018  0.00  0.00    +0.002 A 
ATOM     19  C   UNL     1      -3.014   4.738   4.135  0.00  0.00    +0.003 A 
ATOM     20  C   UNL     1      -2.466   4.627   5.399  0.00  0.00    -0.050 A 
ATOM     21  C   UNL     1      -1.111   4.393   5.546  0.00  0.00    +0.003 A 
ATOM     22  C   UNL     1      -0.305   4.271   4.430  0.00  0.00    +0.002 A 
ATOM     23  C   UNL     1      -3.344   4.760   6.615  0.00  0.00    +0.044 C 
ENDBRANCH  16  17
ENDBRANCH   1  16
BRANCH   1  24
ATOM     24  C   UNL     1       0.351   2.877  -0.020  0.00  0.00    -0.036 C 
BRANCH  24  25
ATOM     25  C   UNL     1      -0.283   1.723  -0.754  0.00  0.00    +0.001 A 
ATOM     26  C   UNL     1      -1.425   1.916  -1.458  0.00  0.00    +0.017 A 
ATOM     27  C   UNL     1      -2.013   0.776  -2.164  0.00  0.00    +0.002 A 
ATOM     28  C   UNL     1      -3.187   0.914  -2.912  0.00  0.00    -0.041 A 
ATOM     29  C   UNL     1      -3.712  -0.170  -3.556  0.00  0.00    +0.004 A 
ATOM     30  C   UNL     1      -3.090  -1.409  -3.475  0.00  0.00    +0.005 A 
ATOM     31  C   UNL     1      -1.933  -1.569  -2.744  0.00  0.00    -0.026 A 
ATOM     32  C   UNL     1      -1.379  -0.478  -2.080  0.00  0.00    +0.052 A 
ATOM     33  N   UNL     1      -0.222  -0.609  -1.343  0.00  0.00    -0.322 N 
ATOM     34  H   UNL     1       0.213  -1.474  -1.287  0.00  0.00    +0.169 HD
ATOM     35  C   UNL     1       0.313   0.444  -0.702  0.00  0.00    +0.251 A 
ATOM     36  O   UNL     1       1.337   0.292  -0.059  0.00  0.00    -0.268 OA
ATOM     37  C   UNL     1      -1.268  -2.919  -2.666  0.00  0.00    +0.046 C 
ATOM     38  C   UNL     1      -3.870   2.255  -3.006  0.00  0.00    +0.044 C 
ENDBRANCH  24  25
ENDBRANCH   1  24
TORSDOF 9
