REMARK  Name = ZINC20514597
REMARK  3 active torsions:
REMARK  status: ('A' for Active; 'I' for Inactive)
REMARK    1  A    between atoms: C_8  and  N_10
REMARK    2  A    between atoms: C_13  and  N_19
REMARK    3  A    between atoms: C_15  and  O_18
REMARK                            x       y       z     vdW  Elec       q    Type
REMARK                         _______ _______ _______ _____ _____    ______ ____
ROOT
ATOM      1  N   UNL     1       3.582  -3.418   0.267  0.00  0.00    +0.384 N 
ATOM      2  C   UNL     1       4.979  -3.479  -0.179  0.00  0.00    -0.077 C 
ATOM      3  C   UNL     1       5.711  -4.590   0.578  0.00  0.00    +0.003 C 
ATOM      4  C   UNL     1       5.025  -5.929   0.297  0.00  0.00    +0.082 C 
ATOM      5  C   UNL     1       3.550  -5.830   0.697  0.00  0.00    +0.115 C 
ATOM      6  C   UNL     1       2.898  -4.674  -0.064  0.00  0.00    -0.045 C 
ATOM      7  H   UNL     1       3.556  -3.275   1.266  0.00  0.00    -0.081 HD
ENDROOT
BRANCH   4   8
ATOM      8  N   UNL     1       5.677  -6.989   1.078  0.00  0.00    -0.294 NA
ATOM      9  C   UNL     1       5.607  -6.701   2.517  0.00  0.00    +0.103 C 
ATOM     10  C   UNL     1       6.133  -7.907   3.302  0.00  0.00    +0.122 C 
ATOM     11  N   UNL     1       7.474  -8.243   2.800  0.00  0.00    -0.314 N 
ATOM     12  C   UNL     1       7.652  -8.412   1.350  0.00  0.00    +0.122 C 
ATOM     13  C   UNL     1       7.066  -7.186   0.641  0.00  0.00    +0.103 C 
ATOM     14  C   UNL     1       8.545  -8.397   3.673  0.00  0.00    +0.099 A 
ATOM     15  C   UNL     1       8.378  -8.115   5.025  0.00  0.00    +0.042 A 
ATOM     16  C   UNL     1       9.451  -8.273   5.882  0.00  0.00    +0.005 A 
ATOM     17  C   UNL     1      10.661  -8.709   5.357  0.00  0.00    +0.018 A 
ATOM     18  C   UNL     1      10.755  -8.970   4.005  0.00  0.00    +0.084 A 
ATOM     19  N   UNL     1       9.713  -8.816   3.211  0.00  0.00    -0.350 N 
ATOM     20  H   UNL     1       9.805  -9.011   2.265  0.00  0.00    +0.166 HD
ENDBRANCH   4   8
BRANCH   1  28
ATOM     21  C   UNL     1      -0.122   1.328   0.130  0.00  0.00    +0.000 A 
ATOM     22  C   UNL     1       1.058   2.048   0.135  0.00  0.00    +0.000 A 
ATOM     23  C   UNL     1       2.270   1.385   0.113  0.00  0.00    +0.004 A 
ATOM     24  C   UNL     1       2.307   0.001   0.086  0.00  0.00    -0.046 A 
ATOM     25  C   UNL     1       1.127  -0.718   0.081  0.00  0.00    -0.046 A 
ATOM     26  C   UNL     1      -0.087  -0.052   0.103  0.00  0.00    +0.004 A 
ATOM     27  C   UNL     1       1.432  -2.201   0.050  0.00  0.00    +0.020 C 
ATOM     28  C   UNL     1       2.904  -2.301  -0.404  0.00  0.00    -0.060 C 
ATOM     29  C   UNL     1       3.485  -0.948   0.059  0.00  0.00    +0.020 C 
ENDBRANCH   1  28
BRANCH   5  30
ATOM     30  O   UNL     1       2.884  -7.052   0.372  0.00  0.00    -0.392 OA
ATOM     31  H   UNL     1       1.944  -7.060   0.599  0.00  0.00    +0.210 HD
ENDBRANCH   5  30
TORSDOF 3
