REMARK  Name = ZINC43289491
REMARK  6 active torsions:
REMARK  status: ('A' for Active; 'I' for Inactive)
REMARK    1  A    between atoms: C_1  and  C_2
REMARK    2  A    between atoms: C_2  and  C_4
REMARK    3  A    between atoms: C_2  and  N_23
REMARK    4  A    between atoms: C_4  and  C_6
REMARK    5  A    between atoms: C_4  and  O_12
REMARK    6  A    between atoms: O_12  and  C_13
REMARK                            x       y       z     vdW  Elec       q    Type
REMARK                         _______ _______ _______ _____ _____    ______ ____
ROOT
ATOM      1  C   UNL     1       0.763  -0.511   1.272  0.00  0.00    +0.196 C 
ENDROOT
BRANCH   1   2
ATOM      2  C   UNL     1       0.186  -0.043   2.583  0.00  0.00    +0.029 A 
ATOM      3  C   UNL     1       0.525   1.038   3.327  0.00  0.00    +0.030 A 
ATOM      4  C   UNL     1      -0.148   1.275   4.511  0.00  0.00    +0.025 A 
ATOM      5  C   UNL     1      -1.128   0.419   4.892  0.00  0.00    +0.060 A 
ATOM      6  S   UNL     1      -1.127  -0.763   3.554  0.00  0.00    -0.097 S 
ATOM      7 BR   UNL     1       0.291   2.769   5.583  0.00  0.00    -0.050 Br
ENDBRANCH   1   2
BRANCH   1   9
ATOM      8  C   UNL     1      -0.082   1.560   0.160  0.00  0.00    -0.010 C 
ATOM      9  C   UNL     1      -0.084   0.031   0.119  0.00  0.00    -0.032 C 
BRANCH   9  10
ATOM     10  N   UNL     1       0.479  -0.426  -1.159  0.00  0.00    +0.382 N 
ATOM     11  H   UNL     1       1.425  -0.088  -1.250  0.00  0.00    -0.089 HD
ATOM     12  H   UNL     1       0.477  -1.434  -1.186  0.00  0.00    -0.089 HD
ATOM     13  H   UNL     1      -0.080  -0.068  -1.919  0.00  0.00    -0.089 HD
ENDBRANCH   9  10
ENDBRANCH   1   9
BRANCH   1  14
ATOM     14  O   UNL     1       0.761  -1.940   1.234  0.00  0.00    -0.483 OA
BRANCH  14  15
ATOM     15  C   UNL     1       1.754  -2.539   0.527  0.00  0.00    +0.147 A 
ATOM     16  C   UNL     1       2.737  -1.786  -0.052  0.00  0.00    +0.048 A 
ATOM     17  C   UNL     1       3.763  -2.383  -0.779  0.00  0.00    +0.004 A 
ATOM     18  C   UNL     1       3.816  -3.735  -0.936  0.00  0.00    +0.010 A 
ATOM     19  C   UNL     1       2.824  -4.542  -0.356  0.00  0.00    +0.004 A 
ATOM     20  C   UNL     1       1.780  -3.943   0.391  0.00  0.00    +0.112 A 
ATOM     21  N   UNL     1       0.837  -4.707   0.948  0.00  0.00    -0.251 NA
ATOM     22  C   UNL     1       0.856  -6.012   0.825  0.00  0.00    +0.111 A 
ATOM     23  C   UNL     1       1.857  -6.666   0.108  0.00  0.00    +0.020 A 
ATOM     24  C   UNL     1       2.845  -5.943  -0.496  0.00  0.00    +0.011 A 
ENDBRANCH  14  15
ENDBRANCH   1  14
TORSDOF 5
