REMARK  Name = ZINC34757047
REMARK  6 active torsions:
REMARK  status: ('A' for Active; 'I' for Inactive)
REMARK    1  A    between atoms: C_1  and  C_2
REMARK    2  A    between atoms: C_2  and  C_3
REMARK    3  A    between atoms: C_3  and  N_4
REMARK    4  A    between atoms: C_17  and  S_19
REMARK    5  A    between atoms: S_19  and  C_20
REMARK    6  A    between atoms: C_20  and  C_21
REMARK                            x       y       z     vdW  Elec       q    Type
REMARK                         _______ _______ _______ _____ _____    ______ ____
ROOT
ATOM      1  N   UNL     1       0.158  -2.539   0.300  0.00  0.00    +0.382 N 
ATOM      2  C   UNL     1      -0.019  -3.939  -0.106  0.00  0.00    -0.060 C 
ATOM      3  C   UNL     1       0.762  -4.849   0.849  0.00  0.00    +0.088 C 
ATOM      4  N   UNL     1       0.335  -4.557   2.225  0.00  0.00    -0.318 N 
ATOM      5  C   UNL     1       0.325  -3.154   2.666  0.00  0.00    +0.088 C 
ATOM      6  C   UNL     1      -0.435  -2.324   1.626  0.00  0.00    -0.060 C 
ATOM      7  C   UNL     1      -0.048  -5.574   3.082  0.00  0.00    +0.134 A 
ATOM      8  C   UNL     1       0.895  -6.160   3.972  0.00  0.00    +0.051 A 
ATOM      9  C   UNL     1       2.321  -5.831   4.137  0.00  0.00    -0.025 A 
ATOM     10  C   UNL     1       3.004  -6.536   5.053  0.00  0.00    -0.004 A 
ATOM     11  S   UNL     1       1.818  -7.663   5.748  0.00  0.00    -0.073 S 
ATOM     12  C   UNL     1       0.400  -7.183   4.798  0.00  0.00    +0.115 A 
ATOM     13  N   UNL     1      -0.861  -7.568   4.743  0.00  0.00    -0.215 NA
ATOM     14  C   UNL     1      -1.698  -6.986   3.894  0.00  0.00    +0.191 A 
ATOM     15  N   UNL     1      -1.297  -6.010   3.089  0.00  0.00    -0.206 NA
ATOM     16  C   UNL     1       4.448  -6.119   5.131  0.00  0.00    +0.043 C 
ATOM     17  C   UNL     1       4.696  -5.333   3.824  0.00  0.00    +0.010 C 
ATOM     18  C   UNL     1       3.279  -4.825   3.492  0.00  0.00    +0.037 C 
ATOM     19  H   UNL     1       1.143  -2.324   0.335  0.00  0.00    -0.082 HD
ENDROOT
BRANCH   1  20
ATOM     20  C   UNL     1      -0.499  -1.661  -0.677  0.00  0.00    -0.079 C 
BRANCH  20  22
ATOM     21  C   UNL     1      -0.484  -0.878  -3.050  0.00  0.00    +0.002 C 
ATOM     22  C   UNL     1       0.200  -1.793  -2.032  0.00  0.00    -0.022 C 
ENDBRANCH  20  22
ENDBRANCH   1  20
BRANCH  14  23
ATOM     23  S   UNL     1      -3.378  -7.517   3.838  0.00  0.00    -0.086 S 
BRANCH  23  24
ATOM     24  C   UNL     1      -3.465  -8.831   5.085  0.00  0.00    +0.074 C 
ATOM     25  C   UNL     1      -4.889  -9.388   5.141  0.00  0.00    +0.016 C 
ENDBRANCH  23  24
ENDBRANCH  14  23
TORSDOF 4
