REMARK  Name = ZINC66218616
REMARK  10 active torsions:
REMARK  status: ('A' for Active; 'I' for Inactive)
REMARK    1  A    between atoms: C_1  and  C_2
REMARK    2  A    between atoms: C_5  and  C_28
REMARK    3  A    between atoms: N_8  and  C_10
REMARK    4  A    between atoms: C_10  and  C_11
REMARK    5  A    between atoms: C_11  and  C_13
REMARK    6  A    between atoms: C_11  and  N_14
REMARK    7  A    between atoms: C_15  and  C_17
REMARK    8  A    between atoms: N_19  and  C_20
REMARK    9  A    between atoms: C_23  and  S_26
REMARK   10  A    between atoms: S_26  and  C_27
REMARK                            x       y       z     vdW  Elec       q    Type
REMARK                         _______ _______ _______ _____ _____    ______ ____
ROOT
ATOM      1  N   UNL     1       3.504  -2.489   0.946  0.00  0.00    -0.307 N 
ATOM      2  C   UNL     1       4.535  -1.847   0.361  0.00  0.00    +0.299 C 
ATOM      3  O   UNL     1       5.030  -0.878   0.899  0.00  0.00    -0.265 OA
ATOM      4  H   UNL     1       3.108  -3.264   0.516  0.00  0.00    +0.149 HD
ENDROOT
BRANCH   2   5
ATOM      5  C   UNL     1       5.066  -2.327  -0.949  0.00  0.00    +0.303 C 
ATOM      6  O   UNL     1       4.571  -3.296  -1.487  0.00  0.00    -0.265 OA
ATOM      7  N   UNL     1       6.097  -1.684  -1.534  0.00  0.00    -0.276 N 
ATOM      8  H   UNL     1       6.448  -0.871  -1.140  0.00  0.00    +0.155 HD
BRANCH   7   9
ATOM      9  C   UNL     1       6.659  -2.190  -2.712  0.00  0.00    +0.052 A 
ATOM     10  C   UNL     1       5.856  -2.817  -3.665  0.00  0.00    +0.027 A 
ATOM     11  C   UNL     1       6.453  -3.301  -4.813  0.00  0.00    +0.036 A 
ATOM     12  C   UNL     1       7.827  -3.150  -4.979  0.00  0.00    +0.097 A 
ATOM     13  N   UNL     1       8.559  -2.550  -4.052  0.00  0.00    -0.247 NA
ATOM     14  C   UNL     1       8.021  -2.071  -2.947  0.00  0.00    +0.135 A 
BRANCH  12  15
ATOM     15  S   UNL     1       8.602  -3.765  -6.437  0.00  0.00    -0.109 S 
ATOM     16  C   UNL     1      10.353  -3.349  -6.213  0.00  0.00    +0.091 C 
ENDBRANCH  12  15
ENDBRANCH   7   9
ENDBRANCH   2   5
BRANCH   1  17
ATOM     17  C   UNL     1       2.982  -2.018   2.231  0.00  0.00    +0.054 C 
ATOM     18  C   UNL     1       3.812  -2.618   3.369  0.00  0.00    +0.026 C 
BRANCH  17  19
ATOM     19  C   UNL     1       1.523  -2.454   2.380  0.00  0.00    -0.057 C 
BRANCH  19  25
ATOM     20  C   UNL     1      -0.029   1.521  -0.021  0.00  0.00    +0.005 C 
ATOM     21  C   UNL     1      -0.005  -0.009  -0.023  0.00  0.00    -0.031 C 
ATOM     22  C   UNL     1      -1.441  -0.542  -0.012  0.00  0.00    +0.003 C 
ATOM     23  C   UNL     1      -1.406  -2.071   0.065  0.00  0.00    -0.031 C 
ATOM     24  C   UNL     1      -0.620  -2.496   1.307  0.00  0.00    -0.076 C 
ATOM     25  N   UNL     1       0.751  -1.978   1.224  0.00  0.00    +0.381 N 
ATOM     26  C   UNL     1       0.730  -0.510   1.222  0.00  0.00    -0.076 C 
ATOM     27  C   UNL     1      -2.835  -2.611   0.154  0.00  0.00    +0.005 C 
ATOM     28  H   UNL     1       1.183  -2.308   0.374  0.00  0.00    -0.082 HD
ENDBRANCH  19  25
ENDBRANCH  17  19
ENDBRANCH   1  17
TORSDOF 6
