REMARK  Name = ZINC39534422
REMARK  11 active torsions:
REMARK  status: ('A' for Active; 'I' for Inactive)
REMARK    1  A    between atoms: C_1  and  C_2
REMARK    2  A    between atoms: C_2  and  C_3
REMARK    3  A    between atoms: C_2  and  S_4
REMARK    4  A    between atoms: S_4  and  C_7
REMARK    5  A    between atoms: C_10  and  C_13
REMARK    6  A    between atoms: C_13  and  C_15
REMARK    7  A    between atoms: C_13  and  N_18
REMARK    8  A    between atoms: C_15  and  N_16
REMARK    9  A    between atoms: N_16  and  O_17
REMARK   10  A    between atoms: C_22  and  C_25
REMARK   11  A    between atoms: C_25  and  C_26
REMARK                            x       y       z     vdW  Elec       q    Type
REMARK                         _______ _______ _______ _____ _____    ______ ____
ROOT
ATOM      1  C   UNL     1      -4.212   1.593  -4.999  0.00  0.00    -0.022 C 
ENDROOT
BRANCH   1   2
ATOM      2  N   UNL     1      -3.286   1.205  -6.071  0.00  0.00    +0.383 N 
ATOM      3  C   UNL     1      -1.954   1.758  -5.792  0.00  0.00    -0.097 C 
ATOM      4  C   UNL     1      -0.990   1.353  -6.909  0.00  0.00    -0.101 C 
ATOM      5  N   UNL     1      -1.478   1.877  -8.191  0.00  0.00    +0.379 N 
ATOM      6  C   UNL     1      -2.810   1.324  -8.471  0.00  0.00    -0.085 C 
ATOM      7  C   UNL     1      -3.775   1.729  -7.354  0.00  0.00    -0.094 C 
ATOM      8  H   UNL     1      -1.535   2.883  -8.144  0.00  0.00    -0.086 HD
ATOM      9  H   UNL     1      -0.842   1.610  -8.928  0.00  0.00    -0.086 HD
ATOM     10  H   UNL     1      -3.230   0.199  -6.119  0.00  0.00    -0.081 HD
BRANCH   6  11
ATOM     11  C   UNL     1      -3.319   1.869  -9.806  0.00  0.00    +0.017 C 
BRANCH  11  12
ATOM     12  C   UNL     1      -2.438   1.369 -10.922  0.00  0.00    -0.049 A 
ATOM     13  C   UNL     1      -1.327   2.097 -11.305  0.00  0.00    +0.003 A 
ATOM     14  C   UNL     1      -0.519   1.638 -12.328  0.00  0.00    +0.000 A 
ATOM     15  C   UNL     1      -0.821   0.450 -12.968  0.00  0.00    +0.000 A 
ATOM     16  C   UNL     1      -1.931  -0.279 -12.584  0.00  0.00    +0.000 A 
ATOM     17  C   UNL     1      -2.737   0.178 -11.558  0.00  0.00    +0.003 A 
ENDBRANCH  11  12
ENDBRANCH   6  11
ENDBRANCH   1   2
BRANCH   1  21
ATOM     18  C   UNL     1      -2.582   0.445  -1.222  0.00  0.00    +0.088 A 
ATOM     19  C   UNL     1      -3.231   1.658  -1.354  0.00  0.00    +0.027 A 
ATOM     20  C   UNL     1      -3.758   2.030  -2.577  0.00  0.00    +0.004 A 
ATOM     21  C   UNL     1      -3.636   1.189  -3.667  0.00  0.00    -0.060 A 
ATOM     22  C   UNL     1      -2.986  -0.024  -3.534  0.00  0.00    +0.004 A 
ATOM     23  C   UNL     1      -2.455  -0.394  -2.313  0.00  0.00    +0.027 A 
BRANCH  18  24
ATOM     24  S   UNL     1      -1.909  -0.029   0.337  0.00  0.00    -0.001 S 
ATOM     25  O   UNL     1      -1.890  -1.450   0.306  0.00  0.00    -0.169 OA
ATOM     26  O   UNL     1      -2.695   0.664   1.296  0.00  0.00    -0.169 OA
BRANCH  24  28
ATOM     27  C   UNL     1      -0.252   2.140   0.168  0.00  0.00    +0.032 C 
ATOM     28  C   UNL     1      -0.215   0.619   0.330  0.00  0.00    +0.130 C 
ATOM     29  C   UNL     1       0.472   0.263   1.649  0.00  0.00    +0.032 C 
ENDBRANCH  24  28
ENDBRANCH  18  24
ENDBRANCH   1  21
BRANCH   1  30
ATOM     30  C   UNL     1      -5.556   0.893  -5.208  0.00  0.00    +0.100 C 
BRANCH  30  31
ATOM     31  N   UNL     1      -6.194   1.411  -6.425  0.00  0.00    -0.205 NA
ATOM     32  H   UNL     1      -6.296   2.414  -6.382  0.00  0.00    +0.153 HD
BRANCH  31  33
ATOM     33  O   UNL     1      -7.485   0.763  -6.657  0.00  0.00    -0.315 OA
ATOM     34  H   UNL     1      -7.944   1.072  -7.450  0.00  0.00    +0.236 HD
ENDBRANCH  31  33
ENDBRANCH  30  31
ENDBRANCH   1  30
TORSDOF 9
