REMARK  Name = ZINC62189598
REMARK  5 active torsions:
REMARK  status: ('A' for Active; 'I' for Inactive)
REMARK    1  A    between atoms: C_1  and  C_2
REMARK    2  A    between atoms: C_2  and  C_3
REMARK    3  A    between atoms: C_2  and  C_4
REMARK    4  A    between atoms: C_10  and  N_17
REMARK    5  A    between atoms: C_12  and  O_16
REMARK                            x       y       z     vdW  Elec       q    Type
REMARK                         _______ _______ _______ _____ _____    ______ ____
ROOT
ATOM      1  C   UNL     1      -1.349  -0.371  -0.221  0.00  0.00    -0.044 A 
ATOM      2  C   UNL     1      -2.151  -0.007   0.845  0.00  0.00    +0.007 A 
ATOM      3  C   UNL     1      -3.433  -0.507   0.946  0.00  0.00    +0.046 A 
ATOM      4  C   UNL     1      -3.923  -1.377  -0.023  0.00  0.00    +0.125 A 
ATOM      5  C   UNL     1      -3.120  -1.737  -1.090  0.00  0.00    +0.014 A 
ATOM      6  C   UNL     1      -1.835  -1.230  -1.188  0.00  0.00    +0.012 A 
ATOM      7  C   UNL     1      -3.616  -2.668  -2.167  0.00  0.00    +0.122 C 
ATOM      8  C   UNL     1      -4.844  -3.432  -1.664  0.00  0.00    +0.173 C 
ATOM      9  C   UNL     1      -5.814  -2.423  -1.036  0.00  0.00    +0.262 C 
ATOM     10  O   UNL     1      -5.189  -1.852   0.114  0.00  0.00    -0.489 OA
ENDROOT
BRANCH   7  11
ATOM     11  N   UNL     1      -2.556  -3.623  -2.514  0.00  0.00    -0.289 NA
ATOM     12  C   UNL     1      -2.878  -4.340  -3.757  0.00  0.00    +0.113 C 
ATOM     13  C   UNL     1      -1.723  -5.279  -4.112  0.00  0.00    +0.175 C 
ATOM     14  O   UNL     1      -1.486  -6.171  -3.019  0.00  0.00    -0.377 OA
ATOM     15  C   UNL     1      -1.168  -5.506  -1.793  0.00  0.00    +0.175 C 
ATOM     16  C   UNL     1      -2.318  -4.569  -1.414  0.00  0.00    +0.113 C 
ENDBRANCH   7  11
BRANCH   1  18
ATOM     17  C   UNL     1       0.002   1.700  -0.405  0.00  0.00    +0.012 C 
ATOM     18  C   UNL     1       0.052   0.172  -0.331  0.00  0.00    +0.013 C 
ATOM     19  C   UNL     1       0.862  -0.253   0.896  0.00  0.00    +0.012 C 
ENDBRANCH   1  18
BRANCH   8  20
ATOM     20  O   UNL     1      -5.479  -4.096  -2.758  0.00  0.00    -0.387 OA
ATOM     21  H   UNL     1      -6.266  -4.600  -2.509  0.00  0.00    +0.210 HD
ENDBRANCH   8  20
TORSDOF 3
