REMARK  Name = ZINC02526281
REMARK  12 active torsions:
REMARK  status: ('A' for Active; 'I' for Inactive)
REMARK    1  A    between atoms: C_1  and  C_2
REMARK    2  A    between atoms: C_2  and  C_3
REMARK    3  A    between atoms: C_2  and  C_4
REMARK    4  A    between atoms: C_2  and  O_5
REMARK    5  A    between atoms: O_5  and  C_6
REMARK    6  A    between atoms: C_10  and  C_17
REMARK    7  A    between atoms: C_17  and  CA_18
REMARK    8  A    between atoms: CA_18  and  C_20
REMARK    9  A    between atoms: CA_18  and  N_22
REMARK   10  A    between atoms: C_23  and  O_25
REMARK   11  A    between atoms: O_25  and  C_26
REMARK   12  A    between atoms: C_26  and  C_27
REMARK                            x       y       z     vdW  Elec       q    Type
REMARK                         _______ _______ _______ _____ _____    ______ ____
ROOT
ATOM      1  CA  UNL     1      -4.592   7.097  -3.258  0.00  0.00    +0.193 C 
ENDROOT
BRANCH   1   2
ATOM      2  N   UNL     1      -3.849   6.505  -2.143  0.00  0.00    -0.267 N 
ATOM      3  C   UNL     1      -2.501   6.498  -2.159  0.00  0.00    +0.401 C 
ATOM      4  O   UNL     1      -1.902   6.982  -3.099  0.00  0.00    -0.226 OA
ATOM      5  H   UNL     1      -4.327   6.118  -1.392  0.00  0.00    +0.153 HD
BRANCH   3   6
ATOM      6  O   UNL     1      -1.818   5.954  -1.134  0.00  0.00    -0.449 OA
BRANCH   6   7
ATOM      7  C   UNL     1      -0.369   5.982  -1.218  0.00  0.00    +0.246 C 
BRANCH   7   8
ATOM      8  C   UNL     1       0.227   5.323   0.027  0.00  0.00    +0.088 C 
ATOM      9  C   UNL     1      -0.064   3.843   0.022  0.00  0.00    -0.029 A 
ATOM     10  C   UNL     1      -1.245   3.132   0.029  0.00  0.00    +0.005 A 
ATOM     11  C   UNL     1      -1.221   1.748   0.017  0.00  0.00    +0.000 A 
ATOM     12  C   UNL     1      -0.013   1.076   0.008  0.00  0.00    +0.001 A 
ATOM     13  C   UNL     1       1.174   1.779   0.000  0.00  0.00    +0.009 A 
ATOM     14  C   UNL     1       1.157   3.175   0.008  0.00  0.00    -0.014 A 
ATOM     15  C   UNL     1       2.262   4.166   0.002  0.00  0.00    -0.014 A 
ATOM     16  C   UNL     1       1.731   5.452   0.014  0.00  0.00    -0.029 A 
ATOM     17  C   UNL     1       2.566   6.550   0.011  0.00  0.00    +0.005 A 
ATOM     18  C   UNL     1       3.938   6.376  -0.003  0.00  0.00    +0.000 A 
ATOM     19  C   UNL     1       4.476   5.101  -0.015  0.00  0.00    +0.001 A 
ATOM     20  C   UNL     1       3.648   3.998  -0.012  0.00  0.00    +0.009 A 
ENDBRANCH   7   8
ENDBRANCH   6   7
ENDBRANCH   3   6
ENDBRANCH   1   2
BRANCH   1  21
ATOM     21  C   UNL     1      -4.754   6.074  -4.352  0.00  0.00    +0.376 C 
ATOM     22  O   UNL     1      -4.296   4.964  -4.215  0.00  0.00    -0.244 OA
ATOM     23  OXT UNL     1      -5.407   6.395  -5.480  0.00  0.00    -0.244 OA
ENDBRANCH   1  21
BRANCH   1  24
ATOM     24  C   UNL     1      -5.971   7.546  -2.771  0.00  0.00    +0.071 C 
BRANCH  24  29
ATOM     25  C   UNL     1      -5.547   9.976   1.485  0.00  0.00    +0.420 C 
ATOM     26  O   UNL     1      -5.407  11.107   1.905  0.00  0.00    -0.223 OA
ATOM     27  N   UNL     1      -5.619   9.755   0.158  0.00  0.00    -0.253 N 
ATOM     28  C   UNL     1      -5.782   8.524  -0.431  0.00  0.00    +0.102 A 
ATOM     29  C   UNL     1      -5.811   8.656  -1.765  0.00  0.00    -0.019 A 
ATOM     30  C   UNL     1      -5.665  10.085  -2.061  0.00  0.00    +0.004 A 
ATOM     31  C   UNL     1      -5.548  10.732  -0.818  0.00  0.00    +0.060 A 
ATOM     32  C   UNL     1      -5.395  12.112  -0.777  0.00  0.00    +0.027 A 
ATOM     33  C   UNL     1      -5.359  12.835  -1.950  0.00  0.00    +0.002 A 
ATOM     34  C   UNL     1      -5.474  12.198  -3.177  0.00  0.00    +0.001 A 
ATOM     35  C   UNL     1      -5.626  10.830  -3.240  0.00  0.00    +0.010 A 
BRANCH  25  36
ATOM     36  O   UNL     1      -5.629   8.944   2.345  0.00  0.00    -0.442 OA
BRANCH  36  38
ATOM     37  C   UNL     1      -6.682  10.203   4.144  0.00  0.00    +0.055 C 
ATOM     38  C   UNL     1      -5.543   9.257   3.761  0.00  0.00    +0.107 C 
ATOM     39  C   UNL     1      -5.655   7.967   4.576  0.00  0.00    +0.055 C 
ATOM     40  C   UNL     1      -4.200   9.931   4.053  0.00  0.00    +0.055 C 
ENDBRANCH  36  38
ENDBRANCH  25  36
ENDBRANCH  24  29
ENDBRANCH   1  24
TORSDOF 9
