REMARK  Name = ZINC20580931
REMARK  12 active torsions:
REMARK  status: ('A' for Active; 'I' for Inactive)
REMARK    1  A    between atoms: C_1  and  C_2
REMARK    2  A    between atoms: C_4  and  C_37
REMARK    3  A    between atoms: C_6  and  N_8
REMARK    4  A    between atoms: C_10  and  C_15
REMARK    5  A    between atoms: C_21  and  C_23
REMARK    6  A    between atoms: C_24  and  C_25
REMARK    7  A    between atoms: C_27  and  O_35
REMARK    8  A    between atoms: C_28  and  O_33
REMARK    9  A    between atoms: C_29  and  O_31
REMARK   10  A    between atoms: O_31  and  C_32
REMARK   11  A    between atoms: O_33  and  C_34
REMARK   12  A    between atoms: O_35  and  C_36
REMARK                            x       y       z     vdW  Elec       q    Type
REMARK                         _______ _______ _______ _____ _____    ______ ____
ROOT
ATOM      1  C   UNL     1       9.752   0.102  -0.090  0.00  0.00    +0.109 A 
ATOM      2  N   UNL     1       8.704  -0.698  -0.098  0.00  0.00    -0.144 NA
ATOM      3  N   UNL     1       7.523  -0.257  -0.084  0.00  0.00    -0.126 NA
ATOM      4  C   UNL     1       7.261   1.043  -0.073  0.00  0.00    +0.188 A 
ATOM      5  S   UNL     1       8.930   1.692  -0.069  0.00  0.00    -0.035 S 
ATOM      6  N   UNL     1       6.042   1.709  -0.061  0.00  0.00    -0.260 N 
ATOM      7  C   UNL     1       4.891   1.009  -0.067  0.00  0.00    +0.243 C 
ATOM      8  O   UNL     1       4.919  -0.208  -0.083  0.00  0.00    -0.270 OA
ATOM      9  H   UNL     1       6.017   2.809  -0.047  0.00  0.00    +0.157 HD
ENDROOT
BRANCH   1  12
ATOM     10  N   UNL     1      12.615  -2.055   0.590  0.00  0.00    -0.271 N 
ATOM     11  C   UNL     1      11.593  -1.132   1.099  0.00  0.00    +0.124 C 
ATOM     12  C   UNL     1      11.223  -0.228  -0.098  0.00  0.00    +0.073 C 
ATOM     13  C   UNL     1      11.580  -1.132  -1.300  0.00  0.00    +0.108 C 
ATOM     14  C   UNL     1      12.627  -2.079  -0.754  0.00  0.00    +0.220 C 
ATOM     15  O   UNL     1      13.368  -2.759  -1.430  0.00  0.00    -0.275 OA
BRANCH  10  21
ATOM     16  C   UNL     1      16.095  -5.502   1.014  0.00  0.00    +0.044 C 
ATOM     17  C   UNL     1      15.166  -4.489   1.632  0.00  0.00    -0.048 A 
ATOM     18  C   UNL     1      15.156  -4.307   3.003  0.00  0.00    +0.006 A 
ATOM     19  C   UNL     1      14.306  -3.379   3.575  0.00  0.00    -0.048 A 
ATOM     20  C   UNL     1      13.462  -2.631   2.777  0.00  0.00    +0.027 A 
ATOM     21  C   UNL     1      13.469  -2.811   1.401  0.00  0.00    +0.037 A 
ATOM     22  C   UNL     1      14.320  -3.749   0.830  0.00  0.00    +0.027 A 
ATOM     23  C   UNL     1      14.300  -3.183   5.069  0.00  0.00    +0.044 C 
ENDBRANCH  10  21
ENDBRANCH   1  12
BRANCH   7  24
ATOM     24  C   UNL     1       3.608   1.710  -0.055  0.00  0.00    +0.068 C 
ATOM     25  C   UNL     1       2.455   1.008  -0.061  0.00  0.00    +0.013 C 
BRANCH  25  26
ATOM     26  C   UNL     1       1.165   1.714  -0.049  0.00  0.00    -0.018 A 
ATOM     27  C   UNL     1      -0.031   0.988  -0.055  0.00  0.00    +0.057 A 
ATOM     28  C   UNL     1      -1.242   1.654  -0.049  0.00  0.00    +0.166 A 
ATOM     29  C   UNL     1      -1.272   3.046  -0.025  0.00  0.00    +0.204 A 
ATOM     30  C   UNL     1      -0.083   3.772  -0.018  0.00  0.00    +0.166 A 
ATOM     31  C   UNL     1       1.131   3.112  -0.030  0.00  0.00    +0.057 A 
BRANCH  30  32
ATOM     32  O   UNL     1      -0.117   5.131  -0.000  0.00  0.00    -0.491 OA
ATOM     33  C   UNL     1       1.139   5.812   0.005  0.00  0.00    +0.277 C 
ENDBRANCH  30  32
BRANCH  29  34
ATOM     34  O   UNL     1      -2.464   3.699  -0.013  0.00  0.00    -0.488 OA
ATOM     35  C   UNL     1      -3.036   4.027  -1.281  0.00  0.00    +0.277 C 
ENDBRANCH  29  34
BRANCH  28  36
ATOM     36  O   UNL     1      -2.405   0.950  -0.061  0.00  0.00    -0.491 OA
ATOM     37  C   UNL     1      -2.300  -0.475  -0.080  0.00  0.00    +0.277 C 
ENDBRANCH  28  36
ENDBRANCH  25  26
ENDBRANCH   7  24
TORSDOF 7
