REMARK  Name = ZINC40683406
REMARK  4 active torsions:
REMARK  status: ('A' for Active; 'I' for Inactive)
REMARK    1  A    between atoms: C_10  and  O_11
REMARK    2  A    between atoms: O_11  and  C_12
REMARK    3  A    between atoms: C_13  and  N_30
REMARK    4  A    between atoms: C_14  and  N_18
REMARK                            x       y       z     vdW  Elec       q    Type
REMARK                         _______ _______ _______ _____ _____    ______ ____
ROOT
ATOM      1  C   UNL     1       6.011  -0.617  -0.012  0.00  0.00    +0.246 A 
ATOM      2  C   UNL     1       7.234   0.044   0.095  0.00  0.00    +0.128 A 
ATOM      3  C   UNL     1       8.393  -0.728   0.217  0.00  0.00    +0.149 A 
ATOM      4  N   UNL     1       8.285  -2.054   0.227  0.00  0.00    -0.219 NA
ATOM      5  C   UNL     1       7.109  -2.638   0.123  0.00  0.00    +0.227 A 
ATOM      6  N   UNL     1       5.993  -1.946   0.011  0.00  0.00    -0.199 NA
ENDROOT
BRANCH   3   7
ATOM      7  N   UNL     1       9.637  -0.120   0.326  0.00  0.00    -0.311 N 
ATOM      8  C   UNL     1      10.143   0.319   1.635  0.00  0.00    +0.125 C 
ATOM      9  C   UNL     1      11.513  -0.329   1.872  0.00  0.00    +0.125 C 
ATOM     10  N   UNL     1      12.347  -0.113   0.682  0.00  0.00    -0.314 N 
ATOM     11  C   UNL     1      11.841  -0.552  -0.626  0.00  0.00    +0.125 C 
ATOM     12  C   UNL     1      10.474   0.091  -0.863  0.00  0.00    +0.125 C 
ATOM     13  C   UNL     1      13.592   0.495   0.791  0.00  0.00    +0.099 A 
ATOM     14  C   UNL     1      14.114   0.777   2.050  0.00  0.00    +0.042 A 
ATOM     15  C   UNL     1      15.354   1.382   2.144  0.00  0.00    +0.005 A 
ATOM     16  C   UNL     1      16.034   1.687   0.972  0.00  0.00    +0.018 A 
ATOM     17  C   UNL     1      15.456   1.379  -0.244  0.00  0.00    +0.084 A 
ATOM     18  N   UNL     1      14.274   0.796  -0.303  0.00  0.00    -0.350 N 
ATOM     19  H   UNL     1      13.893   0.588  -1.170  0.00  0.00    +0.166 HD
ENDBRANCH   3   7
BRANCH   2  20
ATOM     20  N   UNL     1       7.300   1.446   0.080  0.00  0.00    -0.351 N 
ATOM     21  H   UNL     1       6.484   1.969   0.068  0.00  0.00    +0.143 HD
ATOM     22  H   UNL     1       8.162   1.891   0.082  0.00  0.00    +0.143 HD
ENDBRANCH   2  20
BRANCH   1  23
ATOM     23  O   UNL     1       4.857   0.086  -0.132  0.00  0.00    -0.436 OA
BRANCH  23  33
ATOM     24  C   UNL     1       1.959  -1.883   3.463  0.00  0.00    +0.001 A 
ATOM     25  C   UNL     1       3.160  -1.176   3.478  0.00  0.00    +0.001 A 
ATOM     26  C   UNL     1       3.739  -0.751   2.321  0.00  0.00    +0.012 A 
ATOM     27  C   UNL     1       3.118  -1.027   1.093  0.00  0.00    +0.024 A 
ATOM     28  C   UNL     1       1.897  -1.746   1.075  0.00  0.00    -0.014 A 
ATOM     29  C   UNL     1       1.330  -2.168   2.290  0.00  0.00    +0.008 A 
ATOM     30  C   UNL     1       1.275  -2.023  -0.154  0.00  0.00    +0.009 A 
ATOM     31  C   UNL     1       1.848  -1.602  -1.315  0.00  0.00    +0.004 A 
ATOM     32  C   UNL     1       3.047  -0.896  -1.309  0.00  0.00    +0.047 A 
ATOM     33  C   UNL     1       3.687  -0.604  -0.126  0.00  0.00    +0.138 A 
ENDBRANCH  23  33
ENDBRANCH   1  23
TORSDOF 4
