REMARK  Name = ZINC67504174
REMARK  6 active torsions:
REMARK  status: ('A' for Active; 'I' for Inactive)
REMARK    1  A    between atoms: C_5  and  C_7
REMARK    2  A    between atoms: C_7  and  O_8
REMARK    3  A    between atoms: O_8  and  C_9
REMARK    4  A    between atoms: C_12  and  C_15
REMARK    5  A    between atoms: C_15  and  N_16
REMARK    6  A    between atoms: N_16  and  C_17
REMARK                            x       y       z     vdW  Elec       q    Type
REMARK                         _______ _______ _______ _____ _____    ______ ____
ROOT
ATOM      1  C   UNL     1      -0.670  -8.295  -0.036  0.00  0.00    -0.046 C 
ENDROOT
BRANCH   1   5
ATOM      2  C   UNL     1      -0.179  -4.050  -0.046  0.00  0.00    +0.121 A 
ATOM      3  C   UNL     1       0.931  -4.878   0.044  0.00  0.00    +0.046 A 
ATOM      4  C   UNL     1       0.769  -6.250   0.047  0.00  0.00    +0.005 A 
ATOM      5  C   UNL     1      -0.497  -6.798  -0.040  0.00  0.00    -0.064 A 
ATOM      6  C   UNL     1      -1.605  -5.976  -0.130  0.00  0.00    +0.005 A 
ATOM      7  C   UNL     1      -1.449  -4.603  -0.127  0.00  0.00    +0.046 A 
BRANCH   2   8
ATOM      8  O   UNL     1      -0.023  -2.700  -0.049  0.00  0.00    -0.487 OA
BRANCH   8   9
ATOM      9  C   UNL     1       1.313  -2.201   0.037  0.00  0.00    +0.267 C 
BRANCH   9  14
ATOM     10  C   UNL     1       0.061   1.359  -0.085  0.00  0.00    +0.001 A 
ATOM     11  C   UNL     1       1.244   2.071  -0.011  0.00  0.00    +0.003 A 
ATOM     12  C   UNL     1       2.450   1.403   0.078  0.00  0.00    +0.039 A 
ATOM     13  C   UNL     1       2.474   0.018   0.094  0.00  0.00    +0.130 A 
ATOM     14  C   UNL     1       1.289  -0.695   0.021  0.00  0.00    +0.025 A 
ATOM     15  C   UNL     1       0.084  -0.023  -0.069  0.00  0.00    +0.010 A 
ATOM     16  F   UNL     1       3.652  -0.637   0.181  0.00  0.00    -0.205 F 
ENDBRANCH   9  14
ENDBRANCH   8   9
ENDBRANCH   2   8
ENDBRANCH   1   5
BRANCH   1  17
ATOM     17  N   UNL     1      -0.827  -8.767   1.346  0.00  0.00    +0.386 N 
ATOM     18  H   UNL     1       0.026  -8.598   1.858  0.00  0.00    -0.085 HD
ATOM     19  H   UNL     1      -1.587  -8.271   1.786  0.00  0.00    -0.085 HD
BRANCH  17  20
ATOM     20  C   UNL     1      -1.119 -10.207   1.342  0.00  0.00    -0.039 C 
ATOM     21  C   UNL     1       0.080 -10.962   0.772  0.00  0.00    -0.011 C 
ATOM     22  C   UNL     1      -0.153 -12.462   0.987  0.00  0.00    +0.005 C 
ATOM     23  C   UNL     1      -0.059 -12.751   2.484  0.00  0.00    +0.053 C 
ATOM     24  C   UNL     1      -0.940 -11.809   3.264  0.00  0.00    +0.021 A 
ATOM     25  C   UNL     1      -1.413 -10.657   2.749  0.00  0.00    -0.042 A 
ATOM     26  C   UNL     1      -2.221  -9.819   3.542  0.00  0.00    +0.009 A 
ATOM     27  C   UNL     1      -2.524 -10.178   4.819  0.00  0.00    +0.070 A 
ATOM     28  C   UNL     1      -2.020 -11.389   5.324  0.00  0.00    +0.249 A 
ATOM     29  O   UNL     1      -2.280 -11.732   6.466  0.00  0.00    -0.268 OA
ATOM     30  N   UNL     1      -1.253 -12.166   4.545  0.00  0.00    -0.326 N 
ATOM     31  H   UNL     1      -0.911 -13.002   4.901  0.00  0.00    +0.169 HD
ENDBRANCH  17  20
ENDBRANCH   1  17
TORSDOF 6
