REMARK  Name = ZINC59507903
REMARK  9 active torsions:
REMARK  status: ('A' for Active; 'I' for Inactive)
REMARK    1  A    between atoms: C_1  and  C_2
REMARK    2  A    between atoms: C_5  and  N_8
REMARK    3  A    between atoms: N_8  and  C_9
REMARK    4  A    between atoms: C_9  and  C_10
REMARK    5  A    between atoms: C_10  and  C_11
REMARK    6  A    between atoms: C_11  and  C_12
REMARK    7  A    between atoms: N_14  and  N_15
REMARK    8  A    between atoms: C_16  and  C_17
REMARK    9  A    between atoms: C_16  and  C_18
REMARK                            x       y       z     vdW  Elec       q    Type
REMARK                         _______ _______ _______ _____ _____    ______ ____
ROOT
ATOM      1  C   UNL     1       0.128  -8.661   1.993  0.00  0.00    +0.232 C 
ATOM      2  O   UNL     1       0.127  -9.059   0.847  0.00  0.00    -0.274 OA
ATOM      3  N   UNL     1       0.144  -9.543   3.013  0.00  0.00    -0.207 N 
ATOM      4  H   UNL     1       0.144  -9.224   3.929  0.00  0.00    +0.177 HD
ENDROOT
BRANCH   3   5
ATOM      5  N   UNL     1       0.161 -10.918   2.749  0.00  0.00    -0.185 NA
ATOM      6  C   UNL     1       0.177 -11.767   3.731  0.00  0.00    +0.063 C 
ATOM      7  C   UNL     1       0.178 -11.273   5.154  0.00  0.00    +0.068 C 
BRANCH   6   8
ATOM      8  C   UNL     1       0.195 -13.215   3.453  0.00  0.00    -0.002 A 
ATOM      9  C   UNL     1       0.207 -14.132   4.508  0.00  0.00    +0.011 A 
ATOM     10  C   UNL     1       0.223 -15.485   4.241  0.00  0.00    +0.016 A 
ATOM     11  C   UNL     1       0.228 -15.935   2.932  0.00  0.00    +0.018 A 
ATOM     12  C   UNL     1       0.216 -15.033   1.882  0.00  0.00    +0.016 A 
ATOM     13  C   UNL     1       0.195 -13.677   2.135  0.00  0.00    +0.011 A 
ATOM     14 BR   UNL     1       0.251 -17.793   2.576  0.00  0.00    -0.050 Br
ENDBRANCH   6   8
ENDBRANCH   3   5
BRANCH   1  15
ATOM     15  C   UNL     1       0.109  -7.181   2.277  0.00  0.00    +0.099 C 
BRANCH  15  16
ATOM     16  C   UNL     1       0.093  -6.409   0.956  0.00  0.00    +0.028 C 
BRANCH  16  17
ATOM     17  C   UNL     1       0.074  -4.907   1.244  0.00  0.00    +0.102 C 
BRANCH  17  18
ATOM     18  N   UNL     1       0.058  -4.167  -0.021  0.00  0.00    -0.344 N 
ATOM     19  H   UNL     1       0.060  -4.648  -0.864  0.00  0.00    +0.146 HD
BRANCH  18  24
ATOM     20  C   UNL     1      -0.018   1.503   0.010  0.00  0.00    +0.044 C 
ATOM     21  C   UNL     1       0.002  -0.004   0.002  0.00  0.00    -0.050 A 
ATOM     22  C   UNL     1       0.006  -0.687  -1.200  0.00  0.00    +0.005 A 
ATOM     23  C   UNL     1       0.024  -2.068  -1.212  0.00  0.00    +0.023 A 
ATOM     24  C   UNL     1       0.040  -2.771  -0.013  0.00  0.00    +0.027 A 
ATOM     25  C   UNL     1       0.036  -2.081   1.193  0.00  0.00    +0.023 A 
ATOM     26  C   UNL     1       0.023  -0.700   1.197  0.00  0.00    +0.005 A 
ENDBRANCH  18  24
ENDBRANCH  17  18
ENDBRANCH  16  17
ENDBRANCH  15  16
ENDBRANCH   1  15
TORSDOF 7
