REMARK  Name = ZINC04941919
REMARK  7 active torsions:
REMARK  status: ('A' for Active; 'I' for Inactive)
REMARK    1  A    between atoms: C_1  and  C_2
REMARK    2  A    between atoms: C_2  and  C_3
REMARK    3  A    between atoms: C_4  and  C_8
REMARK    4  A    between atoms: N_10  and  C_11
REMARK    5  A    between atoms: C_12  and  C_20
REMARK    6  A    between atoms: N_22  and  C_23
REMARK    7  A    between atoms: C_23  and  C_24
REMARK                            x       y       z     vdW  Elec       q    Type
REMARK                         _______ _______ _______ _____ _____    ______ ____
ROOT
ATOM      1  C   UNL     1      -3.159  -0.779  -4.323  0.00  0.00    +0.085 A 
ATOM      2  C   UNL     1      -3.780  -1.045  -5.534  0.00  0.00    +0.069 A 
ATOM      3  C   UNL     1      -5.215  -0.831  -5.605  0.00  0.00    -0.023 A 
ATOM      4  C   UNL     1      -5.766  -0.390  -4.454  0.00  0.00    -0.004 A 
ATOM      5  S   UNL     1      -4.411  -0.277  -3.322  0.00  0.00    -0.077 S 
ATOM      6  C   UNL     1      -7.210  -0.077  -4.210  0.00  0.00    +0.043 C 
ATOM      7  C   UNL     1      -7.916   0.030  -5.569  0.00  0.00    +0.005 C 
ATOM      8  C   UNL     1      -7.529  -1.179  -6.426  0.00  0.00    +0.005 C 
ATOM      9  C   UNL     1      -6.062  -1.070  -6.847  0.00  0.00    +0.037 C 
ENDROOT
BRANCH   1  12
ATOM     10  C   UNL     1      -1.383  -0.605  -2.768  0.00  0.00    +0.259 C 
ATOM     11  O   UNL     1      -2.172  -0.224  -1.924  0.00  0.00    -0.269 OA
ATOM     12  N   UNL     1      -1.816  -0.905  -4.008  0.00  0.00    -0.275 N 
ATOM     13  H   UNL     1      -1.187  -1.208  -4.681  0.00  0.00    +0.156 HD
BRANCH  10  15
ATOM     14  C   UNL     1       0.707  -0.490  -1.238  0.00  0.00    +0.084 A 
ATOM     15  C   UNL     1       0.043  -0.738  -2.434  0.00  0.00    +0.117 A 
ATOM     16  S   UNL     1       1.414  -1.265  -3.449  0.00  0.00    +0.041 S 
ATOM     17  N   UNL     1       2.590  -1.127  -2.342  0.00  0.00    -0.110 NA
ATOM     18  N   UNL     1       1.999  -0.708  -1.280  0.00  0.00    -0.145 NA
BRANCH  14  20
ATOM     19  C   UNL     1      -0.019   1.526   0.010  0.00  0.00    +0.010 C 
ATOM     20  C   UNL     1       0.002  -0.004   0.002  0.00  0.00    +0.055 C 
ENDBRANCH  14  20
ENDBRANCH  10  15
ENDBRANCH   1  12
BRANCH   2  21
ATOM     21  C   UNL     1      -3.020  -1.522  -6.693  0.00  0.00    +0.247 C 
ATOM     22  O   UNL     1      -2.868  -2.716  -6.872  0.00  0.00    -0.270 OA
ATOM     23  N   UNL     1      -2.489  -0.637  -7.561  0.00  0.00    -0.309 N 
ATOM     24  H   UNL     1      -2.610   0.314  -7.418  0.00  0.00    +0.149 HD
BRANCH  23  25
ATOM     25  C   UNL     1      -1.729  -1.114  -8.719  0.00  0.00    +0.136 C 
BRANCH  25  26
ATOM     26  C   UNL     1      -1.241   0.084  -9.536  0.00  0.00    +0.135 C 
ATOM     27  C   UNL     1      -0.464  -0.399 -10.787  0.00  0.00    +0.035 C 
ATOM     28  C   UNL     1      -0.642   0.819 -11.734  0.00  0.00    +0.031 C 
ATOM     29  C   UNL     1      -2.055   1.318 -11.362  0.00  0.00    +0.160 C 
ATOM     30  O   UNL     1      -2.358   0.826 -10.050  0.00  0.00    -0.375 OA
ENDBRANCH  25  26
ENDBRANCH  23  25
ENDBRANCH   2  21
TORSDOF 6
