REMARK  Name = ZINC33969756
REMARK  7 active torsions:
REMARK  status: ('A' for Active; 'I' for Inactive)
REMARK    1  A    between atoms: C_1  and  C_2
REMARK    2  A    between atoms: C_2  and  C_4
REMARK    3  A    between atoms: C_4  and  O_31
REMARK    4  A    between atoms: C_9  and  C_30
REMARK    5  A    between atoms: C_27  and  C_28
REMARK    6  A    between atoms: O_31  and  C_32
REMARK    7  A    between atoms: C_32  and  C_34
REMARK                            x       y       z     vdW  Elec       q    Type
REMARK                         _______ _______ _______ _____ _____    ______ ____
ROOT
ATOM      1  C   UNL     1      -0.041  -0.843  -1.256  0.00  0.00    +0.176 C 
ATOM      2  C   UNL     1       1.374  -1.276  -1.685  0.00  0.00    +0.057 C 
ATOM      3  C   UNL     1       1.378  -2.822  -1.693  0.00  0.00    +0.009 C 
ATOM      4  C   UNL     1      -0.109  -3.185  -1.861  0.00  0.00    +0.006 C 
ATOM      5  C   UNL     1      -0.831  -2.149  -0.977  0.00  0.00    +0.018 C 
ATOM      6  C   UNL     1      -0.644  -2.467   0.508  0.00  0.00    +0.011 C 
ATOM      7  C   UNL     1      -1.044  -3.907   0.824  0.00  0.00    +0.005 C 
ATOM      8  C   UNL     1      -0.136  -4.841   0.020  0.00  0.00    +0.007 C 
ATOM      9  C   UNL     1      -0.415  -4.599  -1.441  0.00  0.00    +0.021 C 
ATOM     10  C   UNL     1       0.291  -5.616  -2.277  0.00  0.00    -0.003 C 
ATOM     11  C   UNL     1       0.700  -6.792  -1.803  0.00  0.00    +0.041 C 
ATOM     12  C   UNL     1       0.481  -7.140  -0.388  0.00  0.00    -0.020 C 
ATOM     13  C   UNL     1       1.115  -8.215   0.118  0.00  0.00    +0.052 C 
ATOM     14  C   UNL     1       1.057  -8.584   1.467  0.00  0.00    +0.160 C 
ATOM     15  O   UNL     1       1.575  -9.618   1.838  0.00  0.00    -0.292 OA
ATOM     16  C   UNL     1       0.352  -7.695   2.459  0.00  0.00    +0.064 C 
ATOM     17  C   UNL     1      -1.177  -7.699   2.462  0.00  0.00    +0.016 C 
ATOM     18  C   UNL     1      -0.409  -6.499   1.893  0.00  0.00    +0.011 C 
ATOM     19  C   UNL     1      -0.425  -6.301   0.360  0.00  0.00    +0.001 C 
ATOM     20  C   UNL     1      -1.855  -6.606  -0.093  0.00  0.00    +0.017 C 
ATOM     21 CL   UNL     1       1.493  -7.920  -2.857  0.00  0.00    -0.084 Cl
ATOM     22  C   UNL     1      -2.306  -2.012  -1.359  0.00  0.00    +0.016 C 
ENDROOT
BRANCH   1  24
ATOM     23  C   UNL     1      -1.102   0.926   0.343  0.00  0.00    +0.090 C 
ATOM     24  C   UNL     1       0.031  -0.004  -0.007  0.00  0.00    +0.174 C 
ATOM     25  O   UNL     1       0.997  -0.077   0.715  0.00  0.00    -0.293 OA
ENDBRANCH   1  24
BRANCH   1  26
ATOM     26  O   UNL     1      -0.668  -0.105  -2.307  0.00  0.00    -0.450 OA
BRANCH  26  27
ATOM     27  C   UNL     1      -0.040   1.001  -2.733  0.00  0.00    +0.305 C 
ATOM     28  O   UNL     1       0.956   1.386  -2.169  0.00  0.00    -0.251 OA
ATOM     29  C   UNL     1      -0.578   1.764  -3.917  0.00  0.00    +0.136 C 
ENDBRANCH  26  27
ENDBRANCH   1  26
TORSDOF 3
