REMARK  Name = ZINC16038449
REMARK  9 active torsions:
REMARK  status: ('A' for Active; 'I' for Inactive)
REMARK    1  A    between atoms: C_1  and  C_2
REMARK    2  A    between atoms: C_2  and  C_3
REMARK    3  A    between atoms: C_2  and  C_4
REMARK    4  A    between atoms: C_2  and  C_5
REMARK    5  A    between atoms: C_5  and  C_7
REMARK    6  A    between atoms: C_9  and  C_32
REMARK    7  A    between atoms: C_32  and  C_34
REMARK    8  A    between atoms: C_37  and  O_40
REMARK    9  A    between atoms: O_40  and  C_41
REMARK                            x       y       z     vdW  Elec       q    Type
REMARK                         _______ _______ _______ _____ _____    ______ ____
ROOT
ATOM      1  C   UNL     1       4.046   5.580   0.786  0.00  0.00    +0.153 C 
ATOM      2  C   UNL     1       3.691   4.165   1.325  0.00  0.00    +0.109 C 
ATOM      3  C   UNL     1       3.439   3.320   0.060  0.00  0.00    +0.108 C 
ATOM      4  C   UNL     1       2.095   2.676   0.090  0.00  0.00    -0.008 A 
ATOM      5  C   UNL     1       0.823   3.202   0.157  0.00  0.00    +0.006 A 
ATOM      6  C   UNL     1      -0.235   2.300   0.167  0.00  0.00    +0.000 A 
ATOM      7  C   UNL     1      -0.018   0.938   0.107  0.00  0.00    +0.002 A 
ATOM      8  C   UNL     1       1.257   0.400   0.044  0.00  0.00    +0.023 A 
ATOM      9  C   UNL     1       2.328   1.295   0.033  0.00  0.00    +0.038 A 
ATOM     10  N   UNL     1       3.687   1.038  -0.029  0.00  0.00    -0.284 N 
ATOM     11  C   UNL     1       4.418   2.175  -0.018  0.00  0.00    +0.231 C 
ATOM     12  O   UNL     1       5.627   2.259  -0.062  0.00  0.00    -0.274 OA
ATOM     13  C   UNL     1       3.604   4.288  -1.101  0.00  0.00    +0.117 C 
ATOM     14  N   UNL     1       4.542   5.316  -0.570  0.00  0.00    -0.311 N 
ATOM     15  C   UNL     1       4.623   6.360  -1.460  0.00  0.00    +0.038 A 
ATOM     16  C   UNL     1       4.599   7.689  -1.086  0.00  0.00    +0.024 A 
ATOM     17  C   UNL     1       4.668   8.678  -2.050  0.00  0.00    +0.002 A 
ATOM     18  C   UNL     1       4.763   8.347  -3.391  0.00  0.00    +0.001 A 
ATOM     19  C   UNL     1       4.792   7.023  -3.784  0.00  0.00    +0.010 A 
ATOM     20  C   UNL     1       4.726   6.019  -2.827  0.00  0.00    -0.004 A 
ATOM     21  C   UNL     1       4.760   4.585  -3.200  0.00  0.00    +0.007 C 
ATOM     22  C   UNL     1       4.201   3.708  -2.346  0.00  0.00    -0.003 C 
ATOM     23  H   UNL     1       4.070   0.148  -0.075  0.00  0.00    +0.155 HD
ENDROOT
BRANCH   1  24
ATOM     24  C   UNL     1       5.121   6.216   1.630  0.00  0.00    +0.160 C 
ATOM     25  O   UNL     1       6.285   6.039   1.358  0.00  0.00    -0.295 OA
BRANCH  24  27
ATOM     26  C   UNL     1       6.004   7.709   3.402  0.00  0.00    +0.018 C 
ATOM     27  C   UNL     1       4.745   7.071   2.812  0.00  0.00    +0.022 C 
ATOM     28  C   UNL     1       3.780   8.170   2.360  0.00  0.00    +0.018 C 
ATOM     29  C   UNL     1       4.067   6.203   3.874  0.00  0.00    +0.018 C 
ENDBRANCH  24  27
ENDBRANCH   1  24
BRANCH   2  30
ATOM     30  C   UNL     1       2.448   4.223   2.175  0.00  0.00    +0.170 C 
ATOM     31  O   UNL     1       1.638   5.110   2.006  0.00  0.00    -0.292 OA
BRANCH  30  32
ATOM     32  C   UNL     1       2.218   3.206   3.209  0.00  0.00    +0.018 A 
ATOM     33  C   UNL     1       3.199   2.244   3.480  0.00  0.00    +0.015 A 
ATOM     34  C   UNL     1       2.981   1.300   4.450  0.00  0.00    +0.046 A 
ATOM     35  C   UNL     1       1.783   1.290   5.157  0.00  0.00    +0.120 A 
ATOM     36  C   UNL     1       0.803   2.239   4.887  0.00  0.00    +0.046 A 
ATOM     37  C   UNL     1       1.013   3.191   3.923  0.00  0.00    +0.015 A 
BRANCH  35  38
ATOM     38  O   UNL     1       1.570   0.350   6.112  0.00  0.00    -0.495 OA
ATOM     39  C   UNL     1       2.618  -0.595   6.337  0.00  0.00    +0.277 C 
ENDBRANCH  35  38
ENDBRANCH  30  32
ENDBRANCH   2  30
TORSDOF 5
