REMARK  Name = ZINC55621743
REMARK  6 active torsions:
REMARK  status: ('A' for Active; 'I' for Inactive)
REMARK    1  A    between atoms: C_4  and  S_10
REMARK    2  A    between atoms: C_5  and  N_7
REMARK    3  A    between atoms: S_10  and  N_13
REMARK    4  A    between atoms: N_13  and  C_14
REMARK    5  A    between atoms: N_13  and  C_20
REMARK    6  A    between atoms: C_14  and  C_15
REMARK                            x       y       z     vdW  Elec       q    Type
REMARK                         _______ _______ _______ _____ _____    ______ ____
ROOT
ATOM      1  N   UNL     1       3.882  -1.812   1.249  0.00  0.00    -0.196 N 
ENDROOT
BRANCH   1   2
ATOM      2  C   UNL     1       4.411  -1.427   2.483  0.00  0.00    +0.054 A 
ATOM      3  C   UNL     1       5.201  -0.288   2.577  0.00  0.00    +0.025 A 
ATOM      4  C   UNL     1       5.722   0.092   3.798  0.00  0.00    +0.005 A 
ATOM      5  C   UNL     1       5.459  -0.660   4.928  0.00  0.00    +0.038 A 
ATOM      6  C   UNL     1       4.672  -1.796   4.840  0.00  0.00    +0.125 A 
ATOM      7  C   UNL     1       4.143  -2.178   3.620  0.00  0.00    +0.063 A 
ATOM      8  F   UNL     1       4.417  -2.528   5.946  0.00  0.00    -0.205 F 
ENDBRANCH   1   2
BRANCH   1   9
ATOM      9  S   UNL     1       3.645  -0.684   0.061  0.00  0.00    +0.077 S 
ATOM     10  O   UNL     1       3.465   0.564   0.716  0.00  0.00    -0.150 OA
ATOM     11  O   UNL     1       2.675  -1.225  -0.826  0.00  0.00    -0.150 OA
BRANCH   9  15
ATOM     12  C   UNL     1       7.506  -0.373  -2.281  0.00  0.00    +0.002 A 
ATOM     13  C   UNL     1       7.484  -1.041  -1.071  0.00  0.00    +0.002 A 
ATOM     14  C   UNL     1       6.305  -1.136  -0.356  0.00  0.00    +0.031 A 
ATOM     15  C   UNL     1       5.148  -0.562  -0.850  0.00  0.00    +0.139 A 
ATOM     16  C   UNL     1       5.171   0.107  -2.059  0.00  0.00    +0.153 A 
ATOM     17  C   UNL     1       6.350   0.200  -2.776  0.00  0.00    +0.035 A 
BRANCH  16  18
ATOM     18  N   UNL     1       3.933   0.721  -2.590  0.00  0.00    +0.058 N 
ATOM     19  O   UNL     1       3.922   1.198  -3.700  0.00  0.00    -0.126 OA
ATOM     20  O   UNL     1       2.932   0.744  -1.912  0.00  0.00    -0.126 OA
ENDBRANCH  16  18
ENDBRANCH   9  15
ENDBRANCH   1   9
BRANCH   1  21
ATOM     21  C   UNL     1       3.538  -3.216   1.006  0.00  0.00    +0.205 C 
BRANCH  21  22
ATOM     22  C   UNL     1       4.773  -3.970   0.584  0.00  0.00    +0.124 A 
ATOM     23  C   UNL     1       5.628  -4.601   1.408  0.00  0.00    +0.046 A 
ATOM     24  C   UNL     1       6.635  -5.171   0.595  0.00  0.00    +0.041 A 
ATOM     25  C   UNL     1       6.335  -4.853  -0.677  0.00  0.00    +0.195 A 
ATOM     26  O   UNL     1       5.203  -4.130  -0.678  0.00  0.00    -0.466 OA
ENDBRANCH  21  22
ENDBRANCH   1  21
TORSDOF 6
