REMARK  Name = ZINC47582167
REMARK  6 active torsions:
REMARK  status: ('A' for Active; 'I' for Inactive)
REMARK    1  A    between atoms: C_1  and  N_2
REMARK    2  A    between atoms: N_2  and  C_3
REMARK    3  A    between atoms: C_6  and  C_10
REMARK    4  A    between atoms: C_10  and  N_11
REMARK    5  A    between atoms: C_12  and  C_14
REMARK    6  A    between atoms: C_15  and  C_16
REMARK                            x       y       z     vdW  Elec       q    Type
REMARK                         _______ _______ _______ _____ _____    ______ ____
ROOT
ATOM      1  N   UNL     1      -1.351  -4.764  -2.463  0.00  0.00    -0.308 N 
ATOM      2  C   UNL     1      -1.585  -6.091  -2.499  0.00  0.00    +0.237 C 
ATOM      3  O   UNL     1      -0.652  -6.872  -2.529  0.00  0.00    -0.271 OA
ATOM      4  H   UNL     1      -2.094  -4.141  -2.439  0.00  0.00    +0.149 HD
ENDROOT
BRANCH   2   5
ATOM      5  C   UNL     1      -2.959  -6.592  -2.503  0.00  0.00    +0.068 C 
ATOM      6  C   UNL     1      -3.192  -7.921  -2.540  0.00  0.00    +0.013 C 
BRANCH   6   7
ATOM      7  C   UNL     1      -4.574  -8.424  -2.545  0.00  0.00    -0.020 A 
ATOM      8  C   UNL     1      -4.819  -9.801  -2.577  0.00  0.00    +0.057 A 
ATOM      9  C   UNL     1      -6.119 -10.271  -2.580  0.00  0.00    +0.164 A 
ATOM     10  C   UNL     1      -7.184  -9.373  -2.549  0.00  0.00    +0.180 A 
ATOM     11  C   UNL     1      -6.941  -8.004  -2.519  0.00  0.00    +0.087 A 
ATOM     12  C   UNL     1      -5.648  -7.528  -2.510  0.00  0.00    +0.031 A 
ATOM     13 CL   UNL     1      -8.272  -6.891  -2.485  0.00  0.00    -0.080 Cl
ATOM     14  O   UNL     1      -8.469  -9.820  -2.544  0.00  0.00    -0.483 OA
ATOM     15  C   UNL     1      -8.681 -11.176  -2.951  0.00  0.00    +0.270 C 
ATOM     16  C   UNL     1      -7.648 -12.060  -2.239  0.00  0.00    +0.270 C 
ATOM     17  O   UNL     1      -6.341 -11.614  -2.615  0.00  0.00    -0.485 OA
ENDBRANCH   6   7
ENDBRANCH   2   5
BRANCH   1  18
ATOM     18  C   UNL     1       0.025  -4.262  -2.458  0.00  0.00    +0.140 C 
BRANCH  18  24
ATOM     19  C   UNL     1      -0.018   1.461   0.010  0.00  0.00    +0.130 C 
ATOM     20  N   UNL     1       0.002  -0.004   0.002  0.00  0.00    -0.323 N 
ATOM     21  C   UNL     1       0.024  -0.743   1.267  0.00  0.00    +0.130 C 
ATOM     22  C   UNL     1       0.000  -0.693  -1.206  0.00  0.00    +0.098 A 
ATOM     23  C   UNL     1       0.013  -2.084  -1.206  0.00  0.00    +0.047 A 
ATOM     24  C   UNL     1       0.011  -2.756  -2.415  0.00  0.00    -0.026 A 
ATOM     25  C   UNL     1      -0.004  -2.012  -3.587  0.00  0.00    +0.023 A 
ATOM     26  C   UNL     1      -0.017  -0.633  -3.513  0.00  0.00    +0.084 A 
ATOM     27  N   UNL     1      -0.020  -0.019  -2.345  0.00  0.00    -0.350 N 
ATOM     28  H   UNL     1      -0.033   0.951  -2.321  0.00  0.00    +0.166 HD
ENDBRANCH  18  24
ENDBRANCH   1  18
TORSDOF 4
