REMARK  Name = ZINC66144817
REMARK  7 active torsions:
REMARK  status: ('A' for Active; 'I' for Inactive)
REMARK    1  A    between atoms: C_1  and  C_2
REMARK    2  A    between atoms: C_6  and  C_8
REMARK    3  A    between atoms: N_10  and  N_11
REMARK    4  A    between atoms: N_11  and  C_12
REMARK    5  A    between atoms: C_12  and  N_14
REMARK    6  A    between atoms: N_14  and  C_15
REMARK    7  A    between atoms: C_21  and  C_23
REMARK                            x       y       z     vdW  Elec       q    Type
REMARK                         _______ _______ _______ _____ _____    ______ ____
ROOT
ATOM      1  N   UNL     1       0.066  -2.890   4.838  0.00  0.00    -0.246 N 
ATOM      2  H   UNL     1       0.079  -3.860   4.830  0.00  0.00    +0.172 HD
ENDROOT
BRANCH   1   5
ATOM      3  C   UNL     1       0.053  -2.843   2.458  0.00  0.00    +0.263 C 
ATOM      4  O   UNL     1       0.070  -4.059   2.447  0.00  0.00    -0.269 OA
ATOM      5  N   UNL     1       0.050  -2.179   3.631  0.00  0.00    -0.231 N 
ATOM      6  H   UNL     1       0.037  -1.210   3.639  0.00  0.00    +0.173 HD
BRANCH   3  12
ATOM      7  C   UNL     1      -0.018   1.503   0.010  0.00  0.00    +0.044 C 
ATOM      8  C   UNL     1       0.002  -0.004   0.002  0.00  0.00    -0.050 A 
ATOM      9  C   UNL     1       0.006  -0.688  -1.202  0.00  0.00    +0.006 A 
ATOM     10  C   UNL     1       0.024  -2.069  -1.221  0.00  0.00    +0.039 A 
ATOM     11  C   UNL     1       0.040  -2.779  -0.034  0.00  0.00    +0.136 A 
ATOM     12  C   UNL     1       0.037  -2.094   1.185  0.00  0.00    +0.074 A 
ATOM     13  C   UNL     1       0.023  -0.697   1.193  0.00  0.00    +0.019 A 
ATOM     14  F   UNL     1       0.058  -4.130  -0.052  0.00  0.00    -0.205 F 
ENDBRANCH   3  12
ENDBRANCH   1   5
BRANCH   1  15
ATOM     15  C   UNL     1       0.063  -2.226   6.011  0.00  0.00    +0.147 C 
ATOM     16  S   UNL     1       0.082  -3.095   7.486  0.00  0.00    -0.017 S 
BRANCH  15  17
ATOM     17  N   UNL     1       0.045  -0.879   6.023  0.00  0.00    -0.322 N 
ATOM     18  H   UNL     1       0.034  -0.387   5.187  0.00  0.00    +0.148 HD
BRANCH  17  19
ATOM     19  C   UNL     1       0.041  -0.157   7.298  0.00  0.00    +0.075 C 
ATOM     20  C   UNL     1      -1.395  -0.035   7.811  0.00  0.00    +0.022 C 
ATOM     21  C   UNL     1      -2.238   0.731   6.789  0.00  0.00    +0.002 C 
ATOM     22  C   UNL     1      -1.648   2.128   6.586  0.00  0.00    +0.000 C 
ATOM     23  C   UNL     1      -0.212   2.006   6.073  0.00  0.00    +0.005 C 
ATOM     24  C   UNL     1       0.631   1.240   7.095  0.00  0.00    +0.006 C 
ATOM     25  C   UNL     1       2.067   1.117   6.582  0.00  0.00    +0.009 C 
ENDBRANCH  17  19
ENDBRANCH  15  17
ENDBRANCH   1  15
TORSDOF 5
