REMARK  Name = ZINC14018405
REMARK  3 active torsions:
REMARK  status: ('A' for Active; 'I' for Inactive)
REMARK    1  A    between atoms: C_16  and  C_18
REMARK    2  A    between atoms: N_23  and  S_25
REMARK    3  A    between atoms: S_25  and  C_28
REMARK                            x       y       z     vdW  Elec       q    Type
REMARK                         _______ _______ _______ _____ _____    ______ ____
ROOT
ATOM      1  C   UNL     1      -0.321   6.341 -11.023  0.00  0.00    +0.004 A 
ATOM      2  C   UNL     1       0.871   5.642 -10.899  0.00  0.00    +0.040 A 
ATOM      3  C   UNL     1       1.047   4.693  -9.923  0.00  0.00    +0.150 A 
ATOM      4  C   UNL     1       0.009   4.397  -9.008  0.00  0.00    +0.115 A 
ATOM      5  C   UNL     1      -1.190   5.128  -9.165  0.00  0.00    +0.044 A 
ATOM      6  C   UNL     1      -1.356   6.076 -10.145  0.00  0.00    +0.017 A 
ATOM      7  S   UNL     1      -2.205   4.478  -7.861  0.00  0.00    -0.052 S 
ATOM      8  C   UNL     1      -1.016   3.315  -7.208  0.00  0.00    +0.162 A 
ATOM      9  N   UNL     1       0.021   3.504  -7.993  0.00  0.00    -0.222 NA
ATOM     10  N   UNL     1      -1.149   2.443  -6.146  0.00  0.00    -0.307 N 
ATOM     11  C   UNL     1       0.079   1.662  -5.948  0.00  0.00    +0.126 C 
ATOM     12  C   UNL     1      -0.170   0.586  -4.885  0.00  0.00    +0.126 C 
ATOM     13  N   UNL     1      -0.695   1.238  -3.675  0.00  0.00    -0.298 N 
ATOM     14  C   UNL     1      -1.847   2.142  -3.815  0.00  0.00    +0.126 C 
ATOM     15  C   UNL     1      -1.528   3.160  -4.921  0.00  0.00    +0.126 C 
ATOM     16  C   UNL     1      -0.138   1.008  -2.469  0.00  0.00    +0.220 C 
ATOM     17  O   UNL     1       0.858   0.322  -2.382  0.00  0.00    -0.275 OA
ATOM     18  F   UNL     1       2.223   4.035  -9.835  0.00  0.00    -0.203 F 
ENDROOT
BRANCH  16  19
ATOM     19  C   UNL     1      -0.753   1.605  -1.230  0.00  0.00    +0.091 C 
ATOM     20  C   UNL     1      -1.912   0.722  -0.759  0.00  0.00    +0.015 C 
ATOM     21  C   UNL     1      -2.558   1.343   0.480  0.00  0.00    +0.018 C 
ATOM     22  C   UNL     1      -1.523   1.422   1.607  0.00  0.00    +0.109 C 
ATOM     23  N   UNL     1      -0.340   2.148   1.115  0.00  0.00    -0.176 NA
ATOM     24  C   UNL     1       0.303   1.686  -0.123  0.00  0.00    +0.122 C 
BRANCH  23  25
ATOM     25  S   UNL     1       0.253   3.458   1.936  0.00  0.00    +0.061 S 
ATOM     26  O   UNL     1      -0.172   3.319   3.284  0.00  0.00    -0.153 OA
ATOM     27  O   UNL     1       1.623   3.576   1.577  0.00  0.00    -0.153 OA
BRANCH  25  28
ATOM     28  C   UNL     1      -0.560   4.885   1.297  0.00  0.00    +0.106 A 
ATOM     29  C   UNL     1      -0.013   5.571   0.229  0.00  0.00    +0.030 A 
ATOM     30  C   UNL     1      -0.654   6.687  -0.277  0.00  0.00    +0.022 A 
ATOM     31  C   UNL     1      -1.836   7.124   0.294  0.00  0.00    +0.041 A 
ATOM     32  C   UNL     1      -2.380   6.439   1.366  0.00  0.00    +0.022 A 
ATOM     33  C   UNL     1      -1.742   5.320   1.867  0.00  0.00    +0.030 A 
ATOM     34 CL   UNL     1      -2.637   8.530  -0.336  0.00  0.00    -0.084 Cl
ENDBRANCH  25  28
ENDBRANCH  23  25
ENDBRANCH  16  19
TORSDOF 3
