REMARK  Name = ZINC21258303
REMARK  9 active torsions:
REMARK  status: ('A' for Active; 'I' for Inactive)
REMARK    1  A    between atoms: C_1  and  C_2
REMARK    2  A    between atoms: C_2  and  C_3
REMARK    3  A    between atoms: C_2  and  O_4
REMARK    4  A    between atoms: O_4  and  C_5
REMARK    5  A    between atoms: C_8  and  C_13
REMARK    6  A    between atoms: C_10  and  O_11
REMARK    7  A    between atoms: O_11  and  C_12
REMARK    8  A    between atoms: C_18  and  C_28
REMARK    9  A    between atoms: C_32  and  N_34
REMARK                            x       y       z     vdW  Elec       q    Type
REMARK                         _______ _______ _______ _____ _____    ______ ____
ROOT
ATOM      1  C   UNL     1      -3.194   0.157  -0.121  0.00  0.00    +0.032 C 
ATOM      2  C   UNL     1      -2.934  -0.562  -1.444  0.00  0.00    +0.059 C 
ATOM      3  C   UNL     1      -4.237  -1.123  -1.990  0.00  0.00    +0.017 C 
ATOM      4  C   UNL     1      -5.192  -1.560  -1.153  0.00  0.00    +0.036 C 
ATOM      5  C   UNL     1      -6.513  -2.171  -1.557  0.00  0.00    +0.136 C 
ATOM      6  N   UNL     1      -6.833  -2.031  -2.961  0.00  0.00    -0.331 N 
ATOM      7  C   UNL     1      -6.057  -2.647  -3.942  0.00  0.00    +0.049 A 
ATOM      8  C   UNL     1      -6.555  -3.689  -4.708  0.00  0.00    +0.025 A 
ATOM      9  C   UNL     1      -5.715  -4.342  -5.594  0.00  0.00    +0.002 A 
ATOM     10  C   UNL     1      -4.392  -3.960  -5.716  0.00  0.00    +0.002 A 
ATOM     11  C   UNL     1      -3.897  -2.906  -4.967  0.00  0.00    +0.025 A 
ATOM     12  C   UNL     1      -4.740  -2.240  -4.093  0.00  0.00    +0.052 A 
ATOM     13  N   UNL     1      -4.320  -1.147  -3.345  0.00  0.00    -0.316 N 
ATOM     14  C   UNL     1      -5.011  -1.465   0.247  0.00  0.00    +0.163 C 
ATOM     15  O   UNL     1      -5.884  -1.886   0.980  0.00  0.00    -0.292 OA
ATOM     16  C   UNL     1      -3.780  -0.866   0.859  0.00  0.00    +0.088 C 
ATOM     17  H   UNL     1      -7.701  -1.430  -3.270  0.00  0.00    +0.147 HD
ATOM     18  H   UNL     1      -4.045  -0.256  -3.928  0.00  0.00    +0.152 HD
ENDROOT
BRANCH   1  22
ATOM     19  C   UNL     1       0.482   1.703   1.424  0.00  0.00    +0.162 A 
ATOM     20  C   UNL     1       0.347   0.346   1.178  0.00  0.00    +0.050 A 
ATOM     21  C   UNL     1      -0.844  -0.151   0.682  0.00  0.00    +0.008 A 
ATOM     22  C   UNL     1      -1.900   0.704   0.425  0.00  0.00    -0.040 A 
ATOM     23  C   UNL     1      -1.773   2.058   0.673  0.00  0.00    +0.053 A 
ATOM     24  C   UNL     1      -0.583   2.562   1.171  0.00  0.00    +0.162 A 
BRANCH  24  25
ATOM     25  O   UNL     1      -0.455   3.895   1.411  0.00  0.00    -0.491 OA
ATOM     26  C   UNL     1      -1.589   4.717   1.127  0.00  0.00    +0.277 C 
ENDBRANCH  24  25
BRANCH  19  27
ATOM     27  O   UNL     1       1.653   2.194   1.912  0.00  0.00    -0.486 OA
BRANCH  27  29
ATOM     28  C   UNL     1       3.475   0.882   1.018  0.00  0.00    +0.051 C 
ATOM     29  C   UNL     1       2.660   1.242   2.262  0.00  0.00    +0.167 C 
ATOM     30  C   UNL     1       3.585   1.844   3.321  0.00  0.00    +0.051 C 
ENDBRANCH  27  29
ENDBRANCH  19  27
ENDBRANCH   1  22
BRANCH   5  31
ATOM     31  C   UNL     1      -6.484  -3.639  -1.217  0.00  0.00    -0.021 A 
ATOM     32  C   UNL     1      -5.574  -4.474  -1.836  0.00  0.00    +0.006 A 
ATOM     33  C   UNL     1      -5.547  -5.821  -1.525  0.00  0.00    +0.003 A 
ATOM     34  C   UNL     1      -6.431  -6.332  -0.593  0.00  0.00    +0.033 A 
ATOM     35  C   UNL     1      -7.341  -5.496   0.028  0.00  0.00    +0.127 A 
ATOM     36  C   UNL     1      -7.365  -4.149  -0.281  0.00  0.00    +0.038 A 
BRANCH  35  37
ATOM     37  N   UNL     1      -8.287  -6.044   1.026  0.00  0.00    +0.056 N 
ATOM     38  O   UNL     1      -8.264  -7.230   1.300  0.00  0.00    -0.126 OA
ATOM     39  O   UNL     1      -9.089  -5.308   1.573  0.00  0.00    -0.126 OA
ENDBRANCH  35  37
ENDBRANCH   5  31
TORSDOF 6
