REMARK  Name = ZINC12304876
REMARK  7 active torsions:
REMARK  status: ('A' for Active; 'I' for Inactive)
REMARK    1  A    between atoms: C_1  and  C_2
REMARK    2  A    between atoms: C_7  and  N_8
REMARK    3  A    between atoms: N_11  and  C_14
REMARK    4  A    between atoms: C_15  and  C_19
REMARK    5  A    between atoms: C_19  and  N_57
REMARK    6  A    between atoms: C_20  and  C_21
REMARK    7  A    between atoms: C_20  and  N_57
REMARK                            x       y       z     vdW  Elec       q    Type
REMARK                         _______ _______ _______ _____ _____    ______ ____
ROOT
ATOM      1  C   UNL     1       2.727  -0.144   1.252  0.00  0.00    +0.100 A 
ATOM      2  C   UNL     1       2.277   1.170   1.168  0.00  0.00    -0.026 A 
ATOM      3  C   UNL     1       2.325   1.971   2.294  0.00  0.00    +0.006 A 
ATOM      4  C   UNL     1       2.814   1.427   3.474  0.00  0.00    +0.018 A 
ATOM      5  C   UNL     1       3.243   0.115   3.487  0.00  0.00    +0.084 A 
ATOM      6  N   UNL     1       3.215  -0.700   2.398  0.00  0.00    -0.349 N 
ATOM      7  H   UNL     1       3.542  -1.673   2.437  0.00  0.00    +0.167 HD
ENDROOT
BRANCH   1  11
ATOM      8  N   UNL     1       3.148  -3.354  -1.342  0.00  0.00    -0.327 N 
ATOM      9  C   UNL     1       3.963  -2.156  -1.587  0.00  0.00    +0.124 C 
ATOM     10  C   UNL     1       4.045  -1.327  -0.303  0.00  0.00    +0.125 C 
ATOM     11  N   UNL     1       2.688  -0.959   0.127  0.00  0.00    -0.314 N 
ATOM     12  C   UNL     1       1.873  -2.157   0.372  0.00  0.00    +0.125 C 
ATOM     13  C   UNL     1       1.792  -2.986  -0.912  0.00  0.00    +0.124 C 
BRANCH   8  20
ATOM     14  C   UNL     1       4.142  -6.009  -1.110  0.00  0.00    +0.045 C 
ATOM     15  C   UNL     1       3.585  -5.476  -2.405  0.00  0.00    -0.029 A 
ATOM     16  C   UNL     1       3.545  -6.284  -3.525  0.00  0.00    +0.005 A 
ATOM     17  C   UNL     1       3.032  -5.796  -4.713  0.00  0.00    +0.000 A 
ATOM     18  C   UNL     1       2.558  -4.498  -4.784  0.00  0.00    +0.002 A 
ATOM     19  C   UNL     1       2.591  -3.688  -3.667  0.00  0.00    +0.023 A 
ATOM     20  C   UNL     1       3.110  -4.173  -2.473  0.00  0.00    +0.033 A 
ENDBRANCH   8  20
ENDBRANCH   1  11
BRANCH   2  21
ATOM     21  C   UNL     1       1.750   1.714  -0.135  0.00  0.00    -0.043 C 
BRANCH  21  22
ATOM     22  N   UNL     1       0.370   1.233  -0.337  0.00  0.00    +0.382 N 
ATOM     23  H   UNL     1      -0.200   1.486   0.478  0.00  0.00    -0.085 HD
ATOM     24  H   UNL     1       0.380   0.212  -0.444  0.00  0.00    -0.085 HD
BRANCH  22  25
ATOM     25  C   UNL     1      -0.213   1.843  -1.547  0.00  0.00    -0.076 C 
BRANCH  25  26
ATOM     26  C   UNL     1      -1.641   1.326  -1.731  0.00  0.00    -0.000 C 
ATOM     27  C   UNL     1      -2.256   1.885  -3.037  0.00  0.00    +0.032 C 
ATOM     28  C   UNL     1      -3.709   2.208  -2.596  0.00  0.00    +0.160 C 
ATOM     29  O   UNL     1      -3.554   2.691  -1.244  0.00  0.00    -0.380 OA
ATOM     30  C   UNL     1      -2.558   1.866  -0.616  0.00  0.00    +0.161 C 
ENDBRANCH  25  26
ENDBRANCH  22  25
ENDBRANCH  21  22
ENDBRANCH   2  21
TORSDOF 6
