REMARK  Name = ZINC34761972
REMARK  11 active torsions:
REMARK  status: ('A' for Active; 'I' for Inactive)
REMARK    1  A    between atoms: C_1  and  C_2
REMARK    2  A    between atoms: C_2  and  C_3
REMARK    3  A    between atoms: C_4  and  C_34
REMARK    4  A    between atoms: C_8  and  N_22
REMARK    5  A    between atoms: C_10  and  S_12
REMARK    6  A    between atoms: S_12  and  C_13
REMARK    7  A    between atoms: C_13  and  C_14
REMARK    8  A    between atoms: C_17  and  C_21
REMARK    9  A    between atoms: C_19  and  C_20
REMARK   10  A    between atoms: N_25  and  C_28
REMARK   11  A    between atoms: C_28  and  C_29
REMARK                            x       y       z     vdW  Elec       q    Type
REMARK                         _______ _______ _______ _____ _____    ______ ____
ROOT
ATOM      1  C   UNL     1       0.576  -0.597  -1.264  0.00  0.00    -0.025 A 
ATOM      2  C   UNL     1      -0.199  -0.768  -2.344  0.00  0.00    -0.007 A 
ATOM      3  S   UNL     1       0.944  -1.326  -3.594  0.00  0.00    -0.073 S 
ATOM      4  C   UNL     1       2.433  -1.314  -2.631  0.00  0.00    +0.115 A 
ATOM      5  C   UNL     1       2.001  -0.870  -1.362  0.00  0.00    +0.051 A 
ATOM      6  C   UNL     1       3.016  -0.760  -0.372  0.00  0.00    +0.134 A 
ATOM      7  N   UNL     1       4.264  -1.066  -0.688  0.00  0.00    -0.206 NA
ATOM      8  C   UNL     1       4.604  -1.473  -1.905  0.00  0.00    +0.191 A 
ATOM      9  N   UNL     1       3.698  -1.603  -2.865  0.00  0.00    -0.215 NA
ATOM     10  C   UNL     1      -1.684  -0.543  -2.472  0.00  0.00    +0.052 C 
ENDROOT
BRANCH   6  11
ATOM     11  N   UNL     1       2.703  -0.339   0.907  0.00  0.00    -0.318 N 
ATOM     12  C   UNL     1       2.385  -1.309   1.966  0.00  0.00    +0.088 C 
ATOM     13  C   UNL     1       3.238  -0.982   3.196  0.00  0.00    -0.059 C 
ATOM     14  N   UNL     1       3.030   0.421   3.576  0.00  0.00    +0.387 N 
ATOM     15  C   UNL     1       3.518   1.306   2.511  0.00  0.00    -0.059 C 
ATOM     16  C   UNL     1       2.683   1.092   1.248  0.00  0.00    +0.088 C 
ATOM     17  H   UNL     1       2.045   0.586   3.724  0.00  0.00    -0.081 HD
BRANCH  14  18
ATOM     18  C   UNL     1       3.762   0.704   4.818  0.00  0.00    +0.019 C 
BRANCH  18  19
ATOM     19  C   UNL     1       3.452   2.105   5.276  0.00  0.00    +0.199 C 
ATOM     20  O   UNL     1       2.695   2.801   4.632  0.00  0.00    -0.278 OA
ATOM     21  N   UNL     1       4.015   2.587   6.402  0.00  0.00    -0.300 N 
ATOM     22  C   UNL     1       4.908   2.371   7.543  0.00  0.00    +0.126 C 
ATOM     23  C   UNL     1       4.170   3.697   7.346  0.00  0.00    +0.126 C 
ENDBRANCH  18  19
ENDBRANCH  14  18
ENDBRANCH   6  11
BRANCH   1  25
ATOM     24  C   UNL     1      -0.119   1.406   0.022  0.00  0.00    +0.009 C 
ATOM     25  C   UNL     1      -0.021  -0.121   0.035  0.00  0.00    +0.033 C 
ENDBRANCH   1  25
BRANCH   8  26
ATOM     26  S   UNL     1       6.288  -1.861  -2.247  0.00  0.00    -0.081 S 
BRANCH  26  27
ATOM     27  C   UNL     1       6.278  -2.360  -3.991  0.00  0.00    +0.112 C 
BRANCH  27  28
ATOM     28  C   UNL     1       7.677  -2.723  -4.418  0.00  0.00    -0.034 A 
ATOM     29  C   UNL     1       8.516  -1.753  -4.934  0.00  0.00    +0.005 A 
ATOM     30  C   UNL     1       9.799  -2.087  -5.326  0.00  0.00    +0.003 A 
ATOM     31  C   UNL     1      10.243  -3.390  -5.201  0.00  0.00    -0.050 A 
ATOM     32  C   UNL     1       9.405  -4.359  -4.684  0.00  0.00    +0.007 A 
ATOM     33  C   UNL     1       8.123  -4.025  -4.288  0.00  0.00    -0.046 A 
ATOM     34  C   UNL     1       7.211  -5.081  -3.719  0.00  0.00    +0.044 C 
ATOM     35  C   UNL     1      11.642  -3.753  -5.628  0.00  0.00    +0.044 C 
ENDBRANCH  27  28
ENDBRANCH  26  27
ENDBRANCH   8  26
TORSDOF 7
