REMARK  Name = ZINC39991336
REMARK  7 active torsions:
REMARK  status: ('A' for Active; 'I' for Inactive)
REMARK    1  A    between atoms: C_4  and  C_7
REMARK    2  A    between atoms: C_7  and  C_8
REMARK    3  A    between atoms: C_11  and  S_14
REMARK    4  A    between atoms: S_14  and  C_15
REMARK    5  A    between atoms: C_15  and  C_16
REMARK    6  A    between atoms: C_16  and  C_18
REMARK    7  A    between atoms: C_26  and  C_28
REMARK                            x       y       z     vdW  Elec       q    Type
REMARK                         _______ _______ _______ _____ _____    ______ ____
ROOT
ATOM      1  C   UNL     1       7.883   1.744   3.386  0.00  0.00    +0.172 C 
ATOM      2  O   UNL     1       8.747   1.281   4.102  0.00  0.00    -0.291 OA
ENDROOT
BRANCH   1   3
ATOM      3  C   UNL     1       7.977   3.078   2.938  0.00  0.00    +0.031 C 
ATOM      4  C   UNL     1       7.082   3.755   2.129  0.00  0.00    +0.007 A 
ATOM      5  C   UNL     1       5.862   3.378   1.519  0.00  0.00    +0.010 A 
ATOM      6  C   UNL     1       5.178   4.263   0.760  0.00  0.00    +0.001 A 
ATOM      7  C   UNL     1       5.629   5.575   0.541  0.00  0.00    +0.002 A 
ATOM      8  C   UNL     1       6.780   6.034   1.077  0.00  0.00    +0.026 A 
ATOM      9  C   UNL     1       7.587   5.133   1.917  0.00  0.00    +0.044 A 
ATOM     10  N   UNL     1       8.714   5.308   2.546  0.00  0.00    -0.373 N 
ATOM     11  C   UNL     1       9.076   4.072   3.246  0.00  0.00    +0.144 C 
ATOM     12  H   UNL     1       9.231   6.129   2.554  0.00  0.00    +0.161 HD
BRANCH  11  13
ATOM     13  C   UNL     1       9.152   4.316   4.731  0.00  0.00    -0.021 A 
ATOM     14  C   UNL     1       8.256   5.176   5.337  0.00  0.00    +0.006 A 
ATOM     15  C   UNL     1       8.325   5.401   6.699  0.00  0.00    +0.000 A 
ATOM     16  C   UNL     1       9.291   4.764   7.456  0.00  0.00    +0.000 A 
ATOM     17  C   UNL     1      10.187   3.903   6.851  0.00  0.00    +0.000 A 
ATOM     18  C   UNL     1      10.115   3.675   5.489  0.00  0.00    +0.006 A 
ENDBRANCH  11  13
ENDBRANCH   1   3
BRANCH   1  19
ATOM     19  C   UNL     1       6.708   0.893   2.977  0.00  0.00    +0.153 C 
BRANCH  19  20
ATOM     20  S   UNL     1       6.874  -0.759   3.708  0.00  0.00    -0.088 S 
BRANCH  20  24
ATOM     21  C   UNL     1       4.164  -0.959   1.377  0.00  0.00    +0.212 C 
ATOM     22  N   UNL     1       3.502  -0.594   2.412  0.00  0.00    -0.150 NA
ATOM     23  N   UNL     1       4.176  -0.969   3.584  0.00  0.00    -0.219 N 
ATOM     24  C   UNL     1       5.403  -1.646   3.127  0.00  0.00    +0.339 C 
ATOM     25  O   UNL     1       5.312  -1.601   1.695  0.00  0.00    -0.446 OA
ATOM     26  H   UNL     1       3.896  -0.814   4.499  0.00  0.00    +0.173 HD
BRANCH  21  27
ATOM     27  C   UNL     1       3.711  -0.707  -0.038  0.00  0.00    +0.132 C 
BRANCH  27  31
ATOM     28  C   UNL     1      -0.017   1.378   0.010  0.00  0.00    +0.000 A 
ATOM     29  C   UNL     1       1.171   2.086   0.002  0.00  0.00    +0.000 A 
ATOM     30  C   UNL     1       2.377   1.411  -0.013  0.00  0.00    +0.004 A 
ATOM     31  C   UNL     1       2.396   0.029  -0.020  0.00  0.00    -0.038 A 
ATOM     32  C   UNL     1       1.208  -0.679  -0.012  0.00  0.00    +0.004 A 
ATOM     33  C   UNL     1       0.002  -0.004   0.002  0.00  0.00    +0.000 A 
ENDBRANCH  27  31
ENDBRANCH  21  27
ENDBRANCH  20  24
ENDBRANCH  19  20
ENDBRANCH   1  19
TORSDOF 7
