REMARK  Name = ZINC01152451
REMARK  6 active torsions:
REMARK  status: ('A' for Active; 'I' for Inactive)
REMARK    1  A    between atoms: C_1  and  C_2
REMARK    2  A    between atoms: C_5  and  N_9
REMARK    3  A    between atoms: C_6  and  C_8
REMARK    4  A    between atoms: C_10  and  C_12
REMARK    5  A    between atoms: C_13  and  C_27
REMARK    6  A    between atoms: C_18  and  C_20
REMARK                            x       y       z     vdW  Elec       q    Type
REMARK                         _______ _______ _______ _____ _____    ______ ____
ROOT
ATOM      1  C   UNL     1       0.154  -6.619  -1.239  0.00  0.00    +0.056 C 
ATOM      2  C   UNL     1       0.101  -7.568  -2.196  0.00  0.00    +0.019 C 
ATOM      3  N   UNL     1       0.391  -8.873  -1.913  0.00  0.00    -0.273 N 
ATOM      4  C   UNL     1       0.741  -9.308  -0.696  0.00  0.00    +0.304 C 
ATOM      5  O   UNL     1       0.980 -10.490  -0.541  0.00  0.00    -0.252 OA
ATOM      6  N   UNL     1       0.838  -8.479   0.362  0.00  0.00    -0.288 N 
ATOM      7  C   UNL     1       0.551  -7.048   0.159  0.00  0.00    +0.143 C 
ATOM      8  C   UNL     1      -0.284  -7.182  -3.601  0.00  0.00    +0.061 C 
ATOM      9  H   UNL     1       0.340  -9.520  -2.634  0.00  0.00    +0.156 HD
ATOM     10  H   UNL     1       1.094  -8.815   1.235  0.00  0.00    +0.151 HD
ENDROOT
BRANCH   7  11
ATOM     11  C   UNL     1      -0.565  -6.666   1.097  0.00  0.00    -0.009 A 
ATOM     12  C   UNL     1      -1.580  -7.564   1.366  0.00  0.00    +0.007 A 
ATOM     13  C   UNL     1      -2.603  -7.213   2.227  0.00  0.00    +0.000 A 
ATOM     14  C   UNL     1      -2.611  -5.964   2.819  0.00  0.00    +0.001 A 
ATOM     15  C   UNL     1      -1.596  -5.065   2.551  0.00  0.00    +0.015 A 
ATOM     16  C   UNL     1      -0.569  -5.418   1.694  0.00  0.00    +0.023 A 
ATOM     17 BR   UNL     1       0.824  -4.191   1.332  0.00  0.00    -0.050 Br
ENDBRANCH   7  11
BRANCH   1  19
ATOM     18  N   UNL     1       0.786  -4.478  -2.105  0.00  0.00    -0.281 N 
ATOM     19  C   UNL     1      -0.145  -5.266  -1.531  0.00  0.00    +0.248 C 
ATOM     20  O   UNL     1      -1.244  -4.814  -1.264  0.00  0.00    -0.270 OA
ATOM     21  H   UNL     1       1.639  -4.853  -2.375  0.00  0.00    +0.155 HD
BRANCH  18  26
ATOM     22  C   UNL     1      -0.281   1.030  -2.938  0.00  0.00    +0.044 C 
ATOM     23  C   UNL     1       0.002  -0.433  -2.717  0.00  0.00    -0.050 A 
ATOM     24  C   UNL     1      -1.039  -1.343  -2.703  0.00  0.00    +0.005 A 
ATOM     25  C   UNL     1      -0.782  -2.685  -2.501  0.00  0.00    +0.024 A 
ATOM     26  C   UNL     1       0.523  -3.120  -2.311  0.00  0.00    +0.037 A 
ATOM     27  C   UNL     1       1.566  -2.204  -2.325  0.00  0.00    -0.029 A 
ATOM     28  C   UNL     1       1.303  -0.864  -2.533  0.00  0.00    +0.008 A 
ATOM     29  C   UNL     1       2.984  -2.671  -2.119  0.00  0.00    +0.045 C 
ENDBRANCH  18  26
ENDBRANCH   1  19
TORSDOF 3
