REMARK  Name = ZINC12550593
REMARK  5 active torsions:
REMARK  status: ('A' for Active; 'I' for Inactive)
REMARK    1  A    between atoms: C_1  and  C_2
REMARK    2  A    between atoms: C_9  and  N_14
REMARK    3  A    between atoms: N_14  and  C_15
REMARK    4  A    between atoms: C_15  and  C_17
REMARK    5  A    between atoms: C_15  and  C_23
REMARK                            x       y       z     vdW  Elec       q    Type
REMARK                         _______ _______ _______ _____ _____    ______ ____
ROOT
ATOM      1  N   UNL     1       2.701  -3.917  -0.751  0.00  0.00    -0.329 N 
ATOM      2  H   UNL     1       1.876  -4.377  -0.972  0.00  0.00    +0.147 HD
ENDROOT
BRANCH   1  10
ATOM      3  C   UNL     1       1.701   3.749  -0.454  0.00  0.00    +0.062 C 
ATOM      4  C   UNL     1       1.816   2.315  -0.973  0.00  0.00    +0.256 C 
ATOM      5  C   UNL     1       0.460   1.657  -0.934  0.00  0.00    +0.258 C 
ATOM      6  O   UNL     1      -0.545   2.326  -1.051  0.00  0.00    -0.271 OA
ATOM      7  N   UNL     1       0.369   0.319  -0.775  0.00  0.00    -0.279 N 
ATOM      8  C   UNL     1       1.544  -0.428  -0.613  0.00  0.00    +0.077 A 
ATOM      9  C   UNL     1       1.532  -1.805  -0.764  0.00  0.00    +0.050 A 
ATOM     10  C   UNL     1       2.707  -2.526  -0.598  0.00  0.00    +0.030 A 
ATOM     11  C   UNL     1       3.889  -1.868  -0.282  0.00  0.00    +0.026 A 
ATOM     12  C   UNL     1       3.900  -0.494  -0.131  0.00  0.00    +0.049 A 
ATOM     13  C   UNL     1       2.732   0.229  -0.295  0.00  0.00    +0.143 A 
ATOM     14  O   UNL     1       2.728   1.583  -0.151  0.00  0.00    -0.478 OA
ATOM     15  H   UNL     1      -0.497  -0.119  -0.772  0.00  0.00    +0.155 HD
ENDBRANCH   1  10
BRANCH   1  16
ATOM     16  C   UNL     1       3.940  -4.679  -0.576  0.00  0.00    +0.188 C 
BRANCH  16  17
ATOM     17  C   UNL     1       3.608  -6.095  -0.182  0.00  0.00    +0.240 C 
ATOM     18  O   UNL     1       2.510  -6.550  -0.424  0.00  0.00    -0.273 OA
ATOM     19  N   UNL     1       4.531  -6.856   0.438  0.00  0.00    -0.300 N 
ATOM     20  C   UNL     1       5.829  -6.289   0.829  0.00  0.00    +0.108 C 
ATOM     21  C   UNL     1       6.049  -6.559   2.325  0.00  0.00    +0.019 C 
ATOM     22  C   UNL     1       5.913  -8.060   2.593  0.00  0.00    +0.003 C 
ATOM     23  C   UNL     1       4.501  -8.520   2.223  0.00  0.00    +0.019 C 
ATOM     24  C   UNL     1       4.261  -8.270   0.731  0.00  0.00    +0.108 C 
ENDBRANCH  16  17
BRANCH  16  25
ATOM     25  C   UNL     1       4.712  -4.685  -1.870  0.00  0.00    -0.018 A 
ATOM     26  C   UNL     1       4.067  -4.971  -3.059  0.00  0.00    +0.006 A 
ATOM     27  C   UNL     1       4.774  -4.972  -4.246  0.00  0.00    +0.000 A 
ATOM     28  C   UNL     1       6.129  -4.698  -4.244  0.00  0.00    +0.000 A 
ATOM     29  C   UNL     1       6.776  -4.418  -3.055  0.00  0.00    +0.000 A 
ATOM     30  C   UNL     1       6.067  -4.412  -1.868  0.00  0.00    +0.006 A 
ENDBRANCH  16  25
ENDBRANCH   1  16
TORSDOF 4
