REMARK  Name = ZINC34774355
REMARK  10 active torsions:
REMARK  status: ('A' for Active; 'I' for Inactive)
REMARK    1  A    between atoms: C_1  and  C_2
REMARK    2  A    between atoms: C_2  and  C_3
REMARK    3  A    between atoms: C_3  and  C_4
REMARK    4  A    between atoms: C_4  and  S_5
REMARK    5  A    between atoms: S_5  and  C_6
REMARK    6  A    between atoms: C_10  and  C_15
REMARK    7  A    between atoms: N_24  and  C_27
REMARK    8  A    between atoms: C_27  and  C_28
REMARK    9  A    between atoms: C_31  and  C_35
REMARK   10  A    between atoms: C_33  and  C_34
REMARK                            x       y       z     vdW  Elec       q    Type
REMARK                         _______ _______ _______ _____ _____    ______ ____
ROOT
ATOM      1  C   UNL     1       2.240  -5.000   1.709  0.00  0.00    +0.191 A 
ATOM      2  N   UNL     1       2.774  -5.668   2.725  0.00  0.00    -0.206 NA
ATOM      3  C   UNL     1       2.100  -5.914   3.835  0.00  0.00    +0.134 A 
ATOM      4  C   UNL     1       0.761  -5.452   3.954  0.00  0.00    +0.055 A 
ATOM      5  C   UNL     1      -0.177  -5.596   5.064  0.00  0.00    +0.002 A 
ATOM      6  C   UNL     1      -1.415  -5.064   4.944  0.00  0.00    +0.056 A 
ATOM      7  S   UNL     1      -1.397  -4.332   3.319  0.00  0.00    -0.076 S 
ATOM      8  C   UNL     1       0.258  -4.752   2.840  0.00  0.00    +0.115 A 
ATOM      9  N   UNL     1       0.996  -4.542   1.766  0.00  0.00    -0.215 NA
ATOM     10  N   UNL     1       2.692  -6.613   4.871  0.00  0.00    -0.318 N 
ATOM     11  C   UNL     1       2.908  -8.066   4.777  0.00  0.00    +0.088 C 
ATOM     12  C   UNL     1       4.367  -8.364   5.135  0.00  0.00    -0.059 C 
ATOM     13  N   UNL     1       4.675  -7.789   6.451  0.00  0.00    +0.384 N 
ATOM     14  C   UNL     1       4.574  -6.326   6.394  0.00  0.00    -0.059 C 
ATOM     15  C   UNL     1       3.129  -5.925   6.096  0.00  0.00    +0.088 C 
ATOM     16  H   UNL     1       4.021  -8.144   7.133  0.00  0.00    -0.081 HD
ENDROOT
BRANCH   5  17
ATOM     17  C   UNL     1       0.221  -6.312   6.300  0.00  0.00    -0.017 A 
ATOM     18  C   UNL     1       0.609  -7.649   6.240  0.00  0.00    +0.008 A 
ATOM     19  C   UNL     1       0.978  -8.310   7.394  0.00  0.00    +0.001 A 
ATOM     20  C   UNL     1       0.964  -7.648   8.608  0.00  0.00    +0.000 A 
ATOM     21  C   UNL     1       0.580  -6.321   8.674  0.00  0.00    +0.001 A 
ATOM     22  C   UNL     1       0.213  -5.648   7.526  0.00  0.00    +0.008 A 
ENDBRANCH   5  17
BRANCH   1  23
ATOM     23  S   UNL     1       3.202  -4.712   0.262  0.00  0.00    -0.086 S 
BRANCH  23  24
ATOM     24  C   UNL     1       2.089  -3.779  -0.826  0.00  0.00    +0.077 C 
BRANCH  24  25
ATOM     25  C   UNL     1       2.809  -3.458  -2.138  0.00  0.00    +0.011 C 
BRANCH  25  27
ATOM     26  C   UNL     1       2.590  -2.351  -4.367  0.00  0.00    +0.004 C 
ATOM     27  C   UNL     1       1.870  -2.672  -3.055  0.00  0.00    -0.003 C 
ENDBRANCH  25  27
ENDBRANCH  24  25
ENDBRANCH  23  24
ENDBRANCH   1  23
BRANCH  13  28
ATOM     28  C   UNL     1       6.039  -8.169   6.842  0.00  0.00    -0.043 C 
BRANCH  28  29
ATOM     29  C   UNL     1       6.314  -7.685   8.242  0.00  0.00    -0.061 A 
ATOM     30  C   UNL     1       7.033  -6.522   8.443  0.00  0.00    +0.002 A 
ATOM     31  C   UNL     1       7.285  -6.077   9.727  0.00  0.00    +0.003 A 
ATOM     32  C   UNL     1       6.816  -6.796  10.812  0.00  0.00    -0.050 A 
ATOM     33  C   UNL     1       6.096  -7.959  10.611  0.00  0.00    +0.007 A 
ATOM     34  C   UNL     1       5.841  -8.401   9.326  0.00  0.00    -0.049 A 
ATOM     35  C   UNL     1       5.051  -9.665   9.107  0.00  0.00    +0.044 C 
ATOM     36  C   UNL     1       7.091  -6.313  12.212  0.00  0.00    +0.044 C 
ENDBRANCH  28  29
ENDBRANCH  13  28
TORSDOF 7
