REMARK  Name = ZINC39227932
REMARK  6 active torsions:
REMARK  status: ('A' for Active; 'I' for Inactive)
REMARK    1  A    between atoms: C_1  and  C_2
REMARK    2  A    between atoms: C_2  and  C_3
REMARK    3  A    between atoms: C_2  and  C_4
REMARK    4  A    between atoms: C_7  and  C_10
REMARK    5  A    between atoms: C_10  and  N_11
REMARK    6  A    between atoms: C_24  and  C_26
REMARK                            x       y       z     vdW  Elec       q    Type
REMARK                         _______ _______ _______ _____ _____    ______ ____
ROOT
ATOM      1  N   UNL     1      -6.302  -1.044  -0.640  0.00  0.00    -0.286 NA
ATOM      2  C   UNL     1      -6.384   0.224   0.099  0.00  0.00    +0.090 C 
ATOM      3  C   UNL     1      -6.977   1.308  -0.811  0.00  0.00    +0.053 C 
ATOM      4  C   UNL     1      -8.224   0.750  -1.449  0.00  0.00    -0.016 A 
ATOM      5  C   UNL     1      -9.296   1.444  -2.126  0.00  0.00    +0.003 A 
ATOM      6  C   UNL     1      -9.529   2.795  -2.405  0.00  0.00    +0.010 A 
ATOM      7  C   UNL     1     -10.682   3.100  -3.084  0.00  0.00    +0.001 A 
ATOM      8  C   UNL     1     -11.582   2.125  -3.480  0.00  0.00    +0.002 A 
ATOM      9  C   UNL     1     -11.379   0.781  -3.218  0.00  0.00    +0.026 A 
ATOM     10  C   UNL     1     -10.216   0.441  -2.531  0.00  0.00    +0.047 A 
ATOM     11  N   UNL     1      -9.716  -0.761  -2.118  0.00  0.00    -0.356 N 
ATOM     12  C   UNL     1      -8.524  -0.569  -1.472  0.00  0.00    +0.042 A 
ATOM     13  H   UNL     1     -10.140  -1.621  -2.260  0.00  0.00    +0.166 HD
ATOM     14  C   UNL     1      -7.636  -1.626  -0.860  0.00  0.00    +0.138 C 
ENDROOT
BRANCH  14  15
ATOM     15  C   UNL     1      -8.216  -2.074   0.457  0.00  0.00    +0.022 A 
ATOM     16  C   UNL     1      -9.139  -1.279   1.112  0.00  0.00    +0.029 A 
ATOM     17  C   UNL     1      -9.674  -1.689   2.320  0.00  0.00    +0.045 A 
ATOM     18  C   UNL     1      -9.287  -2.895   2.878  0.00  0.00    +0.069 A 
ATOM     19  C   UNL     1      -8.364  -3.695   2.226  0.00  0.00    +0.168 A 
ATOM     20  C   UNL     1      -7.829  -3.285   1.007  0.00  0.00    +0.171 A 
ATOM     21  O   UNL     1      -6.957  -4.240   0.570  0.00  0.00    -0.452 OA
ATOM     22  C   UNL     1      -6.659  -5.046   1.725  0.00  0.00    +0.466 C 
ATOM     23  O   UNL     1      -7.824  -4.905   2.554  0.00  0.00    -0.453 OA
ATOM     24 CL   UNL     1     -10.831  -0.687   3.139  0.00  0.00    -0.083 Cl
ENDBRANCH  14  15
BRANCH   1  25
ATOM     25  C   UNL     1      -5.419  -1.997   0.046  0.00  0.00    +0.120 C 
BRANCH  25  29
ATOM     26  C   UNL     1      -1.416  -0.505   0.018  0.00  0.00    -0.045 A 
ATOM     27  C   UNL     1      -2.266  -0.185   1.060  0.00  0.00    +0.004 A 
ATOM     28  C   UNL     1      -3.561  -0.668   1.069  0.00  0.00    +0.005 A 
ATOM     29  C   UNL     1      -4.007  -1.470   0.036  0.00  0.00    -0.033 A 
ATOM     30  C   UNL     1      -3.158  -1.789  -1.007  0.00  0.00    +0.005 A 
ATOM     31  C   UNL     1      -1.864  -1.303  -1.018  0.00  0.00    +0.004 A 
BRANCH  26  33
ATOM     32  C   UNL     1      -0.029   1.550   0.014  0.00  0.00    +0.012 C 
ATOM     33  C   UNL     1      -0.004   0.021   0.008  0.00  0.00    +0.013 C 
ATOM     34  C   UNL     1       0.736  -0.482   1.249  0.00  0.00    +0.012 C 
ENDBRANCH  26  33
ENDBRANCH  25  29
ENDBRANCH   1  25
TORSDOF 4
