REMARK  Name = ZINC27596184
REMARK  12 active torsions:
REMARK  status: ('A' for Active; 'I' for Inactive)
REMARK    1  A    between atoms: C_1  and  C_2
REMARK    2  A    between atoms: C_2  and  C_3
REMARK    3  A    between atoms: C_6  and  C_9
REMARK    4  A    between atoms: C_9  and  C_11
REMARK    5  A    between atoms: C_9  and  N_32
REMARK    6  A    between atoms: C_11  and  N_12
REMARK    7  A    between atoms: C_13  and  C_15
REMARK    8  A    between atoms: C_15  and  S_16
REMARK    9  A    between atoms: S_16  and  C_17
REMARK   10  A    between atoms: C_17  and  C_18
REMARK   11  A    between atoms: N_32  and  C_33
REMARK   12  A    between atoms: N_32  and  C_34
REMARK                            x       y       z     vdW  Elec       q    Type
REMARK                         _______ _______ _______ _____ _____    ______ ____
ROOT
ATOM      1  N   UNL     1       3.457  -1.988   6.880  0.00  0.00    -0.316 N 
ATOM      2  C   UNL     1       3.742  -1.354   8.035  0.00  0.00    +0.223 C 
ATOM      3  O   UNL     1       3.682  -0.144   8.094  0.00  0.00    -0.275 OA
ATOM      4  H   UNL     1       3.505  -2.955   6.833  0.00  0.00    +0.149 HD
ENDROOT
BRANCH   1   5
ATOM      5  C   UNL     1       3.074  -1.215   5.696  0.00  0.00    +0.093 C 
BRANCH   5   6
ATOM      6  C   UNL     1       2.713  -2.171   4.558  0.00  0.00    -0.021 C 
BRANCH   6  10
ATOM      7  C   UNL     1       6.173  -4.404   3.422  0.00  0.00    -0.048 A 
ATOM      8  C   UNL     1       5.223  -4.974   4.249  0.00  0.00    +0.004 A 
ATOM      9  C   UNL     1       4.104  -4.251   4.617  0.00  0.00    +0.002 A 
ATOM     10  C   UNL     1       3.934  -2.958   4.157  0.00  0.00    -0.059 A 
ATOM     11  C   UNL     1       4.885  -2.388   3.331  0.00  0.00    +0.002 A 
ATOM     12  C   UNL     1       6.006  -3.109   2.967  0.00  0.00    +0.004 A 
BRANCH   7  14
ATOM     13  C   UNL     1       8.508  -4.961   4.044  0.00  0.00    +0.009 C 
ATOM     14  C   UNL     1       7.394  -5.192   3.021  0.00  0.00    +0.032 C 
ENDBRANCH   7  14
ENDBRANCH   6  10
BRANCH   6  15
ATOM     15  N   UNL     1       2.229  -1.399   3.405  0.00  0.00    +0.382 N 
ATOM     16  C   UNL     1       1.926  -2.314   2.296  0.00  0.00    -0.096 C 
ATOM     17  C   UNL     1       1.013  -0.667   3.782  0.00  0.00    -0.096 C 
ATOM     18  H   UNL     1       2.940  -0.744   3.116  0.00  0.00    -0.082 HD
ENDBRANCH   6  15
ENDBRANCH   5   6
ENDBRANCH   1   5
BRANCH   2  19
ATOM     19  C   UNL     1       4.136  -2.150   9.253  0.00  0.00    +0.165 C 
BRANCH  19  20
ATOM     20  S   UNL     1       4.455  -1.020  10.636  0.00  0.00    -0.144 S 
BRANCH  20  21
ATOM     21  C   UNL     1       4.911  -2.119  12.005  0.00  0.00    +0.143 C 
BRANCH  21  22
ATOM     22  C   UNL     1       5.205  -1.297  13.233  0.00  0.00    +0.121 A 
ATOM     23  N   UNL     1       5.574  -1.922  14.381  0.00  0.00    -0.310 N 
ATOM     24  H   UNL     1       5.644  -2.889  14.393  0.00  0.00    +0.170 HD
ATOM     25  C   UNL     1       5.846  -1.226  15.501  0.00  0.00    +0.260 A 
ATOM     26  O   UNL     1       6.176  -1.800  16.524  0.00  0.00    -0.267 OA
ATOM     27  C   UNL     1       5.739   0.203  15.468  0.00  0.00    +0.075 A 
ATOM     28  C   UNL     1       5.986   1.156  16.560  0.00  0.00    -0.023 A 
ATOM     29  C   UNL     1       5.815   2.459  16.278  0.00  0.00    -0.004 A 
ATOM     30  S   UNL     1       5.328   2.501  14.569  0.00  0.00    -0.073 S 
ATOM     31  C   UNL     1       5.352   0.758  14.241  0.00  0.00    +0.116 A 
ATOM     32  N   UNL     1       5.105   0.004  13.172  0.00  0.00    -0.226 NA
ATOM     33  C   UNL     1       6.090   3.338  17.469  0.00  0.00    +0.043 C 
ATOM     34  C   UNL     1       6.044   2.378  18.678  0.00  0.00    +0.010 C 
ATOM     35  C   UNL     1       6.416   1.033  18.024  0.00  0.00    +0.037 C 
ENDBRANCH  21  22
ENDBRANCH  20  21
ENDBRANCH  19  20
ENDBRANCH   2  19
TORSDOF 9
