REMARK  Name = ZINC13563133
REMARK  5 active torsions:
REMARK  status: ('A' for Active; 'I' for Inactive)
REMARK    1  A    between atoms: C_1  and  C_2
REMARK    2  A    between atoms: C_2  and  C_22
REMARK    3  A    between atoms: N_3  and  N_4
REMARK    4  A    between atoms: C_9  and  C_11
REMARK    5  A    between atoms: C_27  and  O_28
REMARK                            x       y       z     vdW  Elec       q    Type
REMARK                         _______ _______ _______ _____ _____    ______ ____
ROOT
ATOM      1  N   UNL     1      -2.379   1.615   3.558  0.00  0.00    -0.220 N 
ATOM      2  C   UNL     1      -2.971   1.297   2.347  0.00  0.00    +0.145 A 
ATOM      3  C   UNL     1      -2.208   1.262   1.172  0.00  0.00    +0.015 A 
ATOM      4  C   UNL     1      -2.833   0.937  -0.008  0.00  0.00    +0.050 A 
ATOM      5  N   UNL     1      -4.136   0.674   0.004  0.00  0.00    -0.232 NA
ATOM      6  C   UNL     1      -4.836   0.716   1.127  0.00  0.00    +0.162 A 
ATOM      7  N   UNL     1      -4.269   1.021   2.286  0.00  0.00    -0.211 NA
ATOM      8  C   UNL     1      -2.100   0.865  -1.321  0.00  0.00    +0.056 C 
ATOM      9  C   UNL     1      -0.763   1.598  -1.227  0.00  0.00    +0.006 C 
ATOM     10  C   UNL     1      -0.013   1.086   0.008  0.00  0.00    +0.005 C 
ATOM     11  C   UNL     1      -0.737   1.583   1.259  0.00  0.00    +0.040 C 
ATOM     12  H   UNL     1      -1.431   1.816   3.596  0.00  0.00    +0.176 HD
ENDROOT
BRANCH   6  13
ATOM     13  C   UNL     1      -6.287   0.416   1.088  0.00  0.00    +0.019 A 
ATOM     14  C   UNL     1      -6.904   0.098  -0.121  0.00  0.00    +0.012 A 
ATOM     15  C   UNL     1      -8.254  -0.185  -0.151  0.00  0.00    +0.016 A 
ATOM     16  C   UNL     1      -8.998  -0.144   1.015  0.00  0.00    +0.018 A 
ATOM     17  C   UNL     1      -8.392   0.175   2.218  0.00  0.00    +0.016 A 
ATOM     18  C   UNL     1      -7.041   0.455   2.260  0.00  0.00    +0.012 A 
ATOM     19 BR   UNL     1     -10.849  -0.527   0.966  0.00  0.00    -0.050 Br
ENDBRANCH   6  13
BRANCH   1  22
ATOM     20  C   UNL     1      -1.122   2.258   5.922  0.00  0.00    +0.068 C 
ATOM     21  C   UNL     1      -2.595   1.947   5.862  0.00  0.00    +0.067 C 
ATOM     22  N   UNL     1      -3.150   1.649   4.728  0.00  0.00    -0.185 NA
BRANCH  21  23
ATOM     23  C   UNL     1      -3.406   1.982   7.093  0.00  0.00    +0.039 A 
ATOM     24  C   UNL     1      -2.813   2.302   8.316  0.00  0.00    +0.013 A 
ATOM     25  C   UNL     1      -3.577   2.333   9.463  0.00  0.00    +0.001 A 
ATOM     26  C   UNL     1      -4.931   2.047   9.408  0.00  0.00    +0.004 A 
ATOM     27  C   UNL     1      -5.529   1.729   8.204  0.00  0.00    +0.046 A 
ATOM     28  C   UNL     1      -4.777   1.699   7.041  0.00  0.00    +0.126 A 
BRANCH  28  29
ATOM     29  O   UNL     1      -5.366   1.391   5.856  0.00  0.00    -0.506 OA
ATOM     30  H   UNL     1      -5.365   0.447   5.649  0.00  0.00    +0.292 HD
ENDBRANCH  28  29
ENDBRANCH  21  23
ENDBRANCH   1  22
TORSDOF 4
