REMARK  Name = ZINC37938494
REMARK  3 active torsions:
REMARK  status: ('A' for Active; 'I' for Inactive)
REMARK    1  A    between atoms: C_7  and  C_11
REMARK    2  A    between atoms: C_7  and  N_13
REMARK    3  A    between atoms: N_13  and  C_14
REMARK                            x       y       z     vdW  Elec       q    Type
REMARK                         _______ _______ _______ _____ _____    ______ ____
ROOT
ATOM      1  C   UNL     1       0.043   1.380  -0.030  0.00  0.00    +0.000 A 
ATOM      2  C   UNL     1       1.241   2.071  -0.044  0.00  0.00    +0.001 A 
ATOM      3  C   UNL     1       2.428   1.372  -0.061  0.00  0.00    +0.015 A 
ATOM      4  C   UNL     1       2.429  -0.024  -0.058  0.00  0.00    +0.014 A 
ATOM      5  C   UNL     1       1.234  -0.718  -0.029  0.00  0.00    +0.003 A 
ATOM      6  C   UNL     1       0.041   0.002  -0.024  0.00  0.00    +0.008 A 
ATOM      7  C   UNL     1       1.117  -2.212   0.021  0.00  0.00    +0.147 C 
ATOM      8  C   UNL     1       2.329  -2.939  -0.535  0.00  0.00    +0.057 C 
ATOM      9  C   UNL     1       3.563  -2.570   0.301  0.00  0.00    +0.078 C 
ATOM     10  S   UNL     1       3.989  -0.850  -0.101  0.00  0.00    -0.125 S 
ENDROOT
BRANCH   7  11
ATOM     11  C   UNL     1       0.924  -2.622   1.422  0.00  0.00    +0.093 C 
ATOM     12  N   UNL     1       0.776  -2.938   2.503  0.00  0.00    -0.194 NA
ENDBRANCH   7  11
BRANCH   7  13
ATOM     13  N   UNL     1      -0.064  -2.615  -0.747  0.00  0.00    -0.322 N 
ATOM     14  H   UNL     1      -0.745  -3.169  -0.334  0.00  0.00    +0.148 HD
BRANCH  13  15
ATOM     15  C   UNL     1      -0.209  -2.202  -2.074  0.00  0.00    +0.043 A 
ATOM     16  C   UNL     1       0.809  -1.492  -2.697  0.00  0.00    +0.024 A 
ATOM     17  C   UNL     1       0.663  -1.086  -4.008  0.00  0.00    +0.002 A 
ATOM     18  C   UNL     1      -0.495  -1.384  -4.702  0.00  0.00    +0.001 A 
ATOM     19  C   UNL     1      -1.512  -2.091  -4.085  0.00  0.00    +0.017 A 
ATOM     20  C   UNL     1      -1.370  -2.505  -2.775  0.00  0.00    +0.039 A 
ATOM     21 BR   UNL     1      -2.757  -3.478  -1.934  0.00  0.00    -0.048 Br
ENDBRANCH  13  15
ENDBRANCH   7  13
TORSDOF 3
