REMARK  Name = ZINC37297530
REMARK  7 active torsions:
REMARK  status: ('A' for Active; 'I' for Inactive)
REMARK    1  A    between atoms: C_1  and  C_2
REMARK    2  A    between atoms: C_7  and  N_8
REMARK    3  A    between atoms: N_8  and  C_9
REMARK    4  A    between atoms: C_9  and  C_11
REMARK    5  A    between atoms: C_9  and  C_12
REMARK    6  A    between atoms: C_16  and  S_18
REMARK    7  A    between atoms: S_18  and  N_21
REMARK                            x       y       z     vdW  Elec       q    Type
REMARK                         _______ _______ _______ _____ _____    ______ ____
ROOT
ATOM      1  C   UNL     1       0.047  -0.757   3.679  0.00  0.00    +0.098 C 
ATOM      2  C   UNL     1      -1.381  -1.143   4.068  0.00  0.00    +0.033 C 
ENDROOT
BRANCH   1   3
ATOM      3  C   UNL     1       0.646   0.107   4.758  0.00  0.00    -0.026 A 
ATOM      4  C   UNL     1       0.331   1.452   4.821  0.00  0.00    +0.005 A 
ATOM      5  C   UNL     1       0.880   2.244   5.811  0.00  0.00    +0.002 A 
ATOM      6  C   UNL     1       1.745   1.693   6.739  0.00  0.00    +0.028 A 
ATOM      7  C   UNL     1       2.059   0.348   6.676  0.00  0.00    +0.105 A 
ATOM      8  C   UNL     1       1.506  -0.446   5.688  0.00  0.00    +0.034 A 
BRANCH   7   9
ATOM      9  S   UNL     1       3.161  -0.355   7.857  0.00  0.00    +0.056 S 
ATOM     10  O   UNL     1       3.719  -1.514   7.253  0.00  0.00    -0.153 OA
ATOM     11  O   UNL     1       3.964   0.710   8.348  0.00  0.00    -0.153 OA
BRANCH   9  12
ATOM     12  N   UNL     1       2.243  -0.881   9.131  0.00  0.00    -0.204 NA
ATOM     13  H   UNL     1       2.533  -1.642   9.657  0.00  0.00    +0.144 HD
ATOM     14  H   UNL     1       1.414  -0.427   9.351  0.00  0.00    +0.144 HD
ENDBRANCH   9  12
ENDBRANCH   7   9
ENDBRANCH   1   3
BRANCH   1  15
ATOM     15  N   UNL     1       0.025  -0.016   2.415  0.00  0.00    -0.337 N 
ATOM     16  H   UNL     1       0.012   0.954   2.422  0.00  0.00    +0.147 HD
BRANCH  15  23
ATOM     17  C   UNL     1      -0.018   1.503   0.010  0.00  0.00    +0.045 C 
ATOM     18  C   UNL     1       0.002  -0.004   0.002  0.00  0.00    -0.029 A 
ATOM     19  C   UNL     1       0.006  -0.689  -1.198  0.00  0.00    +0.019 A 
ATOM     20  C   UNL     1       0.024  -2.072  -1.206  0.00  0.00    +0.014 A 
ATOM     21  C   UNL     1       0.039  -2.774  -0.014  0.00  0.00    +0.016 A 
ATOM     22  C   UNL     1       0.035  -2.095   1.189  0.00  0.00    +0.024 A 
ATOM     23  C   UNL     1       0.023  -0.706   1.200  0.00  0.00    +0.031 A 
ATOM     24  I   UNL     1       0.030  -3.106  -3.028  0.00  0.00    -0.044 I 
ENDBRANCH  15  23
ENDBRANCH   1  15
TORSDOF 5
