REMARK  Name = ZINC12632207
REMARK  11 active torsions:
REMARK  status: ('A' for Active; 'I' for Inactive)
REMARK    1  A    between atoms: C_1  and  O_2
REMARK    2  A    between atoms: O_2  and  C_3
REMARK    3  A    between atoms: C_6  and  C_11
REMARK    4  A    between atoms: C_8  and  O_9
REMARK    5  A    between atoms: O_9  and  C_10
REMARK    6  A    between atoms: C_12  and  C_20
REMARK    7  A    between atoms: N_14  and  C_16
REMARK    8  A    between atoms: C_16  and  C_17
REMARK    9  A    between atoms: C_17  and  C_18
REMARK   10  A    between atoms: C_21  and  C_22
REMARK   11  A    between atoms: C_29  and  O_32
REMARK                            x       y       z     vdW  Elec       q    Type
REMARK                         _______ _______ _______ _____ _____    ______ ____
ROOT
ATOM      1  C   UNL     1       0.580   3.277   0.013  0.00  0.00    +0.100 A 
ATOM      2  C   UNL     1       1.091   1.903   0.002  0.00  0.00    +0.020 A 
ATOM      3  C   UNL     1      -0.013   1.076   0.008  0.00  0.00    +0.117 A 
ATOM      4  N   UNL     1      -1.111   1.853   0.017  0.00  0.00    -0.269 N 
ATOM      5  N   UNL     1      -0.733   3.199   0.025  0.00  0.00    -0.171 NA
ENDROOT
BRANCH   1   9
ATOM      6  C   UNL     1       2.907   6.839   0.012  0.00  0.00    +0.162 A 
ATOM      7  C   UNL     1       3.357   5.717   0.691  0.00  0.00    +0.050 A 
ATOM      8  C   UNL     1       2.604   4.561   0.693  0.00  0.00    +0.014 A 
ATOM      9  C   UNL     1       1.389   4.519   0.012  0.00  0.00    +0.006 A 
ATOM     10  C   UNL     1       0.938   5.645  -0.675  0.00  0.00    +0.059 A 
ATOM     11  C   UNL     1       1.694   6.804  -0.669  0.00  0.00    +0.162 A 
BRANCH   6  13
ATOM     12  C   UNL     1       4.887   7.944   0.732  0.00  0.00    +0.277 C 
ATOM     13  O   UNL     1       3.653   7.977   0.012  0.00  0.00    -0.491 OA
ENDBRANCH   6  13
BRANCH  11  14
ATOM     14  O   UNL     1       1.254   7.906  -1.334  0.00  0.00    -0.491 OA
ATOM     15  C   UNL     1       0.001   7.798  -2.011  0.00  0.00    +0.277 C 
ENDBRANCH  11  14
ENDBRANCH   1   9
BRANCH   2  16
ATOM     16  C   UNL     1       2.503   1.488  -0.012  0.00  0.00    +0.013 C 
ATOM     17  C   UNL     1       2.821   0.181  -0.021  0.00  0.00    +0.028 C 
BRANCH  17  18
ATOM     18  C   UNL     1       4.232  -0.233  -0.036  0.00  0.00    +0.065 A 
ATOM     19  C   UNL     1       4.547  -1.605  -0.039  0.00  0.00    +0.028 A 
ATOM     20  C   UNL     1       5.850  -2.000  -0.059  0.00  0.00    +0.013 A 
ATOM     21  C   UNL     1       6.852  -1.007  -0.062  0.00  0.00    +0.022 A 
ATOM     22  C   UNL     1       8.213  -1.349  -0.076  0.00  0.00    +0.052 A 
ATOM     23  C   UNL     1       9.161  -0.369  -0.078  0.00  0.00    +0.044 A 
ATOM     24  C   UNL     1       8.799   0.976  -0.069  0.00  0.00    +0.086 A 
ATOM     25  C   UNL     1       7.474   1.350  -0.056  0.00  0.00    +0.161 A 
ATOM     26  C   UNL     1       6.471   0.358  -0.052  0.00  0.00    +0.116 A 
ATOM     27  N   UNL     1       5.178   0.692  -0.039  0.00  0.00    -0.244 NA
ATOM     28 CL   UNL     1      10.034   2.196  -0.072  0.00  0.00    -0.080 Cl
ATOM     29 CL   UNL     1       8.689  -3.019  -0.088  0.00  0.00    -0.083 Cl
BRANCH  25  30
ATOM     30  O   UNL     1       7.135   2.666  -0.047  0.00  0.00    -0.503 OA
ATOM     31  H   UNL     1       7.044   3.043   0.839  0.00  0.00    +0.292 HD
ENDBRANCH  25  30
ENDBRANCH  17  18
ENDBRANCH   2  16
BRANCH   4  32
ATOM     32  C   UNL     1      -2.491   1.364   0.020  0.00  0.00    +0.158 C 
BRANCH  32  33
ATOM     33  C   UNL     1      -3.244   1.967   1.208  0.00  0.00    +0.141 C 
BRANCH  33  34
ATOM     34  C   UNL     1      -4.631   1.475   1.211  0.00  0.00    +0.064 C 
ATOM     35  N   UNL     1      -5.702   1.096   1.213  0.00  0.00    -0.197 NA
ENDBRANCH  33  34
ENDBRANCH  32  33
ENDBRANCH   4  32
TORSDOF 9
