REMARK  Name = ZINC15866117
REMARK  5 active torsions:
REMARK  status: ('A' for Active; 'I' for Inactive)
REMARK    1  A    between atoms: C_3  and  S_7
REMARK    2  A    between atoms: S_7  and  N_10
REMARK    3  A    between atoms: C_13  and  C_16
REMARK    4  A    between atoms: N_18  and  C_19
REMARK    5  A    between atoms: C_19  and  C_20
REMARK                            x       y       z     vdW  Elec       q    Type
REMARK                         _______ _______ _______ _____ _____    ______ ____
ROOT
ATOM      1  N   UNL     1      -3.119   4.337  -1.529  0.00  0.00    -0.176 NA
ATOM      2  C   UNL     1      -2.656   5.536  -2.241  0.00  0.00    +0.110 C 
ATOM      3  C   UNL     1      -1.971   5.097  -3.544  0.00  0.00    +0.030 C 
ATOM      4  C   UNL     1      -2.933   4.221  -4.349  0.00  0.00    +0.077 C 
ATOM      5  C   UNL     1      -3.282   2.968  -3.543  0.00  0.00    +0.030 C 
ATOM      6  C   UNL     1      -3.977   3.380  -2.242  0.00  0.00    +0.110 C 
ENDROOT
BRANCH   4   7
ATOM      7  C   UNL     1      -2.279   3.818  -5.646  0.00  0.00    +0.216 C 
ATOM      8  O   UNL     1      -2.109   2.644  -5.900  0.00  0.00    -0.276 OA
ATOM      9  N   UNL     1      -1.884   4.761  -6.523  0.00  0.00    -0.311 N 
ATOM     10  H   UNL     1      -2.020   5.700  -6.320  0.00  0.00    +0.149 HD
BRANCH   9  11
ATOM     11  C   UNL     1      -1.248   4.369  -7.784  0.00  0.00    +0.139 C 
BRANCH  11  12
ATOM     12  C   UNL     1      -0.905   5.603  -8.578  0.00  0.00    -0.030 A 
ATOM     13  C   UNL     1      -1.819   6.124  -9.475  0.00  0.00    +0.006 A 
ATOM     14  C   UNL     1      -1.506   7.258 -10.200  0.00  0.00    +0.015 A 
ATOM     15  C   UNL     1      -0.274   7.866 -10.036  0.00  0.00    +0.018 A 
ATOM     16  C   UNL     1       0.642   7.341  -9.142  0.00  0.00    +0.015 A 
ATOM     17  C   UNL     1       0.326   6.210  -8.414  0.00  0.00    +0.006 A 
ATOM     18 BR   UNL     1       0.157   9.414 -11.033  0.00  0.00    -0.050 Br
ENDBRANCH  11  12
ENDBRANCH   9  11
ENDBRANCH   4   7
BRANCH   1  19
ATOM     19  S   UNL     1      -2.688   4.072   0.048  0.00  0.00    +0.062 S 
ATOM     20  O   UNL     1      -3.682   3.222   0.603  0.00  0.00    -0.153 OA
ATOM     21  O   UNL     1      -2.376   5.342   0.602  0.00  0.00    -0.153 OA
BRANCH  19  24
ATOM     22  C   UNL     1      -0.013   1.076   0.008  0.00  0.00    +0.022 A 
ATOM     23  C   UNL     1      -1.218   1.762   0.017  0.00  0.00    +0.031 A 
ATOM     24  C   UNL     1      -1.188   3.147   0.029  0.00  0.00    +0.123 A 
ATOM     25  C   UNL     1       0.033   3.795   0.022  0.00  0.00    +0.139 A 
ATOM     26  N   UNL     1       1.159   3.110   0.008  0.00  0.00    -0.261 NA
ATOM     27  C   UNL     1       1.169   1.792   0.001  0.00  0.00    +0.111 A 
ENDBRANCH  19  24
ENDBRANCH   1  19
TORSDOF 5
