REMARK  Name = ZINC58175566
REMARK  12 active torsions:
REMARK  status: ('A' for Active; 'I' for Inactive)
REMARK    1  A    between atoms: C_1  and  C_2
REMARK    2  A    between atoms: C_3  and  C_33
REMARK    3  A    between atoms: C_4  and  C_32
REMARK    4  A    between atoms: C_7  and  C_8
REMARK    5  A    between atoms: C_8  and  C_10
REMARK    6  A    between atoms: C_10  and  C_12
REMARK    7  A    between atoms: C_10  and  N_13
REMARK    8  A    between atoms: N_13  and  C_14
REMARK    9  A    between atoms: C_14  and  C_15
REMARK   10  A    between atoms: C_15  and  C_17
REMARK   11  A    between atoms: C_15  and  C_22
REMARK   12  A    between atoms: C_33  and  C_35
REMARK                            x       y       z     vdW  Elec       q    Type
REMARK                         _______ _______ _______ _____ _____    ______ ____
ROOT
ATOM      1  N   UNL     1      -1.082  -1.587   4.705  0.00  0.00    -0.306 NA
ATOM      2  H   UNL     1      -0.458  -1.086   5.319  0.00  0.00    +0.123 HD
ENDROOT
BRANCH   1   3
ATOM      3  C   UNL     1      -0.401  -1.972   3.462  0.00  0.00    +0.124 C 
ATOM      4  C   UNL     1       1.032  -2.406   3.779  0.00  0.00    +0.032 C 
BRANCH   3   5
ATOM      5  C   UNL     1      -0.372  -0.797   2.519  0.00  0.00    +0.196 C 
ATOM      6  O   UNL     1      -0.526   0.329   2.947  0.00  0.00    -0.289 OA
BRANCH   5  13
ATOM      7  C   UNL     1      -0.275   1.458   0.383  0.00  0.00    +0.047 C 
ATOM      8  C   UNL     1      -0.118  -0.026   0.167  0.00  0.00    -0.012 A 
ATOM      9  C   UNL     1       0.112  -0.678  -1.065  0.00  0.00    +0.041 A 
ATOM     10  C   UNL     1       0.189  -2.038  -0.799  0.00  0.00    +0.024 A 
ATOM     11  N   UNL     1       0.018  -2.227   0.517  0.00  0.00    -0.355 N 
ATOM     12  H   UNL     1       0.027  -3.086   0.966  0.00  0.00    +0.166 HD
ATOM     13  C   UNL     1      -0.167  -1.006   1.134  0.00  0.00    +0.088 A 
ATOM     14  C   UNL     1       0.425  -3.121  -1.819  0.00  0.00    +0.064 C 
BRANCH   9  15
ATOM     15  C   UNL     1       0.243  -0.039  -2.379  0.00  0.00    +0.162 C 
ATOM     16  O   UNL     1      -0.745   0.181  -3.048  0.00  0.00    -0.292 OA
ATOM     17  C   UNL     1       1.605   0.344  -2.897  0.00  0.00    +0.091 C 
ENDBRANCH   9  15
ENDBRANCH   5  13
ENDBRANCH   3   5
ENDBRANCH   1   3
BRANCH   1  18
ATOM     18  C   UNL     1      -1.653  -2.761   5.378  0.00  0.00    +0.095 C 
BRANCH  18  19
ATOM     19  C   UNL     1      -2.353  -2.320   6.665  0.00  0.00    +0.071 C 
BRANCH  19  20
ATOM     20  C   UNL     1      -2.833  -3.535   7.417  0.00  0.00    -0.013 A 
ATOM     21  C   UNL     1      -3.696  -4.461   6.971  0.00  0.00    +0.088 A 
ATOM     22  N   UNL     1      -3.893  -5.416   7.931  0.00  0.00    -0.360 N 
ATOM     23  H   UNL     1      -4.475  -6.187   7.839  0.00  0.00    +0.165 HD
ATOM     24  C   UNL     1      -3.142  -5.120   9.047  0.00  0.00    +0.047 A 
ATOM     25  C   UNL     1      -2.440  -3.932   8.772  0.00  0.00    +0.003 A 
ATOM     26  C   UNL     1      -1.584  -3.390   9.732  0.00  0.00    +0.010 A 
ATOM     27  C   UNL     1      -1.430  -4.020  10.935  0.00  0.00    +0.001 A 
ATOM     28  C   UNL     1      -2.117  -5.194  11.210  0.00  0.00    +0.002 A 
ATOM     29  C   UNL     1      -2.974  -5.741  10.280  0.00  0.00    +0.026 A 
ENDBRANCH  19  20
BRANCH  19  30
ATOM     30  C   UNL     1      -3.531  -1.444   6.323  0.00  0.00    -0.002 A 
ATOM     31  C   UNL     1      -3.769  -0.158   6.676  0.00  0.00    +0.012 A 
ATOM     32  C   UNL     1      -4.930   0.453   6.240  0.00  0.00    +0.008 A 
ATOM     33  C   UNL     1      -5.797  -0.253   5.474  0.00  0.00    +0.045 A 
ATOM     34  S   UNL     1      -4.971  -1.830   5.340  0.00  0.00    -0.101 S 
ENDBRANCH  19  30
ENDBRANCH  18  19
ENDBRANCH   1  18
TORSDOF 8
