REMARK  Name = ZINC38705545
REMARK  11 active torsions:
REMARK  status: ('A' for Active; 'I' for Inactive)
REMARK    1  A    between atoms: C_1  and  C_2
REMARK    2  A    between atoms: C_2  and  C_3
REMARK    3  A    between atoms: C_3  and  O_4
REMARK    4  A    between atoms: O_4  and  C_5
REMARK    5  A    between atoms: C_9  and  C_11
REMARK    6  A    between atoms: C_14  and  C_29
REMARK    7  A    between atoms: N_21  and  C_22
REMARK    8  A    between atoms: C_22  and  C_23
REMARK    9  A    between atoms: C_30  and  C_37
REMARK   10  A    between atoms: C_32  and  C_36
REMARK   11  A    between atoms: C_34  and  O_35
REMARK                            x       y       z     vdW  Elec       q    Type
REMARK                         _______ _______ _______ _____ _____    ______ ____
ROOT
ATOM      1  C   UNL     1       2.287  -5.684   3.534  0.00  0.00    +0.141 C 
ATOM      2  C   UNL     1       3.517  -6.339   2.968  0.00  0.00    +0.035 A 
ATOM      3  C   UNL     1       4.334  -6.551   1.852  0.00  0.00    +0.102 A 
ATOM      4  N   UNL     1       5.326  -7.332   2.232  0.00  0.00    -0.173 NA
ATOM      5  N   UNL     1       5.217  -7.634   3.477  0.00  0.00    -0.272 N 
ATOM      6  H   UNL     1       5.835  -8.197   3.970  0.00  0.00    +0.189 HD
ATOM      7  C   UNL     1       4.103  -7.044   4.003  0.00  0.00    +0.126 A 
ATOM      8  C   UNL     1       3.290  -6.862   5.210  0.00  0.00    +0.266 C 
ATOM      9  O   UNL     1       3.537  -7.355   6.294  0.00  0.00    -0.268 OA
ATOM     10  N   UNL     1       2.231  -6.073   4.948  0.00  0.00    -0.283 N 
ENDROOT
BRANCH   3  11
ATOM     11  C   UNL     1       4.122  -5.999   0.491  0.00  0.00    +0.047 A 
ATOM     12  C   UNL     1       5.174  -5.389  -0.188  0.00  0.00    -0.037 A 
ATOM     13  C   UNL     1       4.971  -4.877  -1.454  0.00  0.00    +0.007 A 
ATOM     14  C   UNL     1       3.727  -4.968  -2.051  0.00  0.00    -0.047 A 
ATOM     15  C   UNL     1       2.676  -5.571  -1.386  0.00  0.00    +0.049 A 
ATOM     16  C   UNL     1       2.867  -6.095  -0.117  0.00  0.00    +0.127 A 
ATOM     17  C   UNL     1       3.516  -4.406  -3.433  0.00  0.00    +0.044 C 
ATOM     18  C   UNL     1       6.531  -5.288   0.459  0.00  0.00    +0.044 C 
BRANCH  16  19
ATOM     19  O   UNL     1       1.837  -6.693   0.535  0.00  0.00    -0.506 OA
ATOM     20  H   UNL     1       1.278  -6.081   1.033  0.00  0.00    +0.292 HD
ENDBRANCH  16  19
ENDBRANCH   3  11
BRANCH   1  25
ATOM     21  C   UNL     1       1.707  -2.129   2.391  0.00  0.00    +0.121 A 
ATOM     22  C   UNL     1       2.600  -1.434   3.193  0.00  0.00    +0.045 A 
ATOM     23  C   UNL     1       3.387  -2.116   4.101  0.00  0.00    +0.004 A 
ATOM     24  C   UNL     1       3.285  -3.490   4.210  0.00  0.00    +0.006 A 
ATOM     25  C   UNL     1       2.396  -4.186   3.412  0.00  0.00    -0.019 A 
ATOM     26  C   UNL     1       1.602  -3.507   2.506  0.00  0.00    +0.051 A 
BRANCH  21  27
ATOM     27  O   UNL     1       0.931  -1.460   1.497  0.00  0.00    -0.492 OA
BRANCH  27  28
ATOM     28  C   UNL     1       1.092  -0.042   1.433  0.00  0.00    +0.229 C 
BRANCH  28  30
ATOM     29  C   UNL     1       0.315   2.050   0.309  0.00  0.00    +0.007 C 
ATOM     30  C   UNL     1       0.143   0.531   0.378  0.00  0.00    +0.038 C 
ENDBRANCH  28  30
ENDBRANCH  27  28
ENDBRANCH  21  27
ENDBRANCH   1  25
BRANCH  10  31
ATOM     31  C   UNL     1       1.200  -5.671   5.909  0.00  0.00    +0.140 C 
BRANCH  31  32
ATOM     32  C   UNL     1       0.061  -6.693   5.892  0.00  0.00    +0.136 C 
ATOM     33  C   UNL     1      -1.084  -6.215   6.811  0.00  0.00    +0.035 C 
ATOM     34  C   UNL     1      -1.544  -7.540   7.479  0.00  0.00    +0.031 C 
ATOM     35  C   UNL     1      -0.197  -8.297   7.589  0.00  0.00    +0.160 C 
ATOM     36  O   UNL     1       0.528  -7.949   6.397  0.00  0.00    -0.375 OA
ENDBRANCH  31  32
ENDBRANCH  10  31
TORSDOF 8
