REMARK  Name = ZINC59578583
REMARK  9 active torsions:
REMARK  status: ('A' for Active; 'I' for Inactive)
REMARK    1  A    between atoms: C_1  and  C_2
REMARK    2  A    between atoms: C_2  and  O_3
REMARK    3  A    between atoms: O_3  and  C_4
REMARK    4  A    between atoms: N_9  and  C_13
REMARK    5  A    between atoms: C_13  and  N_14
REMARK    6  A    between atoms: C_17  and  C_20
REMARK    7  A    between atoms: C_20  and  C_21
REMARK    8  A    between atoms: C_21  and  C_22
REMARK    9  A    between atoms: C_25  and  C_28
REMARK                            x       y       z     vdW  Elec       q    Type
REMARK                         _______ _______ _______ _____ _____    ______ ____
ROOT
ATOM      1  N   UNL     1      -5.811  -6.561  -1.329  0.00  0.00    +0.393 N 
ATOM      2  C   UNL     1      -4.925  -7.221  -2.295  0.00  0.00    -0.076 C 
ATOM      3  C   UNL     1      -5.519  -7.104  -3.700  0.00  0.00    -0.015 C 
ATOM      4  C   UNL     1      -6.894  -7.778  -3.725  0.00  0.00    -0.014 C 
ATOM      5  C   UNL     1      -7.787  -7.131  -2.662  0.00  0.00    -0.015 C 
ATOM      6  C   UNL     1      -7.109  -7.247  -1.295  0.00  0.00    -0.076 C 
ATOM      7  H   UNL     1      -5.947  -5.600  -1.602  0.00  0.00    -0.079 HD
ENDROOT
BRANCH   1   8
ATOM      8  C   UNL     1      -5.199  -6.608   0.006  0.00  0.00    +0.071 C 
BRANCH   8  14
ATOM      9  C   UNL     1      -1.497  -1.836   0.006  0.00  0.00    +0.406 C 
ATOM     10  O   UNL     1      -0.523  -2.563  -0.007  0.00  0.00    -0.226 OA
ATOM     11  N   UNL     1      -2.735  -2.368   0.015  0.00  0.00    -0.228 N 
ATOM     12  C   UNL     1      -2.899  -3.750   0.010  0.00  0.00    +0.189 A 
ATOM     13  N   UNL     1      -4.004  -4.447   0.011  0.00  0.00    -0.149 NA
ATOM     14  N   UNL     1      -3.963  -5.823   0.004  0.00  0.00    -0.265 N 
ATOM     15  C   UNL     1      -2.753  -6.437  -0.005  0.00  0.00    +0.143 A 
ATOM     16  S   UNL     1      -2.381  -8.108  -0.015  0.00  0.00    -0.023 S 
ATOM     17  S   UNL     1      -1.653  -5.029  -0.010  0.00  0.00    -0.026 S 
ATOM     18  H   UNL     1      -3.512  -1.788   0.026  0.00  0.00    +0.160 HD
BRANCH   9  19
ATOM     19  O   UNL     1      -1.339  -0.499   0.012  0.00  0.00    -0.450 OA
BRANCH  19  21
ATOM     20  C   UNL     1      -0.019   1.526   0.010  0.00  0.00    +0.048 C 
ATOM     21  C   UNL     1       0.002  -0.004   0.002  0.00  0.00    +0.230 C 
ENDBRANCH  19  21
ENDBRANCH   9  19
ENDBRANCH   8  14
ENDBRANCH   1   8
BRANCH   4  22
ATOM     22  C   UNL     1      -7.528  -7.596  -5.105  0.00  0.00    +0.008 C 
BRANCH  22  23
ATOM     23  C   UNL     1      -8.844  -8.374  -5.168  0.00  0.00    +0.035 C 
BRANCH  23  24
ATOM     24  C   UNL     1      -9.469  -8.195  -6.528  0.00  0.00    -0.047 A 
ATOM     25  C   UNL     1     -10.339  -7.146  -6.756  0.00  0.00    +0.004 A 
ATOM     26  C   UNL     1     -10.913  -6.981  -8.003  0.00  0.00    +0.003 A 
ATOM     27  C   UNL     1     -10.614  -7.866  -9.023  0.00  0.00    -0.050 A 
ATOM     28  C   UNL     1      -9.743  -8.914  -8.795  0.00  0.00    +0.003 A 
ATOM     29  C   UNL     1      -9.166  -9.076  -7.549  0.00  0.00    +0.004 A 
ATOM     30  C   UNL     1     -11.240  -7.687 -10.382  0.00  0.00    +0.044 C 
ENDBRANCH  23  24
ENDBRANCH  22  23
ENDBRANCH   4  22
TORSDOF 7
