REMARK  Name = ZINC09587982
REMARK  8 active torsions:
REMARK  status: ('A' for Active; 'I' for Inactive)
REMARK    1  A    between atoms: C_1  and  C_2
REMARK    2  A    between atoms: C_5  and  C_8
REMARK    3  A    between atoms: C_8  and  O_9
REMARK    4  A    between atoms: O_9  and  C_10
REMARK    5  A    between atoms: C_12  and  C_20
REMARK    6  A    between atoms: N_22  and  C_23
REMARK    7  A    between atoms: C_23  and  C_24
REMARK    8  A    between atoms: C_24  and  C_25
REMARK                            x       y       z     vdW  Elec       q    Type
REMARK                         _______ _______ _______ _____ _____    ______ ____
ROOT
ATOM      1  C   UNL     1      -0.781   3.306   1.355  0.00  0.00    +0.216 A 
ATOM      2  C   UNL     1      -1.429   3.799   2.494  0.00  0.00    +0.081 A 
ATOM      3  C   UNL     1      -1.556   5.170   2.666  0.00  0.00    +0.051 A 
ATOM      4  C   UNL     1      -0.994   6.032   1.626  0.00  0.00    +0.013 A 
ATOM      5  C   UNL     1      -1.072   7.426   1.710  0.00  0.00    +0.011 A 
ATOM      6  C   UNL     1      -0.535   8.191   0.718  0.00  0.00    +0.001 A 
ATOM      7  C   UNL     1       0.091   7.602  -0.378  0.00  0.00    +0.002 A 
ATOM      8  C   UNL     1       0.184   6.248  -0.490  0.00  0.00    +0.028 A 
ATOM      9  C   UNL     1      -0.359   5.427   0.514  0.00  0.00    +0.076 A 
ATOM     10  N   UNL     1      -0.279   4.095   0.435  0.00  0.00    -0.213 NA
ENDROOT
BRANCH   3  11
ATOM     11  C   UNL     1      -2.233   5.737   3.853  0.00  0.00    +0.245 C 
ATOM     12  O   UNL     1      -2.241   6.939   4.032  0.00  0.00    -0.270 OA
ATOM     13  N   UNL     1      -2.841   4.920   4.736  0.00  0.00    -0.311 N 
ATOM     14  H   UNL     1      -2.835   3.961   4.593  0.00  0.00    +0.149 HD
BRANCH  13  15
ATOM     15  C   UNL     1      -3.511   5.481   5.912  0.00  0.00    +0.109 C 
BRANCH  15  16
ATOM     16  C   UNL     1      -4.115   4.349   6.744  0.00  0.00    +0.049 C 
BRANCH  16  17
ATOM     17  C   UNL     1      -4.805   4.926   7.953  0.00  0.00    -0.072 C 
ATOM     18  C   UNL     1      -6.078   5.149   7.877  0.00  0.00    -0.028 C 
ATOM     19  C   UNL     1      -6.898   5.728   8.993  0.00  0.00    +0.027 C 
ATOM     20  C   UNL     1      -6.140   5.615  10.318  0.00  0.00    +0.004 C 
ATOM     21  C   UNL     1      -4.719   6.155  10.111  0.00  0.00    +0.005 C 
ATOM     22  C   UNL     1      -3.974   5.202   9.172  0.00  0.00    +0.030 C 
ENDBRANCH  16  17
ENDBRANCH  15  16
ENDBRANCH  13  15
ENDBRANCH   3  11
BRANCH   1  23
ATOM     23  O   UNL     1      -0.663   1.964   1.200  0.00  0.00    -0.472 OA
BRANCH  23  24
ATOM     24  C   UNL     1       0.005   1.503   0.023  0.00  0.00    +0.266 C 
BRANCH  24  29
ATOM     25  C   UNL     1       0.140  -4.274   0.022  0.00  0.00    +0.044 C 
ATOM     26  C   UNL     1       0.105  -2.767   0.022  0.00  0.00    -0.050 A 
ATOM     27  C   UNL     1      -0.957  -2.101  -0.561  0.00  0.00    +0.004 A 
ATOM     28  C   UNL     1      -0.989  -0.719  -0.560  0.00  0.00    +0.007 A 
ATOM     29  C   UNL     1       0.040  -0.003   0.023  0.00  0.00    -0.010 A 
ATOM     30  C   UNL     1       1.104  -0.670   0.602  0.00  0.00    +0.007 A 
ATOM     31  C   UNL     1       1.134  -2.052   0.606  0.00  0.00    +0.004 A 
ENDBRANCH  24  29
ENDBRANCH  23  24
ENDBRANCH   1  23
TORSDOF 7
