REMARK  Name = ZINC02129012
REMARK  9 active torsions:
REMARK  status: ('A' for Active; 'I' for Inactive)
REMARK    1  A    between atoms: C_1  and  C_2
REMARK    2  A    between atoms: C_13  and  C_33
REMARK    3  A    between atoms: N_20  and  C_23
REMARK    4  A    between atoms: C_23  and  C_24
REMARK    5  A    between atoms: C_24  and  C_25
REMARK    6  A    between atoms: C_28  and  O_31
REMARK    7  A    between atoms: O_31  and  C_32
REMARK    8  A    between atoms: C_38  and  O_39
REMARK    9  A    between atoms: O_39  and  C_40
REMARK                            x       y       z     vdW  Elec       q    Type
REMARK                         _______ _______ _______ _____ _____    ______ ____
ROOT
ATOM      1  C   UNL     1       0.598   3.500  -1.863  0.00  0.00    +0.048 C 
ATOM      2  C   UNL     1      -0.782   3.021  -1.408  0.00  0.00    +0.151 C 
ATOM      3  C   UNL     1      -1.103   3.691  -0.093  0.00  0.00    +0.054 A 
ATOM      4  C   UNL     1      -1.077   3.042   1.093  0.00  0.00    -0.008 A 
ATOM      5  C   UNL     1      -1.434   4.008   2.111  0.00  0.00    +0.004 A 
ATOM      6  C   UNL     1      -1.569   3.915   3.500  0.00  0.00    +0.010 A 
ATOM      7  C   UNL     1      -1.932   5.059   4.166  0.00  0.00    +0.001 A 
ATOM      8  C   UNL     1      -2.157   6.256   3.506  0.00  0.00    +0.002 A 
ATOM      9  C   UNL     1      -2.030   6.376   2.132  0.00  0.00    +0.026 A 
ATOM     10  C   UNL     1      -1.663   5.230   1.429  0.00  0.00    +0.047 A 
ATOM     11  N   UNL     1      -1.454   5.000   0.100  0.00  0.00    -0.356 N 
ATOM     12  H   UNL     1      -1.541   5.663  -0.602  0.00  0.00    +0.166 HD
ATOM     13  C   UNL     1      -0.736   1.583   1.265  0.00  0.00    +0.072 C 
ATOM     14  C   UNL     1      -0.013   1.086   0.008  0.00  0.00    +0.122 C 
ATOM     15  N   UNL     1      -0.731   1.577  -1.183  0.00  0.00    -0.280 N 
ATOM     16  C   UNL     1      -1.304   0.699  -2.010  0.00  0.00    +0.234 C 
ATOM     17  O   UNL     1      -1.088  -0.480  -1.824  0.00  0.00    -0.274 OA
ATOM     18  C   UNL     1      -2.193   1.075  -3.151  0.00  0.00    +0.203 C 
ATOM     19  N   UNL     1      -2.413   2.510  -3.224  0.00  0.00    -0.290 N 
ATOM     20  C   UNL     1      -1.789   3.393  -2.445  0.00  0.00    +0.245 C 
ATOM     21  O   UNL     1      -2.054   4.568  -2.588  0.00  0.00    -0.273 OA
ENDROOT
BRANCH  13  22
ATOM     22  C   UNL     1      -2.003   0.791   1.464  0.00  0.00    +0.003 A 
ATOM     23  C   UNL     1      -2.986   0.805   0.494  0.00  0.00    +0.008 A 
ATOM     24  C   UNL     1      -4.146   0.075   0.674  0.00  0.00    +0.001 A 
ATOM     25  C   UNL     1      -4.330  -0.662   1.829  0.00  0.00    +0.004 A 
ATOM     26  C   UNL     1      -3.353  -0.674   2.805  0.00  0.00    +0.046 A 
ATOM     27  C   UNL     1      -2.185   0.053   2.624  0.00  0.00    +0.124 A 
BRANCH  27  28
ATOM     28  O   UNL     1      -1.221   0.042   3.583  0.00  0.00    -0.495 OA
ATOM     29  C   UNL     1      -1.477  -0.740   4.751  0.00  0.00    +0.277 C 
ENDBRANCH  27  28
ENDBRANCH  13  22
BRANCH  19  30
ATOM     30  C   UNL     1      -3.375   3.013  -4.208  0.00  0.00    +0.113 C 
BRANCH  30  31
ATOM     31  C   UNL     1      -2.653   3.300  -5.526  0.00  0.00    +0.054 C 
BRANCH  31  32
ATOM     32  C   UNL     1      -3.642   3.817  -6.538  0.00  0.00    -0.046 A 
ATOM     33  C   UNL     1      -4.306   2.933  -7.368  0.00  0.00    +0.007 A 
ATOM     34  C   UNL     1      -5.217   3.405  -8.293  0.00  0.00    +0.046 A 
ATOM     35  C   UNL     1      -5.458   4.767  -8.397  0.00  0.00    +0.120 A 
ATOM     36  C   UNL     1      -4.786   5.653  -7.567  0.00  0.00    +0.046 A 
ATOM     37  C   UNL     1      -3.880   5.176  -6.639  0.00  0.00    +0.007 A 
BRANCH  35  38
ATOM     38  O   UNL     1      -6.350   5.234  -9.309  0.00  0.00    -0.495 OA
ATOM     39  C   UNL     1      -7.005   4.265 -10.131  0.00  0.00    +0.277 C 
ENDBRANCH  35  38
ENDBRANCH  31  32
ENDBRANCH  30  31
ENDBRANCH  19  30
TORSDOF 6
