REMARK  Name = ZINC02110434
REMARK  10 active torsions:
REMARK  status: ('A' for Active; 'I' for Inactive)
REMARK    1  A    between atoms: C_1  and  C_2
REMARK    2  A    between atoms: C_2  and  C_3
REMARK    3  A    between atoms: C_2  and  C_4
REMARK    4  A    between atoms: C_6  and  C_22
REMARK    5  A    between atoms: C_7  and  O_21
REMARK    6  A    between atoms: C_8  and  C_10
REMARK    7  A    between atoms: N_12  and  N_13
REMARK    8  A    between atoms: C_14  and  C_15
REMARK    9  A    between atoms: C_22  and  C_23
REMARK   10  A    between atoms: C_22  and  C_24
REMARK                            x       y       z     vdW  Elec       q    Type
REMARK                         _______ _______ _______ _____ _____    ______ ____
ROOT
ATOM      1  C   UNL     1       1.168   2.096   0.002  0.00  0.00    -0.044 A 
ATOM      2  C   UNL     1       2.380   1.424  -0.013  0.00  0.00    +0.011 A 
ATOM      3  C   UNL     1       2.413   0.044  -0.021  0.00  0.00    -0.002 A 
ATOM      4  C   UNL     1       1.230  -0.680  -0.013  0.00  0.00    +0.132 A 
ATOM      5  C   UNL     1       0.002  -0.004   0.002  0.00  0.00    +0.080 A 
ATOM      6  C   UNL     1      -0.017   1.393   0.010  0.00  0.00    +0.020 A 
ENDROOT
BRANCH   5   7
ATOM      7  C   UNL     1      -1.262  -0.763   0.011  0.00  0.00    +0.267 C 
ATOM      8  O   UNL     1      -1.242  -1.979   0.004  0.00  0.00    -0.268 OA
ATOM      9  N   UNL     1      -2.441  -0.109   0.026  0.00  0.00    -0.203 N 
ATOM     10  H   UNL     1      -2.457   0.861   0.031  0.00  0.00    +0.178 HD
BRANCH   9  11
ATOM     11  N   UNL     1      -3.642  -0.830   0.034  0.00  0.00    -0.187 NA
ATOM     12  C   UNL     1      -4.780  -0.199   0.049  0.00  0.00    +0.145 C 
BRANCH  12  13
ATOM     13  C   UNL     1      -6.037  -0.953   0.057  0.00  0.00    +0.033 A 
ATOM     14  C   UNL     1      -7.338  -0.481   0.072  0.00  0.00    +0.018 A 
ATOM     15  C   UNL     1      -8.365  -1.395   0.077  0.00  0.00    +0.028 A 
ATOM     16  C   UNL     1      -8.073  -2.724   0.067  0.00  0.00    +0.079 A 
ATOM     17  S   UNL     1      -6.288  -2.721   0.042  0.00  0.00    -0.076 S 
ATOM     18 CL   UNL     1      -9.160  -4.077   0.070  0.00  0.00    -0.076 Cl
ENDBRANCH  12  13
ENDBRANCH   9  11
ENDBRANCH   5   7
BRANCH   1  20
ATOM     19  C   UNL     1       0.406   4.109  -1.230  0.00  0.00    +0.012 C 
ATOM     20  C   UNL     1       1.146   3.603   0.010  0.00  0.00    +0.013 C 
ATOM     21  C   UNL     1       0.429   4.096   1.268  0.00  0.00    +0.012 C 
ENDBRANCH   1  20
BRANCH   3  22
ATOM     22  C   UNL     1       3.736  -0.677  -0.037  0.00  0.00    +0.016 C 
ATOM     23  C   UNL     1       4.517  -0.281  -1.291  0.00  0.00    +0.012 C 
ATOM     24  C   UNL     1       4.541  -0.294   1.207  0.00  0.00    +0.012 C 
ENDBRANCH   3  22
BRANCH   4  25
ATOM     25  O   UNL     1       1.261  -2.036  -0.021  0.00  0.00    -0.506 OA
ATOM     26  H   UNL     1       1.261  -2.425  -0.906  0.00  0.00    +0.292 HD
ENDBRANCH   4  25
TORSDOF 6
