REMARK  Name = ZINC54647999
REMARK  11 active torsions:
REMARK  status: ('A' for Active; 'I' for Inactive)
REMARK    1  A    between atoms: C_1  and  C_2
REMARK    2  A    between atoms: C_7  and  C_8
REMARK    3  A    between atoms: C_7  and  C_9
REMARK    4  A    between atoms: N_12  and  C_15
REMARK    5  A    between atoms: C_15  and  C_16
REMARK    6  A    between atoms: C_16  and  C_17
REMARK    7  A    between atoms: N_19  and  C_20
REMARK    8  A    between atoms: C_21  and  C_35
REMARK    9  A    between atoms: C_22  and  C_25
REMARK   10  A    between atoms: C_35  and  O_37
REMARK   11  A    between atoms: O_37  and  C_38
REMARK                            x       y       z     vdW  Elec       q    Type
REMARK                         _______ _______ _______ _____ _____    ______ ____
ROOT
ATOM      1  C   UNL     1      -4.874  -2.930   1.814  0.00  0.00    +0.219 C 
ATOM      2  O   UNL     1      -5.310  -3.494   0.833  0.00  0.00    -0.275 OA
ATOM      3  N   UNL     1      -5.620  -2.852   2.934  0.00  0.00    -0.279 N 
ATOM      4  H   UNL     1      -5.271  -2.401   3.718  0.00  0.00    +0.155 HD
ENDROOT
BRANCH   3   5
ATOM      5  C   UNL     1      -6.885  -3.415   2.964  0.00  0.00    +0.086 A 
ATOM      6  C   UNL     1      -7.786  -3.425   4.018  0.00  0.00    +0.095 A 
ATOM      7  C   UNL     1      -9.055  -4.090   3.781  0.00  0.00    +0.005 A 
ATOM      8  C   UNL     1      -9.209  -4.629   2.544  0.00  0.00    +0.056 A 
ATOM      9  S   UNL     1      -7.676  -4.232   1.731  0.00  0.00    -0.080 S 
BRANCH   7  10
ATOM     10  C   UNL     1     -10.109  -4.177   4.819  0.00  0.00    -0.016 A 
ATOM     11  C   UNL     1      -9.795  -4.615   6.105  0.00  0.00    +0.009 A 
ATOM     12  C   UNL     1     -10.785  -4.692   7.059  0.00  0.00    +0.004 A 
ATOM     13  C   UNL     1     -12.094  -4.337   6.754  0.00  0.00    -0.044 A 
ATOM     14  C   UNL     1     -12.409  -3.898   5.487  0.00  0.00    -0.044 A 
ATOM     15  C   UNL     1     -11.419  -3.815   4.520  0.00  0.00    +0.012 A 
ATOM     16  C   UNL     1     -13.804  -3.482   5.096  0.00  0.00    +0.035 C 
ATOM     17  C   UNL     1     -14.825  -4.019   6.096  0.00  0.00    +0.005 C 
ATOM     18  C   UNL     1     -14.366  -3.637   7.509  0.00  0.00    +0.005 C 
ATOM     19  C   UNL     1     -13.123  -4.455   7.849  0.00  0.00    +0.035 C 
ENDBRANCH   7  10
BRANCH   6  20
ATOM     20  C   UNL     1      -7.474  -2.797   5.302  0.00  0.00    +0.342 C 
ATOM     21  O   UNL     1      -7.756  -1.629   5.493  0.00  0.00    -0.245 OA
BRANCH  20  22
ATOM     22  O   UNL     1      -6.873  -3.514   6.274  0.00  0.00    -0.464 OA
ATOM     23  C   UNL     1      -6.598  -2.837   7.503  0.00  0.00    +0.280 C 
ENDBRANCH  20  22
ENDBRANCH   6  20
ENDBRANCH   3   5
BRANCH   1  24
ATOM     24  C   UNL     1      -3.497  -2.317   1.781  0.00  0.00    +0.115 C 
BRANCH  24  25
ATOM     25  C   UNL     1      -2.870  -2.546   0.404  0.00  0.00    +0.125 C 
BRANCH  25  36
ATOM     26  C   UNL     1      -0.019   1.526   0.010  0.00  0.00    +0.021 C 
ATOM     27  C   UNL     1       0.002  -0.004   0.002  0.00  0.00    +0.051 C 
ATOM     28  C   UNL     1       0.777  -0.595  -1.201  0.00  0.00    +0.017 C 
ATOM     29  C   UNL     1       1.361  -1.934  -0.713  0.00  0.00    +0.014 C 
ATOM     30  C   UNL     1       0.910  -2.085   0.760  0.00  0.00    +0.082 C 
ATOM     31  C   UNL     1       0.737  -0.613   1.230  0.00  0.00    -0.010 C 
ATOM     32  C   UNL     1       2.093   0.060   1.451  0.00  0.00    +0.012 C 
ATOM     33  C   UNL     1      -0.130  -0.532   2.488  0.00  0.00    +0.012 C 
ATOM     34  C   UNL     1      -0.477  -2.702   0.736  0.00  0.00    +0.225 C 
ATOM     35  O   UNL     1      -0.633  -3.864   1.044  0.00  0.00    -0.275 OA
ATOM     36  N   UNL     1      -1.532  -1.950   0.372  0.00  0.00    -0.241 N 
ATOM     37  C   UNL     1      -1.387  -0.616   0.002  0.00  0.00    +0.228 C 
ATOM     38  O   UNL     1      -2.342   0.039  -0.355  0.00  0.00    -0.275 OA
ENDBRANCH  25  36
ENDBRANCH  24  25
ENDBRANCH   1  24
TORSDOF 7
