REMARK  Name = ZINC35193605
REMARK  8 active torsions:
REMARK  status: ('A' for Active; 'I' for Inactive)
REMARK    1  A    between atoms: C_1  and  C_2
REMARK    2  A    between atoms: C_2  and  O_3
REMARK    3  A    between atoms: O_3  and  C_4
REMARK    4  A    between atoms: C_4  and  C_6
REMARK    5  A    between atoms: C_6  and  C_32
REMARK    6  A    between atoms: C_7  and  C_26
REMARK    7  A    between atoms: C_21  and  C_24
REMARK    8  A    between atoms: C_22  and  N_23
REMARK                            x       y       z     vdW  Elec       q    Type
REMARK                         _______ _______ _______ _____ _____    ______ ____
ROOT
ATOM      1  C   UNL     1       1.465  -2.381   2.345  0.00  0.00    +0.202 C 
ATOM      2  C   UNL     1       1.437  -3.900   2.444  0.00  0.00    +0.082 C 
ATOM      3  C   UNL     1       2.455  -4.441   3.405  0.00  0.00    -0.055 C 
ATOM      4  C   UNL     1       3.593  -3.804   3.629  0.00  0.00    -0.029 C 
ATOM      5  C   UNL     1       4.603  -4.388   4.584  0.00  0.00    +0.036 C 
ATOM      6  C   UNL     1       5.155  -5.693   4.006  0.00  0.00    +0.005 C 
ATOM      7  C   UNL     1       6.477  -6.037   4.695  0.00  0.00    +0.000 C 
ATOM      8  C   UNL     1       6.244  -7.151   5.718  0.00  0.00    +0.000 C 
ATOM      9  C   UNL     1       5.097  -6.756   6.650  0.00  0.00    +0.000 C 
ATOM     10  C   UNL     1       3.932  -7.731   6.466  0.00  0.00    +0.000 C 
ATOM     11  C   UNL     1       2.732  -7.252   7.286  0.00  0.00    +0.000 C 
ATOM     12  C   UNL     1       1.638  -6.748   6.344  0.00  0.00    +0.000 C 
ATOM     13  C   UNL     1       2.120  -5.482   5.632  0.00  0.00    +0.004 C 
ATOM     14  C   UNL     1       2.179  -5.737   4.125  0.00  0.00    +0.032 C 
ATOM     15  C   UNL     1       3.868  -2.518   2.966  0.00  0.00    +0.073 C 
ATOM     16  C   UNL     1       2.869  -1.844   2.338  0.00  0.00    +0.051 C 
ENDROOT
BRANCH   2  17
ATOM     17  C   UNL     1       0.066  -4.331   2.897  0.00  0.00    -0.038 A 
ATOM     18  C   UNL     1      -0.788  -4.962   2.012  0.00  0.00    +0.004 A 
ATOM     19  C   UNL     1      -2.045  -5.357   2.428  0.00  0.00    +0.000 A 
ATOM     20  C   UNL     1      -2.449  -5.123   3.729  0.00  0.00    +0.000 A 
ATOM     21  C   UNL     1      -1.595  -4.493   4.614  0.00  0.00    +0.000 A 
ATOM     22  C   UNL     1      -0.336  -4.101   4.200  0.00  0.00    +0.004 A 
ENDBRANCH   2  17
BRANCH  16  23
ATOM     23  N   UNL     1       3.143  -0.669   1.695  0.00  0.00    -0.359 N 
ATOM     24  H   UNL     1       2.432  -0.186   1.246  0.00  0.00    +0.142 HD
ATOM     25  H   UNL     1       4.047  -0.319   1.689  0.00  0.00    +0.142 HD
ENDBRANCH  16  23
BRANCH   1  26
ATOM     26  C   UNL     1       0.773  -1.960   1.074  0.00  0.00    +0.334 C 
ATOM     27  O   UNL     1       0.348  -2.796   0.311  0.00  0.00    -0.249 OA
BRANCH  26  28
ATOM     28  O   UNL     1       0.627  -0.656   0.789  0.00  0.00    -0.464 OA
BRANCH  28  30
ATOM     29  C   UNL     1      -0.110   1.192  -0.583  0.00  0.00    +0.048 C 
ATOM     30  C   UNL     1      -0.039  -0.329  -0.432  0.00  0.00    +0.229 C 
ENDBRANCH  28  30
ENDBRANCH  26  28
ENDBRANCH   1  26
BRANCH  15  31
ATOM     31  C   UNL     1       5.193  -1.975   2.983  0.00  0.00    +0.101 C 
ATOM     32  N   UNL     1       6.245  -1.544   2.997  0.00  0.00    -0.191 NA
ENDBRANCH  15  31
BRANCH   1  33
ATOM     33  C   UNL     1       0.741  -1.816   3.495  0.00  0.00    +0.088 C 
ATOM     34  N   UNL     1       0.182  -1.379   4.382  0.00  0.00    -0.195 NA
ENDBRANCH   1  33
TORSDOF 7
