REMARK  Name = ZINC66140337
REMARK  8 active torsions:
REMARK  status: ('A' for Active; 'I' for Inactive)
REMARK    1  A    between atoms: C_1  and  C_2
REMARK    2  A    between atoms: C_2  and  C_3
REMARK    3  A    between atoms: C_3  and  C_5
REMARK    4  A    between atoms: C_3  and  O_18
REMARK    5  A    between atoms: C_7  and  C_11
REMARK    6  A    between atoms: C_14  and  N_17
REMARK    7  A    between atoms: O_18  and  C_19
REMARK    8  A    between atoms: C_22  and  C_25
REMARK                            x       y       z     vdW  Elec       q    Type
REMARK                         _______ _______ _______ _____ _____    ______ ____
ROOT
ATOM      1  C   UNL     1      -1.650  -2.034  -0.209  0.00  0.00    +0.077 A 
ATOM      2  C   UNL     1      -1.663  -2.673  -1.399  0.00  0.00    +0.056 A 
ATOM      3  C   UNL     1      -1.851  -4.047  -1.149  0.00  0.00    +0.093 A 
ATOM      4  N   UNL     1      -1.946  -4.212   0.153  0.00  0.00    -0.174 NA
ATOM      5  N   UNL     1      -1.817  -2.957   0.762  0.00  0.00    -0.277 N 
ATOM      6  H   UNL     1      -1.845  -2.781   1.716  0.00  0.00    +0.189 HD
ENDROOT
BRANCH   3   7
ATOM      7  C   UNL     1      -1.929  -5.118  -2.173  0.00  0.00    +0.002 A 
ATOM      8  C   UNL     1      -1.807  -4.801  -3.525  0.00  0.00    +0.012 A 
ATOM      9  C   UNL     1      -1.879  -5.798  -4.475  0.00  0.00    +0.023 A 
ATOM     10  C   UNL     1      -2.074  -7.118  -4.085  0.00  0.00    +0.025 A 
ATOM     11  C   UNL     1      -2.196  -7.436  -2.737  0.00  0.00    +0.023 A 
ATOM     12  C   UNL     1      -2.119  -6.443  -1.784  0.00  0.00    +0.012 A 
BRANCH  10  13
ATOM     13  N   UNL     1      -2.147  -8.126  -5.048  0.00  0.00    -0.358 N 
ATOM     14  H   UNL     1      -2.062  -7.905  -5.989  0.00  0.00    +0.142 HD
ATOM     15  H   UNL     1      -2.283  -9.047  -4.777  0.00  0.00    +0.142 HD
ENDBRANCH  10  13
ENDBRANCH   3   7
BRANCH   1  16
ATOM     16  C   UNL     1      -1.474  -0.552  -0.002  0.00  0.00    +0.221 C 
BRANCH  16  18
ATOM     17  C   UNL     1       0.196   1.304   0.104  0.00  0.00    +0.008 C 
ATOM     18  C   UNL     1       0.018  -0.213   0.018  0.00  0.00    +0.047 C 
ENDBRANCH  16  18
BRANCH  16  19
ATOM     19  O   UNL     1      -2.066  -0.171   1.242  0.00  0.00    -0.483 OA
BRANCH  19  20
ATOM     20  C   UNL     1      -2.633   1.062   1.303  0.00  0.00    +0.121 A 
ATOM     21  C   UNL     1      -2.680   1.863   0.171  0.00  0.00    +0.046 A 
ATOM     22  C   UNL     1      -3.258   3.116   0.236  0.00  0.00    +0.007 A 
ATOM     23  C   UNL     1      -3.789   3.572   1.428  0.00  0.00    -0.050 A 
ATOM     24  C   UNL     1      -3.744   2.777   2.558  0.00  0.00    +0.007 A 
ATOM     25  C   UNL     1      -3.173   1.520   2.497  0.00  0.00    +0.046 A 
ATOM     26  C   UNL     1      -4.419   4.940   1.496  0.00  0.00    +0.044 C 
ENDBRANCH  19  20
ENDBRANCH  16  19
ENDBRANCH   1  16
TORSDOF 6
