REMARK  Name = ZINC18416466
REMARK  11 active torsions:
REMARK  status: ('A' for Active; 'I' for Inactive)
REMARK    1  A    between atoms: C_1  and  C_2
REMARK    2  A    between atoms: C_2  and  C_3
REMARK    3  A    between atoms: C_3  and  C_4
REMARK    4  A    between atoms: C_3  and  C_6
REMARK    5  A    between atoms: C_3  and  N_8
REMARK    6  A    between atoms: C_4  and  C_5
REMARK    7  A    between atoms: C_9  and  C_11
REMARK    8  A    between atoms: C_11  and  N_12
REMARK    9  A    between atoms: C_15  and  C_19
REMARK   10  A    between atoms: C_15  and  C_20
REMARK   11  A    between atoms: C_23  and  N_26
REMARK                            x       y       z     vdW  Elec       q    Type
REMARK                         _______ _______ _______ _____ _____    ______ ____
ROOT
ATOM      1  N   UNL     1       3.763   3.337   3.055  0.00  0.00    -0.215 N 
ATOM      2  C   UNL     1       4.460   2.184   3.044  0.00  0.00    +0.251 C 
ATOM      3  O   UNL     1       4.532   1.381   2.139  0.00  0.00    -0.272 OA
ATOM      4  C   UNL     1       5.135   2.099   4.398  0.00  0.00    +0.135 C 
ATOM      5  N   UNL     1       4.699   3.330   5.080  0.00  0.00    -0.281 N 
ATOM      6  C   UNL     1       3.906   3.989   4.215  0.00  0.00    +0.310 C 
ATOM      7  O   UNL     1       3.377   5.055   4.461  0.00  0.00    -0.252 OA
ATOM      8  C   UNL     1       6.657   2.081   4.241  0.00  0.00    +0.047 C 
ATOM      9  H   UNL     1       4.939   3.613   5.976  0.00  0.00    +0.152 HD
ENDROOT
BRANCH   4  10
ATOM     10  C   UNL     1       4.664   0.882   5.151  0.00  0.00    -0.015 A 
ATOM     11  C   UNL     1       4.271  -0.249   4.459  0.00  0.00    +0.008 A 
ATOM     12  C   UNL     1       3.844  -1.368   5.149  0.00  0.00    +0.033 A 
ATOM     13  C   UNL     1       3.799  -1.352   6.530  0.00  0.00    +0.126 A 
ATOM     14  C   UNL     1       4.186  -0.220   7.222  0.00  0.00    +0.033 A 
ATOM     15  C   UNL     1       4.619   0.897   6.532  0.00  0.00    +0.008 A 
BRANCH  13  16
ATOM     16  N   UNL     1       3.335  -2.548   7.269  0.00  0.00    +0.056 N 
ATOM     17  O   UNL     1       3.294  -2.534   8.486  0.00  0.00    -0.126 OA
ATOM     18  O   UNL     1       2.993  -3.546   6.660  0.00  0.00    -0.126 OA
ENDBRANCH  13  16
ENDBRANCH   4  10
BRANCH   1  19
ATOM     19  C   UNL     1       2.954   3.821   1.934  0.00  0.00    +0.213 C 
BRANCH  19  21
ATOM     20  N   UNL     1       0.618   3.617   1.145  0.00  0.00    -0.298 N 
ATOM     21  C   UNL     1       1.546   3.299   2.069  0.00  0.00    +0.232 C 
ATOM     22  O   UNL     1       1.249   2.592   3.009  0.00  0.00    -0.274 OA
ATOM     23  H   UNL     1       0.856   4.182   0.393  0.00  0.00    +0.150 HD
BRANCH  20  24
ATOM     24  C   UNL     1      -0.750   3.109   1.275  0.00  0.00    +0.095 C 
BRANCH  24  26
ATOM     25  C   UNL     1      -0.013   1.086   0.008  0.00  0.00    +0.007 C 
ATOM     26  C   UNL     1      -0.729   1.579   1.267  0.00  0.00    +0.035 C 
ENDBRANCH  24  26
BRANCH  24  27
ATOM     27  C   UNL     1      -1.595   3.614   0.104  0.00  0.00    +0.035 C 
ATOM     28  C   UNL     1      -3.024   3.084   0.241  0.00  0.00    +0.007 C 
ENDBRANCH  24  27
BRANCH  24  29
ATOM     29  C   UNL     1      -1.331   3.585   2.541  0.00  0.00    -0.080 C 
ATOM     30  C   UNL     1      -1.794   3.965   3.551  0.00  0.00    +0.006 C 
ENDBRANCH  24  29
ENDBRANCH  20  24
ENDBRANCH  19  21
ENDBRANCH   1  19
TORSDOF 8
