REMARK  Name = ZINC23682494
REMARK  8 active torsions:
REMARK  status: ('A' for Active; 'I' for Inactive)
REMARK    1  A    between atoms: C_1  and  C_2
REMARK    2  A    between atoms: C_6  and  O_8
REMARK    3  A    between atoms: O_8  and  C_9
REMARK    4  A    between atoms: C_9  and  C_11
REMARK    5  A    between atoms: C_11  and  N_12
REMARK    6  A    between atoms: C_17  and  C_24
REMARK    7  A    between atoms: C_20  and  C_22
REMARK    8  A    between atoms: C_20  and  C_23
REMARK                            x       y       z     vdW  Elec       q    Type
REMARK                         _______ _______ _______ _____ _____    ______ ____
ROOT
ATOM      1  N   UNL     1      -0.716  -1.298   1.790  0.00  0.00    -0.213 N 
ATOM      2  C   UNL     1       0.304  -0.560   1.300  0.00  0.00    +0.247 C 
ATOM      3  O   UNL     1       1.363  -0.355   1.855  0.00  0.00    -0.273 OA
ATOM      4  C   UNL     1      -0.163  -0.044  -0.039  0.00  0.00    +0.113 C 
ATOM      5  C   UNL     1      -0.194   1.479  -0.045  0.00  0.00    +0.038 C 
ATOM      6  C   UNL     1       1.232   2.027  -0.112  0.00  0.00    -0.011 C 
ATOM      7  C   UNL     1       1.863   1.576  -1.427  0.00  0.00    +0.009 C 
ATOM      8  C   UNL     1       1.954   0.056  -1.496  0.00  0.00    -0.032 C 
ATOM      9  C   UNL     1       0.635  -0.629  -1.186  0.00  0.00    +0.041 C 
ATOM     10  C   UNL     1       3.058  -0.446  -0.560  0.00  0.00    +0.011 C 
ATOM     11  C   UNL     1       2.362  -0.325  -2.936  0.00  0.00    +0.011 C 
ATOM     12  C   UNL     1       1.189   3.557  -0.066  0.00  0.00    +0.007 C 
ATOM     13  N   UNL     1      -1.554  -0.543  -0.131  0.00  0.00    -0.285 N 
ATOM     14  C   UNL     1      -1.775  -1.275   0.974  0.00  0.00    +0.310 C 
ATOM     15  O   UNL     1      -2.820  -1.851   1.207  0.00  0.00    -0.252 OA
ATOM     16  H   UNL     1      -2.175  -0.282  -1.000  0.00  0.00    +0.151 HD
ENDROOT
BRANCH   1  17
ATOM     17  C   UNL     1      -0.666  -2.030   3.058  0.00  0.00    +0.238 C 
BRANCH  17  18
ATOM     18  C   UNL     1      -0.149  -3.424   2.812  0.00  0.00    +0.330 C 
ATOM     19  O   UNL     1       0.148  -3.770   1.693  0.00  0.00    -0.249 OA
BRANCH  18  20
ATOM     20  O   UNL     1      -0.018  -4.282   3.837  0.00  0.00    -0.425 OA
BRANCH  20  26
ATOM     21  C   UNL     1      -1.228  -8.969   3.216  0.00  0.00    +0.044 C 
ATOM     22  C   UNL     1      -0.205  -7.863   3.221  0.00  0.00    -0.047 A 
ATOM     23  C   UNL     1       1.115  -8.141   2.917  0.00  0.00    +0.003 A 
ATOM     24  C   UNL     1       2.056  -7.128   2.921  0.00  0.00    +0.004 A 
ATOM     25  C   UNL     1       1.679  -5.835   3.229  0.00  0.00    +0.046 A 
ATOM     26  C   UNL     1       0.356  -5.553   3.534  0.00  0.00    +0.132 A 
ATOM     27  C   UNL     1      -0.586  -6.572   3.535  0.00  0.00    +0.049 A 
ENDBRANCH  20  26
ENDBRANCH  18  20
ENDBRANCH  17  18
ENDBRANCH   1  17
TORSDOF 4
