REMARK  Name = ZINC32598540
REMARK  10 active torsions:
REMARK  status: ('A' for Active; 'I' for Inactive)
REMARK    1  A    between atoms: C_1  and  C_2
REMARK    2  A    between atoms: C_2  and  C_3
REMARK    3  A    between atoms: C_3  and  C_35
REMARK    4  A    between atoms: N_19  and  C_34
REMARK    5  A    between atoms: C_21  and  S_22
REMARK    6  A    between atoms: S_22  and  C_23
REMARK    7  A    between atoms: C_23  and  C_24
REMARK    8  A    between atoms: N_26  and  C_27
REMARK    9  A    between atoms: C_30  and  C_33
REMARK   10  A    between atoms: C_35  and  C_36
REMARK                            x       y       z     vdW  Elec       q    Type
REMARK                         _______ _______ _______ _____ _____    ______ ____
ROOT
ATOM      1  C   UNL     1      -4.077  -1.525   1.124  0.00  0.00    +0.006 C 
ATOM      2  C   UNL     1      -4.803  -2.782   0.652  0.00  0.00    +0.047 C 
ATOM      3  C   UNL     1      -4.189  -4.005   1.280  0.00  0.00    -0.038 A 
ATOM      4  C   UNL     1      -4.975  -5.084   1.624  0.00  0.00    +0.004 A 
ATOM      5  C   UNL     1      -4.394  -6.221   2.159  0.00  0.00    +0.000 A 
ATOM      6  C   UNL     1      -3.025  -6.285   2.348  0.00  0.00    +0.001 A 
ATOM      7  C   UNL     1      -2.228  -5.208   2.015  0.00  0.00    +0.010 A 
ATOM      8  C   UNL     1      -2.810  -4.053   1.497  0.00  0.00    -0.000 A 
ATOM      9  C   UNL     1      -1.986  -2.881   1.141  0.00  0.00    +0.046 C 
ATOM     10  C   UNL     1      -2.589  -1.672   0.950  0.00  0.00    +0.043 C 
ATOM     11  C   UNL     1      -1.813  -0.540   0.595  0.00  0.00    +0.253 C 
ATOM     12  O   UNL     1      -2.315   0.564   0.468  0.00  0.00    -0.270 OA
ATOM     13  N   UNL     1      -0.496  -0.741   0.410  0.00  0.00    -0.209 N 
ATOM     14  C   UNL     1       0.051  -2.084   0.091  0.00  0.00    +0.278 C 
ATOM     15  N   UNL     1      -0.614  -3.012   1.015  0.00  0.00    -0.308 N 
ATOM     16  N   UNL     1       1.480  -1.933   0.375  0.00  0.00    -0.219 N 
ATOM     17  N   UNL     1       1.699  -0.552   0.504  0.00  0.00    -0.159 NA
ATOM     18  C   UNL     1       0.583   0.106   0.498  0.00  0.00    +0.183 C 
ATOM     19  C   UNL     1       2.474  -3.002   0.499  0.00  0.00    +0.155 C 
ATOM     20  H   UNL     1      -0.023  -3.761   1.562  0.00  0.00    +0.149 HD
ENDROOT
BRANCH   1  22
ATOM     21  C   UNL     1      -4.146  -0.499  -1.153  0.00  0.00    +0.005 C 
ATOM     22  C   UNL     1      -4.564  -0.325   0.309  0.00  0.00    +0.009 C 
ENDBRANCH   1  22
BRANCH   1  23
ATOM     23  C   UNL     1      -4.389  -1.288   2.603  0.00  0.00    +0.009 C 
ATOM     24  C   UNL     1      -5.905  -1.213   2.798  0.00  0.00    +0.005 C 
ENDBRANCH   1  23
BRANCH  18  25
ATOM     25  S   UNL     1       0.464   1.861   0.598  0.00  0.00    -0.079 S 
BRANCH  25  26
ATOM     26  C   UNL     1       2.189   2.413   0.701  0.00  0.00    +0.173 C 
BRANCH  26  27
ATOM     27  C   UNL     1       2.230   3.917   0.792  0.00  0.00    +0.227 C 
ATOM     28  O   UNL     1       1.198   4.554   0.789  0.00  0.00    -0.275 OA
ATOM     29  N   UNL     1       3.415   4.555   0.878  0.00  0.00    -0.285 N 
ATOM     30  H   UNL     1       4.353   3.987   0.788  0.00  0.00    +0.155 HD
BRANCH  29  31
ATOM     31  C   UNL     1       3.451   5.939   1.081  0.00  0.00    +0.033 A 
ATOM     32  C   UNL     1       4.457   6.701   0.501  0.00  0.00    +0.023 A 
ATOM     33  C   UNL     1       4.487   8.067   0.700  0.00  0.00    +0.005 A 
ATOM     34  C   UNL     1       3.524   8.675   1.483  0.00  0.00    -0.050 A 
ATOM     35  C   UNL     1       2.524   7.918   2.067  0.00  0.00    +0.005 A 
ATOM     36  C   UNL     1       2.485   6.552   1.867  0.00  0.00    +0.023 A 
ATOM     37  C   UNL     1       3.563  10.165   1.703  0.00  0.00    +0.044 C 
ENDBRANCH  29  31
ENDBRANCH  26  27
ENDBRANCH  25  26
ENDBRANCH  18  25
TORSDOF 6
