REMARK  Name = ZINC14898971
REMARK  7 active torsions:
REMARK  status: ('A' for Active; 'I' for Inactive)
REMARK    1  A    between atoms: C_8  and  C_13
REMARK    2  A    between atoms: C_13  and  C_14
REMARK    3  A    between atoms: C_14  and  C_15
REMARK    4  A    between atoms: N_17  and  C_18
REMARK    5  A    between atoms: C_18  and  C_19
REMARK    6  A    between atoms: C_19  and  N_20
REMARK    7  A    between atoms: C_24  and  C_25
REMARK                            x       y       z     vdW  Elec       q    Type
REMARK                         _______ _______ _______ _____ _____    ______ ____
ROOT
ATOM      1  C   UNL     1      -1.124   1.492   3.019  0.00  0.00    +0.213 C 
ATOM      2  O   UNL     1      -0.329   0.603   2.801  0.00  0.00    -0.276 OA
ATOM      3  N   UNL     1      -1.309   1.936   4.278  0.00  0.00    -0.314 N 
ATOM      4  H   UNL     1      -1.946   2.647   4.453  0.00  0.00    +0.149 HD
ENDROOT
BRANCH   1   5
ATOM      5  C   UNL     1      -1.907   2.099   1.883  0.00  0.00    +0.096 C 
BRANCH   5   6
ATOM      6  C   UNL     1      -1.511   1.419   0.571  0.00  0.00    +0.022 C 
BRANCH   6  14
ATOM      7  C   UNL     1       1.405   0.925  -3.454  0.00  0.00    +0.000 A 
ATOM      8  C   UNL     1       1.932   2.189  -3.262  0.00  0.00    +0.002 A 
ATOM      9  C   UNL     1       1.197   3.152  -2.599  0.00  0.00    +0.023 A 
ATOM     10  C   UNL     1      -0.069   2.848  -2.118  0.00  0.00    +0.037 A 
ATOM     11  C   UNL     1      -0.606   1.586  -2.336  0.00  0.00    -0.025 A 
ATOM     12  C   UNL     1       0.137   0.625  -2.993  0.00  0.00    +0.005 A 
ATOM     13  C   UNL     1      -2.004   1.271  -1.872  0.00  0.00    +0.049 C 
ATOM     14  C   UNL     1      -2.305   2.035  -0.583  0.00  0.00    +0.080 C 
ATOM     15  C   UNL     1      -1.913   3.480  -0.745  0.00  0.00    +0.221 C 
ATOM     16  O   UNL     1      -2.597   4.348  -0.245  0.00  0.00    -0.275 OA
ATOM     17  N   UNL     1      -0.812   3.817  -1.438  0.00  0.00    -0.285 N 
ATOM     18  H   UNL     1      -0.529   4.745  -1.466  0.00  0.00    +0.155 HD
ENDBRANCH   6  14
ENDBRANCH   5   6
ENDBRANCH   1   5
BRANCH   3  19
ATOM     19  C   UNL     1      -0.549   1.346   5.382  0.00  0.00    +0.123 C 
BRANCH  19  20
ATOM     20  C   UNL     1      -0.945   2.026   6.695  0.00  0.00    +0.136 C 
BRANCH  20  21
ATOM     21  N   UNL     1      -0.184   1.436   7.799  0.00  0.00    -0.227 N 
ATOM     22  C   UNL     1       0.984   1.959   8.132  0.00  0.00    +0.260 C 
ATOM     23  O   UNL     1       1.445   2.920   7.543  0.00  0.00    -0.269 OA
ATOM     24  C   UNL     1       1.700   1.319   9.253  0.00  0.00    +0.080 C 
ATOM     25  C   UNL     1       2.899   1.633   9.806  0.00  0.00    +0.028 C 
ATOM     26  S   UNL     1       0.555   0.015   9.681  0.00  0.00    -0.026 S 
ATOM     27  C   UNL     1      -0.694   0.375   8.457  0.00  0.00    +0.286 C 
ATOM     28  O   UNL     1      -1.749  -0.199   8.263  0.00  0.00    -0.262 OA
BRANCH  25  29
ATOM     29  C   UNL     1       3.343   0.955  11.032  0.00  0.00    -0.024 A 
ATOM     30  C   UNL     1       2.463   0.122  11.733  0.00  0.00    +0.011 A 
ATOM     31  C   UNL     1       2.887  -0.514  12.879  0.00  0.00    +0.039 A 
ATOM     32  C   UNL     1       4.180  -0.323  13.344  0.00  0.00    +0.123 A 
ATOM     33  C   UNL     1       5.055   0.505  12.657  0.00  0.00    +0.039 A 
ATOM     34  C   UNL     1       4.646   1.143  11.507  0.00  0.00    +0.011 A 
ATOM     35  F   UNL     1       4.588  -0.946  14.471  0.00  0.00    -0.205 F 
ENDBRANCH  25  29
ENDBRANCH  20  21
ENDBRANCH  19  20
ENDBRANCH   3  19
TORSDOF 7
