REMARK  Name = ZINC66540175
REMARK  7 active torsions:
REMARK  status: ('A' for Active; 'I' for Inactive)
REMARK    1  A    between atoms: C_1  and  N_2
REMARK    2  A    between atoms: N_2  and  C_3
REMARK    3  A    between atoms: N_2  and  C_14
REMARK    4  A    between atoms: C_3  and  C_4
REMARK    5  A    between atoms: C_7  and  C_9
REMARK    6  A    between atoms: C_14  and  C_16
REMARK    7  A    between atoms: C_14  and  C_22
REMARK                            x       y       z     vdW  Elec       q    Type
REMARK                         _______ _______ _______ _____ _____    ______ ____
ROOT
ATOM      1  C   UNL     1       0.617  -0.739   1.331  0.00  0.00    +0.106 C 
ATOM      2  N   UNL     1       0.124  -0.365  -0.002  0.00  0.00    -0.288 NA
ENDROOT
BRANCH   2   3
ATOM      3  C   UNL     1       0.890  -1.043  -1.056  0.00  0.00    +0.143 C 
BRANCH   3   4
ATOM      4  C   UNL     1       2.311  -0.542  -1.045  0.00  0.00    +0.094 A 
ATOM      5  C   UNL     1       3.350  -1.120  -0.417  0.00  0.00    +0.222 A 
ATOM      6  O   UNL     1       4.439  -0.360  -0.656  0.00  0.00    -0.443 OA
ATOM      7  C   UNL     1       4.054   0.673  -1.427  0.00  0.00    +0.234 A 
ATOM      8  N   UNL     1       2.766   0.558  -1.666  0.00  0.00    -0.212 NA
BRANCH   7   9
ATOM      9  C   UNL     1       4.927   1.747  -1.923  0.00  0.00    +0.074 A 
ATOM     10  C   UNL     1       6.283   1.929  -1.726  0.00  0.00    +0.021 A 
ATOM     11  C   UNL     1       6.887   3.023  -2.299  0.00  0.00    +0.008 A 
ATOM     12  C   UNL     1       6.139   3.885  -3.036  0.00  0.00    +0.046 A 
ATOM     13  S   UNL     1       4.514   3.152  -2.945  0.00  0.00    -0.092 S 
ENDBRANCH   7   9
ENDBRANCH   3   4
ENDBRANCH   2   3
BRANCH   2  14
ATOM     14  C   UNL     1      -1.312  -0.647  -0.131  0.00  0.00    +0.136 C 
BRANCH  14  15
ATOM     15  C   UNL     1      -1.776  -0.268  -1.513  0.00  0.00    -0.024 A 
ATOM     16  C   UNL     1      -1.408   0.948  -2.057  0.00  0.00    +0.005 A 
ATOM     17  C   UNL     1      -1.834   1.296  -3.325  0.00  0.00    +0.000 A 
ATOM     18  C   UNL     1      -2.628   0.427  -4.050  0.00  0.00    +0.000 A 
ATOM     19  C   UNL     1      -2.996  -0.790  -3.506  0.00  0.00    +0.000 A 
ATOM     20  C   UNL     1      -2.567  -1.139  -2.240  0.00  0.00    +0.005 A 
ENDBRANCH  14  15
BRANCH  14  21
ATOM     21  C   UNL     1      -2.075   0.154   0.893  0.00  0.00    +0.063 A 
ATOM     22  C   UNL     1      -3.299  -0.304   1.344  0.00  0.00    +0.025 A 
ATOM     23  C   UNL     1      -3.993   0.441   2.286  0.00  0.00    +0.003 A 
ATOM     24  C   UNL     1      -3.427   1.622   2.740  0.00  0.00    +0.020 A 
ATOM     25  C   UNL     1      -2.199   2.016   2.243  0.00  0.00    +0.111 A 
ATOM     26  N   UNL     1      -1.565   1.280   1.351  0.00  0.00    -0.258 NA
ENDBRANCH  14  21
ENDBRANCH   2  14
TORSDOF 6
