REMARK  Name = ZINC40259267
REMARK  3 active torsions:
REMARK  status: ('A' for Active; 'I' for Inactive)
REMARK    1  A    between atoms: C_2  and  C_13
REMARK    2  A    between atoms: C_13  and  C_15
REMARK    3  A    between atoms: C_13  and  O_21
REMARK                            x       y       z     vdW  Elec       q    Type
REMARK                         _______ _______ _______ _____ _____    ______ ____
ROOT
ATOM      1  C   UNL     1      -0.017   1.380   0.010  0.00  0.00    +0.056 A 
ATOM      2  C   UNL     1       1.176   2.082   0.002  0.00  0.00    -0.001 A 
ATOM      3  C   UNL     1       2.382   1.406  -0.014  0.00  0.00    +0.027 A 
ATOM      4  C   UNL     1       2.404   0.021  -0.022  0.00  0.00    +0.065 A 
ATOM      5  C   UNL     1       1.212  -0.683  -0.013  0.00  0.00    +0.163 A 
ATOM      6  C   UNL     1       0.002  -0.004   0.002  0.00  0.00    +0.162 A 
ATOM      7  O   UNL     1      -1.167  -0.709   0.010  0.00  0.00    -0.488 OA
ATOM      8  C   UNL     1      -1.468  -1.433  -1.185  0.00  0.00    +0.232 C 
ATOM      9  C   UNL     1      -0.780  -2.789  -1.182  0.00  0.00    +0.082 C 
ATOM     10  C   UNL     1       0.736  -2.669  -1.212  0.00  0.00    +0.232 C 
ATOM     11  O   UNL     1       1.220  -2.048  -0.020  0.00  0.00    -0.488 OA
ATOM     12 BR   UNL     1       4.006   2.374  -0.026  0.00  0.00    -0.050 Br
ENDROOT
BRANCH   2  13
ATOM     13  C   UNL     1       1.160   3.589   0.011  0.00  0.00    +0.149 C 
BRANCH  13  14
ATOM     14  C   UNL     1       1.266   4.109  -1.425  0.00  0.00    +0.022 C 
ATOM     15  C   UNL     1       0.020   3.695  -2.210  0.00  0.00    +0.006 C 
ATOM     16  C   UNL     1       0.126   4.214  -3.646  0.00  0.00    +0.000 C 
ATOM     17  C   UNL     1       0.236   5.740  -3.629  0.00  0.00    +0.000 C 
ATOM     18  C   UNL     1       1.482   6.154  -2.843  0.00  0.00    +0.000 C 
ATOM     19  C   UNL     1       1.375   5.635  -1.408  0.00  0.00    +0.006 C 
ENDBRANCH  13  14
BRANCH  13  20
ATOM     20  O   UNL     1      -0.061   4.049   0.594  0.00  0.00    -0.387 OA
ATOM     21  H   UNL     1      -0.855   3.758   0.126  0.00  0.00    +0.210 HD
ENDBRANCH  13  20
ENDBRANCH   2  13
TORSDOF 3
