REMARK  Name = ZINC20701865
REMARK  7 active torsions:
REMARK  status: ('A' for Active; 'I' for Inactive)
REMARK    1  A    between atoms: C_1  and  C_2
REMARK    2  A    between atoms: C_2  and  C_3
REMARK    3  A    between atoms: C_3  and  C_5
REMARK    4  A    between atoms: C_3  and  O_6
REMARK    5  A    between atoms: O_6  and  C_7
REMARK    6  A    between atoms: C_20  and  C_23
REMARK    7  A    between atoms: C_28  and  O_29
REMARK                            x       y       z     vdW  Elec       q    Type
REMARK                         _______ _______ _______ _____ _____    ______ ____
ROOT
ATOM      1  C   UNL     1       4.079   0.021   0.017  0.00  0.00    +0.121 A 
ATOM      2  C   UNL     1       4.660   0.238   1.258  0.00  0.00    +0.047 A 
ATOM      3  C   UNL     1       4.093   1.146   2.129  0.00  0.00    +0.027 A 
ATOM      4  C   UNL     1       2.945   1.838   1.763  0.00  0.00    +0.032 A 
ATOM      5  C   UNL     1       2.361   1.629   0.524  0.00  0.00    -0.016 A 
ATOM      6  C   UNL     1       2.937   0.713  -0.346  0.00  0.00    +0.051 A 
ATOM      7  C   UNL     1       1.128   2.355   0.088  0.00  0.00    +0.049 C 
ATOM      8  C   UNL     1      -0.087   1.459   0.136  0.00  0.00    -0.023 C 
ATOM      9  C   UNL     1      -1.141   2.144   0.508  0.00  0.00    -0.030 C 
ATOM     10  C   UNL     1      -0.770   3.593   0.763  0.00  0.00    +0.033 C 
ATOM     11  C   UNL     1       0.766   3.535   1.010  0.00  0.00    +0.029 C 
ATOM     12  C   UNL     1       0.977   3.138   2.474  0.00  0.00    +0.109 C 
ATOM     13  N   UNL     1       2.379   2.752   2.663  0.00  0.00    -0.336 N 
ATOM     14  H   UNL     1       2.959   3.178   3.495  0.00  0.00    +0.147 HD
ENDROOT
BRANCH  12  15
ATOM     15  C   UNL     1       0.083   1.973   2.815  0.00  0.00    +0.017 A 
ATOM     16  C   UNL     1       0.490   0.683   2.534  0.00  0.00    +0.029 A 
ATOM     17  C   UNL     1      -0.330  -0.386   2.846  0.00  0.00    +0.043 A 
ATOM     18  C   UNL     1      -1.560  -0.167   3.441  0.00  0.00    +0.043 A 
ATOM     19  C   UNL     1      -1.971   1.122   3.725  0.00  0.00    +0.084 A 
ATOM     20  C   UNL     1      -1.146   2.196   3.417  0.00  0.00    +0.140 A 
ATOM     21 CL   UNL     1      -3.513   1.397   4.473  0.00  0.00    -0.080 Cl
ATOM     22 CL   UNL     1       0.184  -2.006   2.490  0.00  0.00    -0.083 Cl
BRANCH  20  23
ATOM     23  O   UNL     1      -1.546   3.464   3.701  0.00  0.00    -0.505 OA
ATOM     24  H   UNL     1      -2.521   3.640   4.178  0.00  0.00    +0.292 HD
ENDBRANCH  20  23
ENDBRANCH  12  15
BRANCH   1  25
ATOM     25  O   UNL     1       4.633  -0.873  -0.845  0.00  0.00    -0.489 OA
BRANCH  25  26
ATOM     26  C   UNL     1       5.750  -1.627  -0.368  0.00  0.00    +0.170 C 
ATOM     27  C   UNL     1       7.035  -0.824  -0.579  0.00  0.00    +0.052 C 
BRANCH  26  29
ATOM     28  C   UNL     1       4.611  -3.803  -0.828  0.00  0.00    +0.007 C 
ATOM     29  C   UNL     1       5.840  -2.946  -1.138  0.00  0.00    +0.041 C 
ENDBRANCH  26  29
ENDBRANCH  25  26
ENDBRANCH   1  25
TORSDOF 5
