REMARK  Name = ZINC08892423
REMARK  9 active torsions:
REMARK  status: ('A' for Active; 'I' for Inactive)
REMARK    1  A    between atoms: C_1  and  C_2
REMARK    2  A    between atoms: C_3  and  C_30
REMARK    3  A    between atoms: C_4  and  C_23
REMARK    4  A    between atoms: C_10  and  C_15
REMARK    5  A    between atoms: C_18  and  O_21
REMARK    6  A    between atoms: O_21  and  C_22
REMARK    7  A    between atoms: C_27  and  O_29
REMARK    8  A    between atoms: C_30  and  O_32
REMARK    9  A    between atoms: O_32  and  C_33
REMARK                            x       y       z     vdW  Elec       q    Type
REMARK                         _______ _______ _______ _____ _____    ______ ____
ROOT
ATOM      1  C   UNL     1      -2.711   6.746  -2.431  0.00  0.00    +0.061 C 
ATOM      2  C   UNL     1      -2.041   6.277  -1.166  0.00  0.00    +0.031 C 
ATOM      3  C   UNL     1      -0.774   5.829  -1.207  0.00  0.00    +0.154 C 
ATOM      4  C   UNL     1      -0.076   5.351   0.030  0.00  0.00    +0.073 C 
ATOM      5  C   UNL     1      -0.785   5.827   1.273  0.00  0.00    +0.025 C 
ATOM      6  C   UNL     1      -2.055   6.281   1.211  0.00  0.00    +0.049 C 
ATOM      7  N   UNL     1      -2.725   6.310   0.017  0.00  0.00    -0.260 NA
ATOM      8  C   UNL     1      -2.768   6.766   2.449  0.00  0.00    +0.064 C 
ATOM      9  C   UNL     1      -2.248   6.009   3.672  0.00  0.00    +0.032 C 
ATOM     10  C   UNL     1      -0.736   6.231   3.776  0.00  0.00    +0.088 C 
ATOM     11  C   UNL     1      -0.087   5.787   2.493  0.00  0.00    +0.162 C 
ATOM     12  O   UNL     1       1.059   5.385   2.511  0.00  0.00    -0.292 OA
ENDROOT
BRANCH   9  13
ATOM     13  C   UNL     1      -2.923   6.531   4.915  0.00  0.00    -0.043 A 
ATOM     14  C   UNL     1      -2.783   7.860   5.270  0.00  0.00    +0.007 A 
ATOM     15  C   UNL     1      -3.405   8.342   6.405  0.00  0.00    +0.046 A 
ATOM     16  C   UNL     1      -4.161   7.489   7.196  0.00  0.00    +0.120 A 
ATOM     17  C   UNL     1      -4.295   6.155   6.841  0.00  0.00    +0.046 A 
ATOM     18  C   UNL     1      -3.676   5.679   5.701  0.00  0.00    +0.007 A 
BRANCH  16  19
ATOM     19  O   UNL     1      -4.769   7.960   8.316  0.00  0.00    -0.495 OA
ATOM     20  C   UNL     1      -4.587   9.344   8.620  0.00  0.00    +0.277 C 
ENDBRANCH  16  19
ENDBRANCH   9  13
BRANCH   4  21
ATOM     21  C   UNL     1      -0.051   3.844   0.022  0.00  0.00    -0.035 A 
ATOM     22  C   UNL     1      -1.237   3.133   0.029  0.00  0.00    +0.004 A 
ATOM     23  C   UNL     1      -1.218   1.751   0.017  0.00  0.00    +0.004 A 
ATOM     24  C   UNL     1      -0.013   1.076   0.008  0.00  0.00    +0.045 A 
ATOM     25  C   UNL     1       1.179   1.786   0.000  0.00  0.00    +0.117 A 
ATOM     26  C   UNL     1       1.157   3.174   0.008  0.00  0.00    +0.049 A 
BRANCH  25  27
ATOM     27  O   UNL     1       2.366   1.125  -0.014  0.00  0.00    -0.507 OA
ATOM     28  H   UNL     1       2.701   0.937  -0.901  0.00  0.00    +0.292 HD
ENDBRANCH  25  27
ENDBRANCH   4  21
BRANCH   3  29
ATOM     29  C   UNL     1      -0.084   5.813  -2.442  0.00  0.00    +0.317 C 
ATOM     30  O   UNL     1      -0.638   6.202  -3.453  0.00  0.00    -0.250 OA
BRANCH  29  31
ATOM     31  O   UNL     1       1.188   5.366  -2.499  0.00  0.00    -0.461 OA
BRANCH  31  32
ATOM     32  C   UNL     1       1.823   5.378  -3.779  0.00  0.00    +0.176 C 
ATOM     33  C   UNL     1       1.619   4.021  -4.482  0.00  0.00    +0.044 C 
ATOM     34  C   UNL     1       2.959   3.772  -5.221  0.00  0.00    +0.004 C 
ATOM     35  C   UNL     1       4.008   4.313  -4.219  0.00  0.00    +0.004 C 
ATOM     36  C   UNL     1       3.342   5.564  -3.611  0.00  0.00    +0.044 C 
ENDBRANCH  31  32
ENDBRANCH  29  31
ENDBRANCH   3  29
TORSDOF 7
