REMARK  Name = ZINC21510311
REMARK  7 active torsions:
REMARK  status: ('A' for Active; 'I' for Inactive)
REMARK    1  A    between atoms: C_1  and  C_2
REMARK    2  A    between atoms: C_2  and  N_3
REMARK    3  A    between atoms: N_3  and  C_4
REMARK    4  A    between atoms: N_3  and  S_10
REMARK    5  A    between atoms: S_10  and  C_13
REMARK    6  A    between atoms: C_17  and  N_20
REMARK    7  A    between atoms: C_18  and  C_19
REMARK                            x       y       z     vdW  Elec       q    Type
REMARK                         _______ _______ _______ _____ _____    ______ ____
ROOT
ATOM      1  S   UNL     1      -0.403  -0.757  -2.560  0.00  0.00    +0.075 S 
ATOM      2  O   UNL     1       0.306  -1.753  -3.284  0.00  0.00    -0.150 OA
ATOM      3  O   UNL     1      -1.746  -0.937  -2.132  0.00  0.00    -0.150 OA
ENDROOT
BRANCH   1   4
ATOM      4  C   UNL     1      -0.381   0.699  -3.552  0.00  0.00    +0.113 A 
ATOM      5  C   UNL     1       0.523   1.709  -3.277  0.00  0.00    +0.029 A 
ATOM      6  C   UNL     1       0.543   2.853  -4.053  0.00  0.00    +0.004 A 
ATOM      7  C   UNL     1      -0.340   2.991  -5.105  0.00  0.00    +0.023 A 
ATOM      8  C   UNL     1      -1.249   1.979  -5.385  0.00  0.00    +0.029 A 
ATOM      9  C   UNL     1      -1.263   0.828  -4.606  0.00  0.00    -0.003 A 
ATOM     10  C   UNL     1      -2.244  -0.275  -4.909  0.00  0.00    +0.048 C 
BRANCH   8  11
ATOM     11  N   UNL     1      -2.144   2.115  -6.448  0.00  0.00    -0.358 N 
ATOM     12  H   UNL     1      -2.131   2.918  -6.993  0.00  0.00    +0.142 HD
ATOM     13  H   UNL     1      -2.779   1.408  -6.642  0.00  0.00    +0.142 HD
ENDBRANCH   8  11
ENDBRANCH   1   4
BRANCH   1  14
ATOM     14  N   UNL     1       0.488  -0.437  -1.201  0.00  0.00    -0.203 N 
BRANCH  14  15
ATOM     15  C   UNL     1       1.874  -0.611  -1.217  0.00  0.00    +0.051 A 
ATOM     16  C   UNL     1       2.571  -0.532  -2.416  0.00  0.00    +0.025 A 
ATOM     17  C   UNL     1       3.942  -0.704  -2.428  0.00  0.00    +0.002 A 
ATOM     18  C   UNL     1       4.619  -0.955  -1.249  0.00  0.00    +0.000 A 
ATOM     19  C   UNL     1       3.928  -1.034  -0.054  0.00  0.00    +0.002 A 
ATOM     20  C   UNL     1       2.558  -0.857  -0.034  0.00  0.00    +0.025 A 
ENDBRANCH  14  15
BRANCH  14  22
ATOM     21  C   UNL     1      -0.130   1.557   0.073  0.00  0.00    +0.026 C 
ATOM     22  C   UNL     1      -0.177   0.029   0.018  0.00  0.00    +0.128 C 
ENDBRANCH  14  22
ENDBRANCH   1  14
TORSDOF 5
