REMARK  Name = ZINC63686474
REMARK  5 active torsions:
REMARK  status: ('A' for Active; 'I' for Inactive)
REMARK    1  A    between atoms: C_1  and  C_2
REMARK    2  A    between atoms: C_6  and  C_8
REMARK    3  A    between atoms: C_11  and  S_15
REMARK    4  A    between atoms: S_15  and  C_16
REMARK    5  A    between atoms: C_16  and  C_17
REMARK                            x       y       z     vdW  Elec       q    Type
REMARK                         _______ _______ _______ _____ _____    ______ ____
ROOT
ATOM      1  S   UNL     1      -2.857  -4.940   3.870  0.00  0.00    -0.111 S 
ENDROOT
BRANCH   1   4
ATOM      2  C   UNL     1       0.054  -2.845   2.489  0.00  0.00    +0.198 C 
ATOM      3  N   UNL     1      -0.760  -4.081   2.375  0.00  0.00    -0.261 NA
ATOM      4  C   UNL     1      -2.068  -3.621   2.907  0.00  0.00    +0.254 C 
ATOM      5  N   UNL     1      -1.740  -2.480   3.771  0.00  0.00    -0.184 NA
ATOM      6  N   UNL     1      -0.597  -2.061   3.547  0.00  0.00    -0.290 N 
ATOM      7  H   UNL     1      -0.844  -4.372   1.412  0.00  0.00    +0.127 HD
ATOM      8  H   UNL     1      -0.184  -1.315   4.009  0.00  0.00    +0.184 HD
BRANCH   2  14
ATOM      9  C   UNL     1      -2.473  -0.378  -1.058  0.00  0.00    +0.044 C 
ATOM     10  C   UNL     1      -1.172  -0.904  -0.509  0.00  0.00    -0.050 A 
ATOM     11  C   UNL     1       0.007  -0.690  -1.200  0.00  0.00    +0.003 A 
ATOM     12  C   UNL     1       1.200  -1.173  -0.697  0.00  0.00    +0.001 A 
ATOM     13  C   UNL     1       1.215  -1.870   0.497  0.00  0.00    +0.007 A 
ATOM     14  C   UNL     1       0.037  -2.084   1.188  0.00  0.00    -0.009 A 
ATOM     15  C   UNL     1      -1.156  -1.597   0.687  0.00  0.00    +0.010 A 
ENDBRANCH   2  14
ENDBRANCH   1   4
BRANCH   1  16
ATOM     16  C   UNL     1      -1.673  -5.281   5.201  0.00  0.00    +0.125 C 
BRANCH  16  17
ATOM     17  C   UNL     1      -2.213  -6.374   6.087  0.00  0.00    +0.030 A 
ATOM     18  N   UNL     1      -3.215  -6.077   6.949  0.00  0.00    -0.355 N 
ATOM     19  C   UNL     1      -3.753  -7.030   7.785  0.00  0.00    +0.086 A 
ATOM     20  C   UNL     1      -3.256  -8.345   7.749  0.00  0.00    +0.048 A 
ATOM     21  C   UNL     1      -3.792  -9.318   8.592  0.00  0.00    +0.014 A 
ATOM     22  C   UNL     1      -4.802  -8.988   9.453  0.00  0.00    +0.004 A 
ATOM     23  C   UNL     1      -5.299  -7.693   9.495  0.00  0.00    +0.040 A 
ATOM     24  C   UNL     1      -4.784  -6.715   8.669  0.00  0.00    +0.147 A 
ATOM     25  F   UNL     1      -5.274  -5.457   8.719  0.00  0.00    -0.203 F 
ATOM     26  C   UNL     1      -2.167  -8.657   6.808  0.00  0.00    +0.190 A 
ATOM     27  O   UNL     1      -1.699  -9.782   6.736  0.00  0.00    -0.287 OA
ATOM     28  C   UNL     1      -1.684  -7.611   5.987  0.00  0.00    +0.073 A 
ATOM     29  H   UNL     1      -3.562  -5.172   6.978  0.00  0.00    +0.166 HD
ENDBRANCH  16  17
ENDBRANCH   1  16
TORSDOF 4
