REMARK  Name = ZINC20183322
REMARK  10 active torsions:
REMARK  status: ('A' for Active; 'I' for Inactive)
REMARK    1  A    between atoms: C_1  and  C_2
REMARK    2  A    between atoms: C_2  and  C_3
REMARK    3  A    between atoms: C_7  and  N_9
REMARK    4  A    between atoms: N_9  and  C_10
REMARK    5  A    between atoms: C_10  and  N_12
REMARK    6  A    between atoms: N_12  and  N_13
REMARK    7  A    between atoms: C_14  and  C_15
REMARK    8  A    between atoms: N_17  and  C_33
REMARK    9  A    between atoms: C_21  and  S_24
REMARK   10  A    between atoms: S_24  and  N_27
REMARK                            x       y       z     vdW  Elec       q    Type
REMARK                         _______ _______ _______ _____ _____    ______ ____
ROOT
ATOM      1  C   UNL     1      -1.244   2.484   0.382  0.00  0.00    +0.020 A 
ATOM      2  C   UNL     1      -0.671   3.716   0.421  0.00  0.00    +0.096 A 
ATOM      3  N   UNL     1       0.623   3.608   0.837  0.00  0.00    -0.349 N 
ATOM      4  C   UNL     1       0.935   2.289   1.090  0.00  0.00    +0.050 A 
ATOM      5  C   UNL     1      -0.214   1.526   0.823  0.00  0.00    +0.010 A 
ATOM      6  C   UNL     1      -0.189   0.144   0.994  0.00  0.00    +0.039 A 
ATOM      7  C   UNL     1       0.966  -0.469   1.427  0.00  0.00    +0.106 A 
ATOM      8  C   UNL     1       2.101   0.283   1.691  0.00  0.00    +0.030 A 
ATOM      9  C   UNL     1       2.092   1.651   1.526  0.00  0.00    +0.028 A 
ATOM     10  C   UNL     1       1.550   4.733   0.993  0.00  0.00    +0.149 C 
ENDROOT
BRANCH   7  11
ATOM     11  S   UNL     1       1.002  -2.217   1.645  0.00  0.00    +0.061 S 
ATOM     12  O   UNL     1       2.037  -2.488   2.580  0.00  0.00    -0.153 OA
ATOM     13  O   UNL     1      -0.342  -2.627   1.856  0.00  0.00    -0.153 OA
BRANCH  11  14
ATOM     14  N   UNL     1       1.479  -2.881   0.205  0.00  0.00    -0.177 NA
ATOM     15  C   UNL     1       0.487  -3.258  -0.811  0.00  0.00    +0.109 C 
ATOM     16  C   UNL     1       0.866  -2.582  -2.137  0.00  0.00    +0.017 C 
ATOM     17  C   UNL     1       2.306  -2.952  -2.498  0.00  0.00    +0.003 C 
ATOM     18  C   UNL     1       3.254  -2.442  -1.411  0.00  0.00    +0.017 C 
ATOM     19  C   UNL     1       2.902  -3.110  -0.078  0.00  0.00    +0.109 C 
ENDBRANCH  11  14
ENDBRANCH   7  11
BRANCH   1  21
ATOM     20  N   UNL     1      -3.040   0.937  -0.006  0.00  0.00    -0.188 NA
ATOM     21  C   UNL     1      -2.625   2.168  -0.020  0.00  0.00    +0.140 C 
BRANCH  20  22
ATOM     22  N   UNL     1      -4.354   0.636  -0.388  0.00  0.00    -0.218 N 
ATOM     23  H   UNL     1      -5.034   1.443  -0.700  0.00  0.00    +0.176 HD
BRANCH  22  24
ATOM     24  C   UNL     1      -4.784  -0.641  -0.374  0.00  0.00    +0.154 C 
ATOM     25  S   UNL     1      -6.389  -1.008  -0.841  0.00  0.00    -0.017 S 
BRANCH  24  26
ATOM     26  N   UNL     1      -3.950  -1.629   0.007  0.00  0.00    -0.296 N 
ATOM     27  H   UNL     1      -2.899  -1.402   0.240  0.00  0.00    +0.154 HD
BRANCH  26  32
ATOM     28  C   UNL     1      -5.673  -4.774  -0.802  0.00  0.00    -0.046 A 
ATOM     29  C   UNL     1      -5.353  -5.540   0.304  0.00  0.00    +0.004 A 
ATOM     30  C   UNL     1      -4.568  -5.010   1.312  0.00  0.00    +0.002 A 
ATOM     31  C   UNL     1      -4.098  -3.715   1.214  0.00  0.00    +0.023 A 
ATOM     32  C   UNL     1      -4.421  -2.942   0.107  0.00  0.00    +0.033 A 
ATOM     33  C   UNL     1      -5.210  -3.477  -0.904  0.00  0.00    +0.027 A 
BRANCH  28  35
ATOM     34  C   UNL     1      -5.633  -6.028  -2.941  0.00  0.00    +0.009 C 
ATOM     35  C   UNL     1      -6.528  -5.356  -1.898  0.00  0.00    +0.032 C 
ENDBRANCH  28  35
ENDBRANCH  26  32
ENDBRANCH  24  26
ENDBRANCH  22  24
ENDBRANCH  20  22
ENDBRANCH   1  21
TORSDOF 8
