REMARK  Name = ZINC13211969
REMARK  3 active torsions:
REMARK  status: ('A' for Active; 'I' for Inactive)
REMARK    1  A    between atoms: C_3  and  N_23
REMARK    2  A    between atoms: C_6  and  C_7
REMARK    3  A    between atoms: C_12  and  C_17
REMARK                            x       y       z     vdW  Elec       q    Type
REMARK                         _______ _______ _______ _____ _____    ______ ____
ROOT
ATOM      1  C   UNL     1      -2.448  -0.331   0.190  0.00  0.00    +0.012 A 
ATOM      2  C   UNL     1      -3.562  -1.142   0.201  0.00  0.00    +0.024 A 
ATOM      3  C   UNL     1      -3.428  -2.513   0.015  0.00  0.00    +0.034 A 
ATOM      4  C   UNL     1      -2.170  -3.070  -0.190  0.00  0.00    +0.024 A 
ATOM      5  C   UNL     1      -1.053  -2.264  -0.207  0.00  0.00    +0.012 A 
ATOM      6  C   UNL     1      -1.184  -0.886  -0.020  0.00  0.00    -0.002 A 
ENDROOT
BRANCH   6   7
ATOM      7  C   UNL     1       0.012  -0.019  -0.038  0.00  0.00    +0.047 A 
ATOM      8  C   UNL     1       1.287  -0.444  -0.226  0.00  0.00    +0.036 A 
ATOM      9  C   UNL     1       2.134   0.691  -0.173  0.00  0.00    +0.000 A 
ATOM     10  C   UNL     1       3.520   0.862  -0.298  0.00  0.00    +0.011 A 
ATOM     11  C   UNL     1       4.065   2.106  -0.199  0.00  0.00    +0.012 A 
ATOM     12  C   UNL     1       3.250   3.222   0.028  0.00  0.00    +0.019 A 
ATOM     13  C   UNL     1       1.872   3.071   0.155  0.00  0.00    +0.037 A 
ATOM     14  C   UNL     1       1.307   1.808   0.056  0.00  0.00    +0.048 A 
ATOM     15  N   UNL     1       0.009   1.347   0.135  0.00  0.00    -0.354 N 
ATOM     16  H   UNL     1      -0.778   1.895   0.283  0.00  0.00    +0.166 HD
BRANCH  12  17
ATOM     17  C   UNL     1       3.855   4.566   0.133  0.00  0.00    +0.138 A 
ATOM     18  N   UNL     1       5.185   4.854   0.029  0.00  0.00    -0.344 N 
ATOM     19  H   UNL     1       5.925   4.200  -0.131  0.00  0.00    +0.167 HD
ATOM     20  C   UNL     1       5.315   6.208   0.184  0.00  0.00    +0.104 A 
ATOM     21  C   UNL     1       4.076   6.705   0.377  0.00  0.00    +0.130 A 
ATOM     22  N   UNL     1       3.204   5.690   0.337  0.00  0.00    -0.236 NA
ENDBRANCH  12  17
ENDBRANCH   6   7
BRANCH   3  23
ATOM     23  N   UNL     1      -4.558  -3.333   0.032  0.00  0.00    -0.283 N 
ATOM     24  C   UNL     1      -4.472  -4.619   0.530  0.00  0.00    +0.225 A 
ATOM     25  N   UNL     1      -3.341  -5.042   1.088  0.00  0.00    -0.184 NA
ATOM     26  C   UNL     1      -3.263  -6.272   1.568  0.00  0.00    +0.228 A 
ATOM     27  N   UNL     1      -4.306  -7.084   1.484  0.00  0.00    -0.187 NA
ATOM     28  C   UNL     1      -5.431  -6.667   0.925  0.00  0.00    +0.228 A 
ATOM     29  N   UNL     1      -5.517  -5.437   0.447  0.00  0.00    -0.184 NA
ATOM     30 CL   UNL     1      -6.795  -7.736   0.817  0.00  0.00    -0.041 Cl
ATOM     31 CL   UNL     1      -1.790  -6.824   2.302  0.00  0.00    -0.041 Cl
ATOM     32  H   UNL     1      -5.404  -3.000  -0.306  0.00  0.00    +0.155 HD
ENDBRANCH   3  23
TORSDOF 3
