REMARK  Name = ZINC34747604
REMARK  4 active torsions:
REMARK  status: ('A' for Active; 'I' for Inactive)
REMARK    1  A    between atoms: C_1  and  N_2
REMARK    2  A    between atoms: N_15  and  C_18
REMARK    3  A    between atoms: C_18  and  C_19
REMARK    4  A    between atoms: N_21  and  C_22
REMARK                            x       y       z     vdW  Elec       q    Type
REMARK                         _______ _______ _______ _____ _____    ______ ____
ROOT
ATOM      1  C   UNL     1      -1.671   0.814   0.400  0.00  0.00    +0.155 C 
ATOM      2  N   UNL     1      -0.773  -0.322   0.181  0.00  0.00    -0.283 N 
ATOM      3  C   UNL     1      -0.871  -1.031  -0.959  0.00  0.00    +0.264 A 
ATOM      4  O   UNL     1      -1.698  -0.731  -1.803  0.00  0.00    -0.267 OA
ATOM      5  C   UNL     1       0.009  -2.140  -1.166  0.00  0.00    +0.076 A 
ATOM      6  C   UNL     1       0.078  -3.041  -2.318  0.00  0.00    -0.023 A 
ATOM      7  C   UNL     1       1.004  -4.020  -2.274  0.00  0.00    -0.004 A 
ATOM      8  S   UNL     1       1.829  -3.805  -0.720  0.00  0.00    -0.073 S 
ATOM      9  C   UNL     1       0.923  -2.396  -0.130  0.00  0.00    +0.117 A 
ATOM     10  N   UNL     1       0.968  -1.657   0.972  0.00  0.00    -0.208 NA
ATOM     11  C   UNL     1       0.149  -0.638   1.135  0.00  0.00    +0.202 A 
ATOM     12  N   UNL     1       0.222   0.112   2.282  0.00  0.00    -0.304 N 
ATOM     13  C   UNL     1       0.055   1.573   2.242  0.00  0.00    +0.089 C 
ATOM     14  C   UNL     1       1.223   2.216   2.997  0.00  0.00    -0.059 C 
ATOM     15  N   UNL     1       1.299   1.651   4.351  0.00  0.00    +0.387 N 
ATOM     16  C   UNL     1       1.616   0.219   4.278  0.00  0.00    -0.059 C 
ATOM     17  C   UNL     1       0.462  -0.523   3.587  0.00  0.00    +0.089 C 
ATOM     18  C   UNL     1       1.273  -5.062  -3.316  0.00  0.00    +0.043 C 
ATOM     19  C   UNL     1       0.088  -5.088  -4.292  0.00  0.00    +0.005 C 
ATOM     20  C   UNL     1      -0.239  -3.651  -4.705  0.00  0.00    +0.005 C 
ATOM     21  C   UNL     1      -0.847  -2.896  -3.523  0.00  0.00    +0.037 C 
ATOM     22  H   UNL     1       0.412   1.776   4.816  0.00  0.00    -0.081 HD
ENDROOT
BRANCH  15  23
ATOM     23  C   UNL     1       2.348   2.345   5.110  0.00  0.00    +0.019 C 
BRANCH  23  24
ATOM     24  C   UNL     1       2.345   1.853   6.535  0.00  0.00    +0.201 C 
ATOM     25  O   UNL     1       1.548   1.008   6.883  0.00  0.00    -0.278 OA
ATOM     26  N   UNL     1       3.228   2.353   7.422  0.00  0.00    -0.287 N 
ATOM     27  H   UNL     1       3.820   3.076   7.162  0.00  0.00    +0.155 HD
BRANCH  26  28
ATOM     28  C   UNL     1       3.292   1.827   8.717  0.00  0.00    +0.033 A 
ATOM     29  C   UNL     1       4.513   1.737   9.372  0.00  0.00    +0.024 A 
ATOM     30  C   UNL     1       4.573   1.218  10.651  0.00  0.00    +0.017 A 
ATOM     31  C   UNL     1       3.418   0.789  11.280  0.00  0.00    +0.018 A 
ATOM     32  C   UNL     1       2.200   0.878  10.629  0.00  0.00    +0.017 A 
ATOM     33  C   UNL     1       2.133   1.401   9.353  0.00  0.00    +0.024 A 
ATOM     34 BR   UNL     1       3.503   0.079  13.030  0.00  0.00    -0.050 Br
ENDBRANCH  26  28
ENDBRANCH  23  24
ENDBRANCH  15  23
TORSDOF 3
