REMARK  Name = ZINC03281859
REMARK  7 active torsions:
REMARK  status: ('A' for Active; 'I' for Inactive)
REMARK    1  A    between atoms: C_1  and  C_2
REMARK    2  A    between atoms: C_4  and  C_15
REMARK    3  A    between atoms: C_5  and  C_14
REMARK    4  A    between atoms: N_6  and  C_7
REMARK    5  A    between atoms: N_17  and  N_18
REMARK    6  A    between atoms: N_18  and  C_19
REMARK    7  A    between atoms: C_19  and  C_21
REMARK                            x       y       z     vdW  Elec       q    Type
REMARK                         _______ _______ _______ _____ _____    ______ ____
ROOT
ATOM      1  C   UNL     1      -0.466   6.929   0.044  0.00  0.00    +0.064 C 
ATOM      2  C   UNL     1       0.391   5.690   0.030  0.00  0.00    +0.022 A 
ATOM      3  C   UNL     1      -0.064   4.424   0.027  0.00  0.00    +0.036 A 
ATOM      4  C   UNL     1       1.121   3.559   0.011  0.00  0.00    +0.059 A 
ATOM      5  C   UNL     1       2.203   4.395   0.010  0.00  0.00    +0.033 A 
ATOM      6  N   UNL     1       1.757   5.668   0.016  0.00  0.00    -0.317 N 
ATOM      7  C   UNL     1       3.648   3.967   0.002  0.00  0.00    +0.064 C 
ENDROOT
BRANCH   6   8
ATOM      8  C   UNL     1       2.578   6.806   0.014  0.00  0.00    +0.047 A 
ATOM      9  C   UNL     1       3.389   7.075  -1.080  0.00  0.00    +0.029 A 
ATOM     10  C   UNL     1       4.193   8.198  -1.082  0.00  0.00    +0.040 A 
ATOM     11  C   UNL     1       4.197   9.050   0.010  0.00  0.00    +0.124 A 
ATOM     12  C   UNL     1       3.392   8.780   1.104  0.00  0.00    +0.040 A 
ATOM     13  C   UNL     1       2.583   7.660   1.108  0.00  0.00    +0.029 A 
ATOM     14  F   UNL     1       4.987  10.145   0.008  0.00  0.00    -0.205 F 
ENDBRANCH   6   8
BRANCH   4  15
ATOM     15  C   UNL     1       1.141   2.087   0.002  0.00  0.00    +0.262 C 
ATOM     16  O   UNL     1       2.202   1.493  -0.011  0.00  0.00    -0.269 OA
ATOM     17  N   UNL     1      -0.017   1.397   0.010  0.00  0.00    -0.232 N 
ATOM     18  H   UNL     1      -0.864   1.870   0.016  0.00  0.00    +0.173 HD
BRANCH  17  19
ATOM     19  N   UNL     1       0.002  -0.004   0.002  0.00  0.00    -0.264 N 
ATOM     20  H   UNL     1       0.849  -0.478  -0.009  0.00  0.00    +0.170 HD
BRANCH  19  21
ATOM     21  C   UNL     1      -1.197  -0.719   0.010  0.00  0.00    +0.051 C 
ATOM     22  C   UNL     1      -2.365  -0.066   0.024  0.00  0.00    +0.036 C 
BRANCH  21  23
ATOM     23  C   UNL     1      -1.177  -2.193   0.002  0.00  0.00    +0.035 A 
ATOM     24  C   UNL     1      -2.230  -3.070   0.007  0.00  0.00    +0.019 A 
ATOM     25  C   UNL     1      -1.965  -4.422  -0.003  0.00  0.00    +0.028 A 
ATOM     26  C   UNL     1      -0.672  -4.842  -0.018  0.00  0.00    +0.079 A 
ATOM     27  S   UNL     1       0.224  -3.298  -0.026  0.00  0.00    -0.075 S 
ATOM     28 CL   UNL     1      -0.052  -6.464  -0.032  0.00  0.00    -0.076 Cl
ENDBRANCH  21  23
ENDBRANCH  19  21
ENDBRANCH  17  19
ENDBRANCH   4  15
TORSDOF 5
