REMARK  Name = ZINC45872914
REMARK  7 active torsions:
REMARK  status: ('A' for Active; 'I' for Inactive)
REMARK    1  A    between atoms: C_1  and  C_2
REMARK    2  A    between atoms: C_2  and  C_3
REMARK    3  A    between atoms: C_3  and  C_5
REMARK    4  A    between atoms: C_3  and  C_6
REMARK    5  A    between atoms: C_6  and  C_8
REMARK    6  A    between atoms: C_6  and  N_21
REMARK    7  A    between atoms: N_10  and  C_11
REMARK                            x       y       z     vdW  Elec       q    Type
REMARK                         _______ _______ _______ _____ _____    ______ ____
ROOT
ATOM      1  C   UNL     1      -1.420  -2.064  -0.122  0.00  0.00    +0.161 C 
ENDROOT
BRANCH   1   2
ATOM      2  N   UNL     1      -0.676  -2.643   1.000  0.00  0.00    -0.316 N 
ATOM      3  C   UNL     1      -1.315  -2.893   2.195  0.00  0.00    +0.150 C 
ATOM      4  N   UNL     1      -2.574  -2.624   2.332  0.00  0.00    -0.113 NA
ATOM      5  S   UNL     1      -2.967  -3.065   3.898  0.00  0.00    +0.101 S 
ATOM      6  O   UNL     1      -3.844  -4.181   3.827  0.00  0.00    -0.146 OA
ATOM      7  O   UNL     1      -3.267  -1.878   4.620  0.00  0.00    -0.146 OA
ATOM      8  C   UNL     1      -1.390  -3.652   4.453  0.00  0.00    +0.123 A 
ATOM      9  C   UNL     1      -0.576  -3.474   3.326  0.00  0.00    +0.043 A 
ATOM     10  C   UNL     1       0.770  -3.856   3.435  0.00  0.00    +0.013 A 
ATOM     11  C   UNL     1       1.249  -4.386   4.612  0.00  0.00    +0.001 A 
ATOM     12  C   UNL     1       0.420  -4.554   5.707  0.00  0.00    +0.002 A 
ATOM     13  C   UNL     1      -0.912  -4.173   5.620  0.00  0.00    +0.030 A 
ATOM     14  H   UNL     1       0.267  -2.850   0.901  0.00  0.00    +0.148 HD
ENDBRANCH   1   2
BRANCH   1  15
ATOM     15  C   UNL     1      -0.749  -2.440  -1.417  0.00  0.00    +0.238 C 
ATOM     16  O   UNL     1       0.252  -3.125  -1.405  0.00  0.00    -0.273 OA
ATOM     17  N   UNL     1      -1.261  -2.016  -2.590  0.00  0.00    -0.283 N 
ATOM     18  H   UNL     1      -2.099  -1.526  -2.604  0.00  0.00    +0.155 HD
BRANCH  17  19
ATOM     19  C   UNL     1      -0.586  -2.282  -3.786  0.00  0.00    +0.052 A 
ATOM     20  C   UNL     1       0.104  -3.469  -3.945  0.00  0.00    +0.034 A 
ATOM     21  C   UNL     1       0.767  -3.690  -5.165  0.00  0.00    +0.002 A 
ATOM     22  C   UNL     1       1.488  -4.872  -5.401  0.00  0.00    +0.010 A 
ATOM     23  C   UNL     1       2.116  -5.051  -6.595  0.00  0.00    +0.001 A 
ATOM     24  C   UNL     1       2.054  -4.074  -7.588  0.00  0.00    +0.002 A 
ATOM     25  C   UNL     1       1.366  -2.917  -7.394  0.00  0.00    +0.028 A 
ATOM     26  C   UNL     1       0.702  -2.696  -6.174  0.00  0.00    +0.071 A 
ATOM     27  N   UNL     1       0.018  -1.568  -5.959  0.00  0.00    -0.253 NA
ATOM     28  C   UNL     1      -0.609  -1.350  -4.830  0.00  0.00    +0.134 A 
ENDBRANCH  17  19
ENDBRANCH   1  15
BRANCH   1  29
ATOM     29  C   UNL     1      -1.445  -0.540   0.016  0.00  0.00    +0.015 C 
ATOM     30  C   UNL     1      -2.127  -0.158   1.331  0.00  0.00    +0.010 C 
BRANCH  29  32
ATOM     31  C   UNL     1      -0.041   1.526   0.020  0.00  0.00    +0.004 C 
ATOM     32  C   UNL     1      -0.013  -0.003   0.009  0.00  0.00    +0.002 C 
ENDBRANCH  29  32
ENDBRANCH   1  29
TORSDOF 5
