REMARK  Name = ZINC01427238
REMARK  1 active torsions:
REMARK  status: ('A' for Active; 'I' for Inactive)
REMARK    1  A    between atoms: C_12  and  C_18
REMARK                            x       y       z     vdW  Elec       q    Type
REMARK                         _______ _______ _______ _____ _____    ______ ____
ROOT
ATOM      1  C   UNL     1      -0.017   1.373   0.010  0.00  0.00    +0.001 A 
ATOM      2  C   UNL     1       1.171   2.090   0.002  0.00  0.00    +0.004 A 
ATOM      3  C   UNL     1       2.386   1.438  -0.015  0.00  0.00    +0.047 A 
ATOM      4  C   UNL     1       2.427   0.049  -0.023  0.00  0.00    +0.143 A 
ATOM      5  C   UNL     1       1.226  -0.677  -0.013  0.00  0.00    +0.060 A 
ATOM      6  C   UNL     1       0.002  -0.004   0.002  0.00  0.00    +0.015 A 
ATOM      7  C   UNL     1       1.282  -2.148  -0.017  0.00  0.00    +0.153 A 
ATOM      8  C   UNL     1       2.503  -2.747  -0.024  0.00  0.00    +0.088 A 
ATOM      9  C   UNL     1       3.664  -1.948  -0.042  0.00  0.00    +0.345 A 
ATOM     10  O   UNL     1       4.755  -2.492  -0.061  0.00  0.00    -0.245 OA
ATOM     11  O   UNL     1       3.606  -0.609  -0.041  0.00  0.00    -0.422 OA
ATOM     12  C   UNL     1       2.656  -4.246   0.001  0.00  0.00    +0.071 C 
ATOM     13  C   UNL     1       1.359  -4.910  -0.475  0.00  0.00    +0.134 C 
ATOM     14  C   UNL     1       0.205  -4.183   0.187  0.00  0.00    +0.313 C 
ATOM     15  O   UNL     1      -0.604  -4.767   0.869  0.00  0.00    -0.250 OA
ATOM     16  O   UNL     1       0.127  -2.852  -0.023  0.00  0.00    -0.425 OA
ENDROOT
BRANCH  12  17
ATOM     17  C   UNL     1       3.787  -4.649  -0.910  0.00  0.00    -0.025 A 
ATOM     18  C   UNL     1       3.736  -4.335  -2.256  0.00  0.00    +0.005 A 
ATOM     19  C   UNL     1       4.773  -4.705  -3.091  0.00  0.00    +0.000 A 
ATOM     20  C   UNL     1       5.862  -5.388  -2.582  0.00  0.00    +0.001 A 
ATOM     21  C   UNL     1       5.913  -5.703  -1.237  0.00  0.00    +0.015 A 
ATOM     22  C   UNL     1       4.878  -5.329  -0.400  0.00  0.00    +0.022 A 
ATOM     23 BR   UNL     1       4.950  -5.753   1.442  0.00  0.00    -0.050 Br
ENDBRANCH  12  17
TORSDOF 1
