REMARK  Name = ZINC01876086
REMARK  18 active torsions:
REMARK  status: ('A' for Active; 'I' for Inactive)
REMARK    1  A    between atoms: C_1  and  C_2
REMARK    2  A    between atoms: C_2  and  C_3
REMARK    3  A    between atoms: C_3  and  C_4
REMARK    4  A    between atoms: C_4  and  C_5
REMARK    5  A    between atoms: C_5  and  N_6
REMARK    6  A    between atoms: C_10  and  C_30
REMARK    7  A    between atoms: N_12  and  C_13
REMARK    8  A    between atoms: C_13  and  C_15
REMARK    9  A    between atoms: C_17  and  O_27
REMARK   10  A    between atoms: C_18  and  O_24
REMARK   11  A    between atoms: C_19  and  O_21
REMARK   12  A    between atoms: O_21  and  C_22
REMARK   13  A    between atoms: C_22  and  C_23
REMARK   14  A    between atoms: O_24  and  C_25
REMARK   15  A    between atoms: C_25  and  C_26
REMARK   16  A    between atoms: O_27  and  C_28
REMARK   17  A    between atoms: C_28  and  C_29
REMARK   18  A    between atoms: C_38  and  C_41
REMARK                            x       y       z     vdW  Elec       q    Type
REMARK                         _______ _______ _______ _____ _____    ______ ____
ROOT
ATOM      1  N   UNL     1       1.341  -4.006  -2.321  0.00  0.00    -0.311 N 
ATOM      2  C   UNL     1       2.368  -4.678  -1.710  0.00  0.00    +0.150 A 
ATOM      3  C   UNL     1       2.501  -6.077  -1.888  0.00  0.00    +0.084 A 
ATOM      4  C   UNL     1       1.589  -6.775  -2.685  0.00  0.00    +0.039 A 
ATOM      5  C   UNL     1       0.551  -6.075  -3.297  0.00  0.00    +0.093 A 
ATOM      6  C   UNL     1       0.437  -4.676  -3.099  0.00  0.00    +0.146 A 
ATOM      7  N   UNL     1      -0.557  -4.008  -3.680  0.00  0.00    -0.158 NA
ATOM      8  C   UNL     1       3.610  -6.758  -1.221  0.00  0.00    +0.268 A 
ATOM      9  O   UNL     1       3.772  -7.959  -1.339  0.00  0.00    -0.267 OA
ATOM     10  N   UNL     1       4.450  -6.011  -0.468  0.00  0.00    -0.267 N 
ATOM     11  C   UNL     1       5.492  -6.620   0.166  0.00  0.00    +0.096 A 
ATOM     12  C   UNL     1       6.353  -5.907   0.927  0.00  0.00    +0.019 A 
ATOM     13  C   UNL     1       6.179  -4.523   1.073  0.00  0.00    +0.008 A 
ATOM     14  C   UNL     1       5.140  -3.905   0.443  0.00  0.00    -0.007 A 
ATOM     15  C   UNL     1       4.254  -4.663  -0.346  0.00  0.00    +0.145 A 
ATOM     16  N   UNL     1       3.245  -4.038  -0.952  0.00  0.00    -0.211 NA
ATOM     17  C   UNL     1       4.941  -2.419   0.592  0.00  0.00    +0.047 C 
ENDROOT
BRANCH   7  18
ATOM     18  C   UNL     1      -1.510  -4.670  -4.343  0.00  0.00    +0.269 C 
ATOM     19  O   UNL     1      -1.389  -4.880  -5.537  0.00  0.00    -0.268 OA
BRANCH  18  20
ATOM     20  C   UNL     1      -2.714  -5.147  -3.627  0.00  0.00    +0.046 A 
ATOM     21  C   UNL     1      -2.857  -4.902  -2.260  0.00  0.00    +0.062 A 
ATOM     22  C   UNL     1      -3.983  -5.348  -1.593  0.00  0.00    +0.166 A 
ATOM     23  C   UNL     1      -4.973  -6.042  -2.283  0.00  0.00    +0.204 A 
ATOM     24  C   UNL     1      -4.832  -6.288  -3.646  0.00  0.00    +0.166 A 
ATOM     25  C   UNL     1      -3.710  -5.838  -4.318  0.00  0.00    +0.062 A 
BRANCH  24  26
ATOM     26  O   UNL     1      -5.801  -6.966  -4.318  0.00  0.00    -0.488 OA
BRANCH  26  27
ATOM     27  C   UNL     1      -5.591  -7.182  -5.715  0.00  0.00    +0.226 C 
ATOM     28  C   UNL     1      -6.777  -7.955  -6.295  0.00  0.00    +0.048 C 
ENDBRANCH  26  27
ENDBRANCH  24  26
BRANCH  23  29
ATOM     29  O   UNL     1      -6.079  -6.481  -1.625  0.00  0.00    -0.485 OA
BRANCH  29  30
ATOM     30  C   UNL     1      -7.196  -5.592  -1.570  0.00  0.00    +0.226 C 
ATOM     31  C   UNL     1      -8.337  -6.254  -0.795  0.00  0.00    +0.048 C 
ENDBRANCH  29  30
ENDBRANCH  23  29
BRANCH  22  32
ATOM     32  O   UNL     1      -4.123  -5.110  -0.261  0.00  0.00    -0.488 OA
BRANCH  32  33
ATOM     33  C   UNL     1      -3.069  -4.393   0.384  0.00  0.00    +0.226 C 
ATOM     34  C   UNL     1      -3.401  -4.223   1.867  0.00  0.00    +0.048 C 
ENDBRANCH  32  33
ENDBRANCH  22  32
ENDBRANCH  18  20
ENDBRANCH   7  18
BRANCH   5  35
ATOM     35  C   UNL     1      -0.397  -6.765  -4.119  0.00  0.00    +0.103 C 
ATOM     36  N   UNL     1      -1.149  -7.313  -4.770  0.00  0.00    -0.191 NA
ENDBRANCH   5  35
BRANCH   1  37
ATOM     37  C   UNL     1       1.207  -2.560  -2.135  0.00  0.00    +0.125 C 
BRANCH  37  38
ATOM     38  C   UNL     1       0.331  -2.282  -0.911  0.00  0.00    +0.022 C 
BRANCH  38  39
ATOM     39  C   UNL     1       0.191  -0.771  -0.716  0.00  0.00    +0.001 C 
BRANCH  39  41
ATOM     40  C   UNL     1      -0.825   1.017   0.703  0.00  0.00    +0.004 C 
ATOM     41  C   UNL     1      -0.685  -0.494   0.507  0.00  0.00    -0.003 C 
ENDBRANCH  39  41
ENDBRANCH  38  39
ENDBRANCH  37  38
ENDBRANCH   1  37
TORSDOF 13
