REMARK  Name = ZINC36492832
REMARK  12 active torsions:
REMARK  status: ('A' for Active; 'I' for Inactive)
REMARK    1  A    between atoms: C_1  and  C_2
REMARK    2  A    between atoms: C_2  and  C_3
REMARK    3  A    between atoms: C_2  and  C_4
REMARK    4  A    between atoms: C_2  and  N_5
REMARK    5  A    between atoms: C_6  and  C_8
REMARK    6  A    between atoms: C_8  and  C_10
REMARK    7  A    between atoms: C_8  and  N_23
REMARK    8  A    between atoms: C_10  and  C_11
REMARK    9  A    between atoms: C_10  and  C_17
REMARK   10  A    between atoms: N_23  and  C_24
REMARK   11  A    between atoms: C_30  and  C_32
REMARK   12  A    between atoms: C_32  and  C_33
REMARK                            x       y       z     vdW  Elec       q    Type
REMARK                         _______ _______ _______ _____ _____    ______ ____
ROOT
ATOM      1  C   UNL     1       2.892  -0.538  -3.147  0.00  0.00    +0.174 C 
ENDROOT
BRANCH   1   3
ATOM      2  N   UNL     1       0.613  -1.239  -2.487  0.00  0.00    -0.309 N 
ATOM      3  C   UNL     1       1.582  -0.302  -2.441  0.00  0.00    +0.235 C 
ATOM      4  O   UNL     1       1.399   0.729  -1.830  0.00  0.00    -0.274 OA
ATOM      5  H   UNL     1       0.760  -2.064  -2.975  0.00  0.00    +0.149 HD
BRANCH   2   7
ATOM      6  C   UNL     1      -1.329   0.243  -2.370  0.00  0.00    +0.031 C 
ATOM      7  C   UNL     1      -0.660  -1.010  -1.800  0.00  0.00    +0.026 C 
ATOM      8  C   UNL     1      -0.405  -0.816  -0.304  0.00  0.00    +0.031 C 
ATOM      9  C   UNL     1      -1.577  -2.217  -2.009  0.00  0.00    +0.031 C 
ENDBRANCH   2   7
ENDBRANCH   1   3
BRANCH   1  10
ATOM     10  N   UNL     1       3.769   0.618  -2.947  0.00  0.00    -0.286 N 
ATOM     11  C   UNL     1       4.961   0.462  -2.338  0.00  0.00    +0.221 C 
ATOM     12  O   UNL     1       5.261  -0.611  -1.858  0.00  0.00    -0.275 OA
BRANCH  10  13
ATOM     13  C   UNL     1       3.351   1.944  -3.410  0.00  0.00    +0.077 C 
ATOM     14  C   UNL     1       4.125   2.309  -4.678  0.00  0.00    +0.022 C 
ATOM     15  C   UNL     1       3.688   3.693  -5.161  0.00  0.00    +0.002 C 
ATOM     16  C   UNL     1       3.977   4.728  -4.072  0.00  0.00    +0.000 C 
ATOM     17  C   UNL     1       3.203   4.363  -2.804  0.00  0.00    +0.002 C 
ATOM     18  C   UNL     1       3.640   2.979  -2.321  0.00  0.00    +0.022 C 
ENDBRANCH  10  13
BRANCH  11  19
ATOM     19  C   UNL     1       5.921   1.621  -2.252  0.00  0.00    +0.131 C 
BRANCH  19  20
ATOM     20  C   UNL     1       7.322   1.100  -2.062  0.00  0.00    -0.039 A 
ATOM     21  C   UNL     1       7.815   0.889  -0.788  0.00  0.00    +0.004 A 
ATOM     22  C   UNL     1       9.101   0.411  -0.615  0.00  0.00    +0.000 A 
ATOM     23  C   UNL     1       9.893   0.143  -1.715  0.00  0.00    +0.000 A 
ATOM     24  C   UNL     1       9.399   0.352  -2.990  0.00  0.00    +0.000 A 
ATOM     25  C   UNL     1       8.112   0.827  -3.163  0.00  0.00    +0.004 A 
ENDBRANCH  19  20
ENDBRANCH  11  19
ENDBRANCH   1  10
BRANCH   1  26
ATOM     26  C   UNL     1       2.637  -0.732  -4.643  0.00  0.00    +0.078 C 
BRANCH  26  27
ATOM     27  C   UNL     1       3.947  -0.968  -5.349  0.00  0.00    -0.038 A 
ATOM     28  C   UNL     1       4.862  -1.863  -4.828  0.00  0.00    +0.004 A 
ATOM     29  C   UNL     1       6.064  -2.079  -5.476  0.00  0.00    +0.000 A 
ATOM     30  C   UNL     1       6.350  -1.400  -6.646  0.00  0.00    +0.000 A 
ATOM     31  C   UNL     1       5.435  -0.506  -7.168  0.00  0.00    +0.000 A 
ATOM     32  C   UNL     1       4.231  -0.293  -6.522  0.00  0.00    +0.004 A 
ENDBRANCH  26  27
BRANCH  26  33
ATOM     33  C   UNL     1       1.734  -1.921  -4.849  0.00  0.00    -0.038 A 
ATOM     34  C   UNL     1       2.094  -3.157  -4.344  0.00  0.00    +0.004 A 
ATOM     35  C   UNL     1       1.266  -4.248  -4.533  0.00  0.00    +0.000 A 
ATOM     36  C   UNL     1       0.079  -4.103  -5.225  0.00  0.00    +0.000 A 
ATOM     37  C   UNL     1      -0.281  -2.867  -5.729  0.00  0.00    +0.000 A 
ATOM     38  C   UNL     1       0.544  -1.775  -5.537  0.00  0.00    +0.004 A 
ENDBRANCH  26  33
ENDBRANCH   1  26
TORSDOF 9
