REMARK  Name = ZINC35171205
REMARK  4 active torsions:
REMARK  status: ('A' for Active; 'I' for Inactive)
REMARK    1  A    between atoms: C_1  and  C_2
REMARK    2  A    between atoms: C_4  and  C_31
REMARK    3  A    between atoms: C_11  and  C_13
REMARK    4  A    between atoms: C_19  and  C_26
REMARK                            x       y       z     vdW  Elec       q    Type
REMARK                         _______ _______ _______ _____ _____    ______ ____
ROOT
ATOM      1  C   UNL     1       0.539   2.077   0.563  0.00  0.00    +0.066 C 
ATOM      2  C   UNL     1       0.608   0.580   0.406  0.00  0.00    +0.044 A 
ATOM      3  C   UNL     1       0.679   0.009  -0.855  0.00  0.00    +0.046 A 
ATOM      4  C   UNL     1       0.740  -1.373  -0.954  0.00  0.00    +0.044 A 
ATOM      5  N   UNL     1       0.728  -2.099   0.151  0.00  0.00    -0.216 NA
ATOM      6  C   UNL     1       0.659  -1.522   1.340  0.00  0.00    +0.253 A 
ATOM      7  N   UNL     1       0.606  -0.206   1.470  0.00  0.00    -0.216 NA
ATOM      8  N   UNL     1       0.649  -2.319   2.483  0.00  0.00    -0.183 N 
ATOM      9  C   UNL     1       0.690  -1.864   3.785  0.00  0.00    +0.137 A 
ATOM     10  C   UNL     1       0.663  -2.948   4.587  0.00  0.00    +0.038 A 
ATOM     11  C   UNL     1       0.603  -4.100   3.756  0.00  0.00    +0.100 A 
ATOM     12  N   UNL     1       0.589  -3.712   2.505  0.00  0.00    -0.162 NA
ATOM     13  C   UNL     1       0.689  -3.047   6.080  0.00  0.00    +0.113 C 
ATOM     14  S   UNL     1       1.677  -1.768   6.860  0.00  0.00    -0.138 S 
ATOM     15  C   UNL     1       0.807  -0.221   6.566  0.00  0.00    +0.166 C 
ATOM     16  C   UNL     1       0.831   0.192   5.147  0.00  0.00    +0.228 C 
ATOM     17  O   UNL     1       0.956   1.385   4.965  0.00  0.00    -0.275 OA
ATOM     18  N   UNL     1       0.740  -0.520   4.064  0.00  0.00    -0.269 N 
ATOM     19  C   UNL     1       0.818  -2.038  -2.304  0.00  0.00    +0.066 C 
ATOM     20  H   UNL     1       0.697   0.027   3.264  0.00  0.00    +0.156 HD
ENDROOT
BRANCH  11  21
ATOM     21  C   UNL     1       0.556  -5.506   4.228  0.00  0.00    +0.002 A 
ATOM     22  C   UNL     1      -0.436  -5.913   5.117  0.00  0.00    +0.010 A 
ATOM     23  C   UNL     1      -0.475  -7.222   5.552  0.00  0.00    +0.001 A 
ATOM     24  C   UNL     1       0.470  -8.129   5.108  0.00  0.00    +0.000 A 
ATOM     25  C   UNL     1       1.458  -7.731   4.226  0.00  0.00    +0.001 A 
ATOM     26  C   UNL     1       1.502  -6.426   3.779  0.00  0.00    +0.010 A 
ENDBRANCH  11  21
BRANCH  13  27
ATOM     27  C   UNL     1       1.251  -4.391   6.465  0.00  0.00    -0.023 A 
ATOM     28  C   UNL     1       0.567  -5.212   7.343  0.00  0.00    +0.012 A 
ATOM     29  C   UNL     1       1.100  -6.415   7.669  0.00  0.00    +0.045 A 
ATOM     30  S   UNL     1       2.614  -6.416   6.723  0.00  0.00    -0.105 S 
ATOM     31  C   UNL     1       2.431  -4.816   5.953  0.00  0.00    +0.050 A 
ENDBRANCH  13  27
TORSDOF 2
