REMARK  Name = ZINC57003512
REMARK  8 active torsions:
REMARK  status: ('A' for Active; 'I' for Inactive)
REMARK    1  A    between atoms: C_1  and  O_2
REMARK    2  A    between atoms: O_2  and  C_3
REMARK    3  A    between atoms: C_6  and  C_9
REMARK    4  A    between atoms: C_9  and  C_11
REMARK    5  A    between atoms: C_9  and  N_28
REMARK    6  A    between atoms: C_11  and  N_12
REMARK    7  A    between atoms: N_15  and  C_16
REMARK    8  A    between atoms: C_25  and  O_27
REMARK                            x       y       z     vdW  Elec       q    Type
REMARK                         _______ _______ _______ _____ _____    ______ ____
ROOT
ATOM      1  N   UNL     1      -5.434  -1.883  -2.241  0.00  0.00    -0.301 N 
ATOM      2  C   UNL     1      -5.708  -2.037  -3.551  0.00  0.00    +0.300 C 
ATOM      3  O   UNL     1      -5.708  -3.147  -4.046  0.00  0.00    -0.253 OA
ATOM      4  N   UNL     1      -5.984  -0.960  -4.313  0.00  0.00    -0.290 N 
ATOM      5  H   UNL     1      -5.434  -0.997  -1.846  0.00  0.00    +0.150 HD
ATOM      6  H   UNL     1      -5.985  -0.074  -3.918  0.00  0.00    +0.151 HD
ENDROOT
BRANCH   4   7
ATOM      7  C   UNL     1      -6.283  -1.127  -5.738  0.00  0.00    +0.134 C 
ATOM      8  C   UNL     1      -5.005  -1.104  -6.549  0.00  0.00    -0.021 A 
ATOM      9  C   UNL     1      -4.050  -2.088  -6.746  0.00  0.00    +0.006 A 
ATOM     10  C   UNL     1      -2.948  -1.836  -7.539  0.00  0.00    +0.000 A 
ATOM     11  C   UNL     1      -2.796  -0.600  -8.138  0.00  0.00    +0.000 A 
ATOM     12  C   UNL     1      -3.748   0.382  -7.943  0.00  0.00    +0.004 A 
ATOM     13  C   UNL     1      -4.854   0.132  -7.148  0.00  0.00    -0.040 A 
ATOM     14  C   UNL     1      -6.020   1.025  -6.780  0.00  0.00    +0.069 C 
ATOM     15  C   UNL     1      -7.114   0.067  -6.254  0.00  0.00    +0.143 C 
BRANCH  15  16
ATOM     16  O   UNL     1      -7.852   0.671  -5.190  0.00  0.00    -0.389 OA
ATOM     17  H   UNL     1      -8.390   1.427  -5.464  0.00  0.00    +0.210 HD
ENDBRANCH  15  16
ENDBRANCH   4   7
BRANCH   1  18
ATOM     18  C   UNL     1      -5.134  -3.054  -1.413  0.00  0.00    +0.095 C 
BRANCH  18  19
ATOM     19  C   UNL     1      -4.732  -2.596  -0.009  0.00  0.00    -0.020 C 
BRANCH  19  23
ATOM     20  C   UNL     1      -1.061  -0.419  -0.215  0.00  0.00    +0.120 A 
ATOM     21  C   UNL     1      -2.268   0.260  -0.130  0.00  0.00    +0.046 A 
ATOM     22  C   UNL     1      -3.453  -0.446  -0.064  0.00  0.00    +0.005 A 
ATOM     23  C   UNL     1      -3.438  -1.829  -0.082  0.00  0.00    -0.059 A 
ATOM     24  C   UNL     1      -2.236  -2.508  -0.167  0.00  0.00    +0.005 A 
ATOM     25  C   UNL     1      -1.048  -1.806  -0.240  0.00  0.00    +0.046 A 
BRANCH  20  27
ATOM     26  C   UNL     1       0.018   1.699  -0.251  0.00  0.00    +0.277 C 
ATOM     27  O   UNL     1       0.106   0.274  -0.281  0.00  0.00    -0.495 OA
ENDBRANCH  20  27
ENDBRANCH  19  23
BRANCH  19  28
ATOM     28  N   UNL     1      -4.558  -3.770   0.857  0.00  0.00    +0.385 N 
ATOM     29  C   UNL     1      -4.181  -3.343   2.228  0.00  0.00    -0.078 C 
ATOM     30  C   UNL     1      -4.583  -4.558   3.101  0.00  0.00    -0.020 C 
ATOM     31  C   UNL     1      -5.892  -5.043   2.436  0.00  0.00    -0.020 C 
ATOM     32  C   UNL     1      -5.839  -4.495   0.998  0.00  0.00    -0.078 C 
ATOM     33  H   UNL     1      -3.852  -4.382   0.476  0.00  0.00    -0.081 HD
ENDBRANCH  19  28
ENDBRANCH  18  19
ENDBRANCH   1  18
TORSDOF 7
