REMARK  Name = ZINC32948423
REMARK  7 active torsions:
REMARK  status: ('A' for Active; 'I' for Inactive)
REMARK    1  A    between atoms: C_1  and  C_2
REMARK    2  A    between atoms: C_5  and  N_8
REMARK    3  A    between atoms: C_9  and  C_11
REMARK    4  A    between atoms: C_11  and  S_12
REMARK    5  A    between atoms: S_12  and  C_13
REMARK    6  A    between atoms: N_21  and  C_25
REMARK    7  A    between atoms: C_30  and  C_31
REMARK                            x       y       z     vdW  Elec       q    Type
REMARK                         _______ _______ _______ _____ _____    ______ ____
ROOT
ATOM      1  C   UNL     1       0.115   0.979  -2.723  0.00  0.00    +0.172 A 
ATOM      2  N   UNL     1      -0.222   1.202  -4.025  0.00  0.00    -0.301 N 
ATOM      3  H   UNL     1      -1.107   1.808  -4.268  0.00  0.00    +0.171 HD
ATOM      4  C   UNL     1       0.549   0.667  -5.002  0.00  0.00    +0.268 A 
ATOM      5  O   UNL     1       0.284   0.847  -6.180  0.00  0.00    -0.267 OA
ATOM      6  C   UNL     1       1.647  -0.098  -4.629  0.00  0.00    +0.122 A 
ATOM      7  C   UNL     1       1.970  -0.318  -3.288  0.00  0.00    +0.161 A 
ATOM      8  N   UNL     1       1.151   0.258  -2.374  0.00  0.00    -0.204 NA
ATOM      9  N   UNL     1       3.080  -1.091  -3.054  0.00  0.00    -0.281 N 
ATOM     10  C   UNL     1       3.800  -1.596  -4.078  0.00  0.00    +0.132 A 
ATOM     11  S   UNL     1       5.204  -2.574  -4.025  0.00  0.00    -0.024 S 
ATOM     12  S   UNL     1       2.913  -0.983  -5.502  0.00  0.00    -0.055 S 
ENDROOT
BRANCH   9  13
ATOM     13  C   UNL     1       3.471  -1.358  -1.736  0.00  0.00    +0.052 A 
ATOM     14  C   UNL     1       2.978  -2.477  -1.077  0.00  0.00    +0.026 A 
ATOM     15  C   UNL     1       3.365  -2.738   0.222  0.00  0.00    +0.002 A 
ATOM     16  C   UNL     1       4.244  -1.887   0.868  0.00  0.00    +0.000 A 
ATOM     17  C   UNL     1       4.737  -0.772   0.214  0.00  0.00    +0.005 A 
ATOM     18  C   UNL     1       4.357  -0.509  -1.087  0.00  0.00    -0.027 A 
ATOM     19  C   UNL     1       4.899   0.703  -1.801  0.00  0.00    +0.046 C 
ENDBRANCH   9  13
BRANCH   1  20
ATOM     20  S   UNL     1      -0.889   1.683  -1.458  0.00  0.00    -0.078 S 
BRANCH  20  21
ATOM     21  C   UNL     1      -0.016   1.080   0.008  0.00  0.00    +0.173 C 
BRANCH  21  23
ATOM     22  N   UNL     1      -0.242   1.246   2.466  0.00  0.00    -0.285 N 
ATOM     23  C   UNL     1      -0.717   1.573   1.248  0.00  0.00    +0.227 C 
ATOM     24  O   UNL     1      -1.709   2.264   1.150  0.00  0.00    -0.275 OA
ATOM     25  H   UNL     1       0.612   0.558   2.557  0.00  0.00    +0.155 HD
BRANCH  22  30
ATOM     26  C   UNL     1      -2.641   3.419   7.125  0.00  0.00    +0.044 C 
ATOM     27  C   UNL     1      -2.003   2.842   5.887  0.00  0.00    -0.050 A 
ATOM     28  C   UNL     1      -2.784   2.535   4.788  0.00  0.00    +0.005 A 
ATOM     29  C   UNL     1      -2.203   2.006   3.652  0.00  0.00    +0.023 A 
ATOM     30  C   UNL     1      -0.833   1.782   3.615  0.00  0.00    +0.033 A 
ATOM     31  C   UNL     1      -0.053   2.086   4.722  0.00  0.00    +0.023 A 
ATOM     32  C   UNL     1      -0.639   2.620   5.853  0.00  0.00    +0.005 A 
ENDBRANCH  22  30
ENDBRANCH  21  23
ENDBRANCH  20  21
ENDBRANCH   1  20
TORSDOF 5
