REMARK  Name = ZINC03242106
REMARK  8 active torsions:
REMARK  status: ('A' for Active; 'I' for Inactive)
REMARK    1  A    between atoms: C_1  and  C_2
REMARK    2  A    between atoms: C_2  and  C_4
REMARK    3  A    between atoms: C_2  and  N_15
REMARK    4  A    between atoms: C_4  and  C_6
REMARK    5  A    between atoms: C_4  and  N_48
REMARK    6  A    between atoms: C_16  and  C_18
REMARK    7  A    between atoms: C_18  and  O_19
REMARK    8  A    between atoms: O_19  and  C_20
REMARK                            x       y       z     vdW  Elec       q    Type
REMARK                         _______ _______ _______ _____ _____    ______ ____
ROOT
ATOM      1  C   UNL     1       2.120   1.085  -1.236  0.00  0.00    +0.026 C 
ATOM      2  C   UNL     1       1.348   1.668  -0.051  0.00  0.00    +0.061 C 
ENDROOT
BRANCH   2   3
ATOM      3  N   UNL     1       1.910   1.151   1.200  0.00  0.00    -0.311 N 
ATOM      4  C   UNL     1       2.975   1.756   1.761  0.00  0.00    +0.251 C 
ATOM      5  O   UNL     1       3.469   2.729   1.232  0.00  0.00    -0.272 OA
ATOM      6  H   UNL     1       1.515   0.372   1.623  0.00  0.00    +0.149 HD
BRANCH   4   7
ATOM      7  C   UNL     1       3.553   1.224   3.047  0.00  0.00    +0.324 C 
BRANCH   7   8
ATOM      8  O   UNL     1       4.667   2.029   3.438  0.00  0.00    -0.481 OA
BRANCH   8   9
ATOM      9  C   UNL     1       5.307   1.682   4.587  0.00  0.00    +0.140 A 
ATOM     10  C   UNL     1       4.871   0.589   5.321  0.00  0.00    +0.048 A 
ATOM     11  C   UNL     1       5.522   0.237   6.488  0.00  0.00    +0.023 A 
ATOM     12  C   UNL     1       6.609   0.975   6.924  0.00  0.00    +0.043 A 
ATOM     13  C   UNL     1       7.046   2.066   6.194  0.00  0.00    +0.043 A 
ATOM     14  C   UNL     1       6.400   2.417   5.022  0.00  0.00    +0.084 A 
ATOM     15 CL   UNL     1       6.953   3.781   4.101  0.00  0.00    -0.080 Cl
ATOM     16 CL   UNL     1       7.425   0.530   8.390  0.00  0.00    -0.083 Cl
ENDBRANCH   8   9
ENDBRANCH   7   8
ENDBRANCH   4   7
ENDBRANCH   2   3
BRANCH   2  17
ATOM     17  C   UNL     1      -0.124   1.266  -0.153  0.00  0.00    -0.010 C 
BRANCH  17  22
ATOM     18  C   UNL     1      -0.754   3.260   1.093  0.00  0.00    -0.078 C 
ATOM     19  C   UNL     1      -1.952   3.649   1.995  0.00  0.00    -0.020 C 
ATOM     20  C   UNL     1      -3.053   2.658   1.553  0.00  0.00    -0.020 C 
ATOM     21  C   UNL     1      -2.299   1.480   0.909  0.00  0.00    -0.078 C 
ATOM     22  N   UNL     1      -0.875   1.796   1.025  0.00  0.00    +0.386 N 
ATOM     23  H   UNL     1      -0.496   1.376   1.882  0.00  0.00    -0.081 HD
ENDBRANCH  17  22
BRANCH  17  24
ATOM     24  C   UNL     1      -0.233  -0.237  -0.190  0.00  0.00    -0.022 A 
ATOM     25  C   UNL     1      -0.416  -1.053  -1.257  0.00  0.00    +0.009 A 
ATOM     26  C   UNL     1      -0.483  -2.418  -1.052  0.00  0.00    +0.008 A 
ATOM     27  C   UNL     1      -0.375  -2.900   0.210  0.00  0.00    +0.045 A 
ATOM     28  S   UNL     1      -0.163  -1.403   1.159  0.00  0.00    -0.103 S 
ENDBRANCH  17  24
ENDBRANCH   2  17
TORSDOF 7
