REMARK  Name = ZINC59311716
REMARK  11 active torsions:
REMARK  status: ('A' for Active; 'I' for Inactive)
REMARK    1  A    between atoms: C_1  and  C_2
REMARK    2  A    between atoms: C_2  and  C_3
REMARK    3  A    between atoms: C_3  and  C_4
REMARK    4  A    between atoms: N_5  and  N_6
REMARK    5  A    between atoms: C_9  and  S_12
REMARK    6  A    between atoms: S_12  and  C_13
REMARK    7  A    between atoms: C_13  and  C_14
REMARK    8  A    between atoms: N_16  and  C_17
REMARK    9  A    between atoms: C_22  and  S_23
REMARK   10  A    between atoms: S_23  and  C_24
REMARK   11  A    between atoms: C_24  and  C_25
REMARK                            x       y       z     vdW  Elec       q    Type
REMARK                         _______ _______ _______ _____ _____    ______ ____
ROOT
ATOM      1  C   UNL     1       9.163  -6.434   1.872  0.00  0.00    +0.228 C 
ATOM      2  O   UNL     1       9.704  -5.350   1.924  0.00  0.00    -0.275 OA
ATOM      3  N   UNL     1       9.903  -7.560   1.913  0.00  0.00    -0.284 N 
ATOM      4  H   UNL     1       9.468  -8.426   1.937  0.00  0.00    +0.155 HD
ENDROOT
BRANCH   3   5
ATOM      5  C   UNL     1      11.302  -7.478   1.920  0.00  0.00    +0.047 A 
ATOM      6  C   UNL     1      11.934  -6.432   2.574  0.00  0.00    +0.024 A 
ATOM      7  C   UNL     1      13.315  -6.353   2.580  0.00  0.00    +0.002 A 
ATOM      8  C   UNL     1      14.069  -7.315   1.934  0.00  0.00    +0.001 A 
ATOM      9  C   UNL     1      13.448  -8.362   1.279  0.00  0.00    +0.016 A 
ATOM     10  C   UNL     1      12.063  -8.452   1.273  0.00  0.00    +0.029 A 
BRANCH  10  11
ATOM     11  S   UNL     1      11.269  -9.789   0.445  0.00  0.00    -0.119 S 
BRANCH  11  12
ATOM     12  C   UNL     1      12.641 -10.769  -0.224  0.00  0.00    +0.109 C 
BRANCH  12  13
ATOM     13  C   UNL     1      12.092 -11.960  -0.967  0.00  0.00    -0.036 A 
ATOM     14  C   UNL     1      11.868 -13.148  -0.298  0.00  0.00    +0.004 A 
ATOM     15  C   UNL     1      11.365 -14.241  -0.979  0.00  0.00    +0.001 A 
ATOM     16  C   UNL     1      11.086 -14.146  -2.329  0.00  0.00    +0.015 A 
ATOM     17  C   UNL     1      11.310 -12.957  -2.999  0.00  0.00    +0.018 A 
ATOM     18  C   UNL     1      11.809 -11.862  -2.316  0.00  0.00    +0.019 A 
ATOM     19 BR   UNL     1      10.930 -12.826  -4.847  0.00  0.00    -0.050 Br
ENDBRANCH  12  13
ENDBRANCH  11  12
ENDBRANCH  10  11
ENDBRANCH   3   5
BRANCH   1  20
ATOM     20  C   UNL     1       7.662  -6.523   1.763  0.00  0.00    +0.173 C 
BRANCH  20  21
ATOM     21  S   UNL     1       6.958  -4.852   1.732  0.00  0.00    -0.075 S 
BRANCH  21  25
ATOM     22  N   UNL     1       1.892  -4.042   1.374  0.00  0.00    -0.206 N 
ATOM     23  C   UNL     1       3.096  -4.718   1.454  0.00  0.00    +0.232 A 
ATOM     24  N   UNL     1       4.288  -4.167   1.547  0.00  0.00    -0.186 NA
ATOM     25  C   UNL     1       5.222  -5.123   1.603  0.00  0.00    +0.211 A 
ATOM     26  N   UNL     1       4.636  -6.295   1.546  0.00  0.00    -0.144 NA
ATOM     27  N   UNL     1       3.255  -6.058   1.455  0.00  0.00    -0.245 N 
ATOM     28  H   UNL     1       1.060  -4.537   1.313  0.00  0.00    +0.177 HD
ATOM     29  H   UNL     1       2.553  -6.726   1.401  0.00  0.00    +0.192 HD
BRANCH  22  31
ATOM     30  C   UNL     1       0.759  -2.015   1.310  0.00  0.00    +0.103 C 
ATOM     31  N   UNL     1       1.873  -2.641   1.383  0.00  0.00    -0.192 NA
BRANCH  30  32
ATOM     32  C   UNL     1       0.739  -0.508   1.319  0.00  0.00    +0.048 C 
BRANCH  32  34
ATOM     33  C   UNL     1      -0.031   1.530   0.096  0.00  0.00    +0.004 C 
ATOM     34  C   UNL     1      -0.011  -0.000   0.086  0.00  0.00    +0.002 C 
ENDBRANCH  32  34
ENDBRANCH  30  32
ENDBRANCH  22  31
ENDBRANCH  21  25
ENDBRANCH  20  21
ENDBRANCH   1  20
TORSDOF 10
