REMARK  Name = ZINC07980133
REMARK  13 active torsions:
REMARK  status: ('A' for Active; 'I' for Inactive)
REMARK    1  A    between atoms: C_1  and  C_2
REMARK    2  A    between atoms: C_2  and  N_54
REMARK    3  A    between atoms: C_3  and  C_4
REMARK    4  A    between atoms: C_3  and  N_54
REMARK    5  A    between atoms: C_5  and  C_7
REMARK    6  A    between atoms: C_5  and  C_23
REMARK    7  A    between atoms: C_5  and  N_54
REMARK    8  A    between atoms: C_7  and  N_8
REMARK    9  A    between atoms: N_8  and  C_9
REMARK   10  A    between atoms: C_12  and  S_18
REMARK   11  A    between atoms: C_14  and  N_15
REMARK   12  A    between atoms: S_18  and  N_21
REMARK   13  A    between atoms: N_21  and  C_22
REMARK                            x       y       z     vdW  Elec       q    Type
REMARK                         _______ _______ _______ _____ _____    ______ ____
ROOT
ATOM      1  N   UNL     1      -1.929   4.911  -4.686  0.00  0.00    -0.343 N 
ATOM      2  H   UNL     1      -2.215   4.157  -5.226  0.00  0.00    +0.146 HD
ENDROOT
BRANCH   1   3
ATOM      3  C   UNL     1      -2.041   4.856  -3.295  0.00  0.00    +0.058 A 
ATOM      4  C   UNL     1      -1.755   5.978  -2.529  0.00  0.00    +0.027 A 
ATOM      5  C   UNL     1      -1.872   5.922  -1.154  0.00  0.00    +0.030 A 
ATOM      6  C   UNL     1      -2.264   4.746  -0.539  0.00  0.00    +0.108 A 
ATOM      7  C   UNL     1      -2.549   3.627  -1.299  0.00  0.00    +0.063 A 
ATOM      8  C   UNL     1      -2.439   3.678  -2.675  0.00  0.00    +0.149 A 
BRANCH   8   9
ATOM      9  N   UNL     1      -2.745   2.480  -3.488  0.00  0.00    +0.058 N 
ATOM     10  O   UNL     1      -2.978   1.417  -2.941  0.00  0.00    -0.126 OA
ATOM     11  O   UNL     1      -2.763   2.557  -4.703  0.00  0.00    -0.126 OA
ENDBRANCH   8   9
BRANCH   6  12
ATOM     12  S   UNL     1      -2.406   4.677   1.215  0.00  0.00    +0.058 S 
ATOM     13  O   UNL     1      -3.319   3.628   1.508  0.00  0.00    -0.153 OA
ATOM     14  O   UNL     1      -2.610   6.011   1.659  0.00  0.00    -0.153 OA
BRANCH  12  15
ATOM     15  N   UNL     1      -0.934   4.202   1.808  0.00  0.00    -0.193 NA
ATOM     16  C   UNL     1       0.238   5.063   1.635  0.00  0.00    +0.127 C 
ATOM     17  H   UNL     1      -0.847   3.351   2.265  0.00  0.00    +0.148 HD
ENDBRANCH  12  15
ENDBRANCH   6  12
ENDBRANCH   1   3
BRANCH   1  18
ATOM     18  C   UNL     1      -1.380   6.107  -5.330  0.00  0.00    +0.091 C 
BRANCH  18  19
ATOM     19  C   UNL     1      -1.479   5.959  -6.850  0.00  0.00    -0.020 C 
BRANCH  19  20
ATOM     20  C   UNL     1      -1.067   7.250  -7.508  0.00  0.00    -0.059 A 
ATOM     21  C   UNL     1      -1.550   8.454  -7.030  0.00  0.00    +0.002 A 
ATOM     22  C   UNL     1      -1.169   9.639  -7.631  0.00  0.00    +0.000 A 
ATOM     23  C   UNL     1      -0.312   9.620  -8.716  0.00  0.00    +0.000 A 
ATOM     24  C   UNL     1       0.166   8.416  -9.197  0.00  0.00    +0.000 A 
ATOM     25  C   UNL     1      -0.212   7.231  -8.594  0.00  0.00    +0.002 A 
ENDBRANCH  19  20
BRANCH  19  26
ATOM     26  N   UNL     1      -2.876   5.625  -7.200  0.00  0.00    +0.385 N 
ATOM     27  H   UNL     1      -3.292   5.085  -6.432  0.00  0.00    -0.081 HD
BRANCH  26  29
ATOM     28  C   UNL     1      -4.153   7.349  -6.032  0.00  0.00    -0.017 C 
ATOM     29  C   UNL     1      -3.658   6.864  -7.396  0.00  0.00    -0.081 C 
ENDBRANCH  26  29
BRANCH  26  30
ATOM     30  C   UNL     1      -2.906   4.808  -8.432  0.00  0.00    -0.081 C 
ATOM     31  C   UNL     1      -2.456   3.386  -8.089  0.00  0.00    -0.017 C 
ENDBRANCH  26  30
ENDBRANCH  19  26
ENDBRANCH  18  19
ENDBRANCH   1  18
TORSDOF 10
