REMARK  Name = ZINC60366529
REMARK  19 active torsions:
REMARK  status: ('A' for Active; 'I' for Inactive)
REMARK    1  A    between atoms: C_1  and  C_2
REMARK    2  A    between atoms: C_2  and  C_4
REMARK    3  A    between atoms: C_2  and  N_28
REMARK    4  A    between atoms: N_10  and  C_11
REMARK    5  A    between atoms: C_11  and  C_12
REMARK    6  A    between atoms: C_14  and  C_17
REMARK    7  A    between atoms: C_17  and  C_18
REMARK    8  A    between atoms: C_17  and  C_19
REMARK    9  A    between atoms: C_17  and  N_20
REMARK   10  A    between atoms: C_21  and  O_23
REMARK   11  A    between atoms: O_23  and  C_24
REMARK   12  A    between atoms: C_24  and  C_25
REMARK   13  A    between atoms: C_24  and  C_26
REMARK   14  A    between atoms: C_24  and  C_27
REMARK   15  A    between atoms: C_29  and  O_31
REMARK   16  A    between atoms: O_31  and  C_32
REMARK   17  A    between atoms: C_32  and  C_33
REMARK   18  A    between atoms: C_32  and  C_34
REMARK   19  A    between atoms: C_32  and  C_35
REMARK                            x       y       z     vdW  Elec       q    Type
REMARK                         _______ _______ _______ _____ _____    ______ ____
ROOT
ATOM      1  C   UNL     1      -1.305  -0.633  -0.103  0.00  0.00    -0.047 C 
ATOM      2  C   UNL     1      -1.182  -2.157  -0.051  0.00  0.00    -0.014 C 
ATOM      3  C   UNL     1      -2.582  -2.776  -0.004  0.00  0.00    -0.003 C 
ATOM      4  C   UNL     1      -3.382  -2.299  -1.220  0.00  0.00    -0.019 C 
ATOM      5  C   UNL     1      -3.424  -0.769  -1.228  0.00  0.00    -0.078 C 
ATOM      6  N   UNL     1      -2.057  -0.240  -1.301  0.00  0.00    +0.389 N 
ATOM      7  H   UNL     1      -1.597  -0.608  -2.120  0.00  0.00    -0.081 HD
ENDROOT
BRANCH   1   9
ATOM      8  C   UNL     1       0.872  -0.412   1.103  0.00  0.00    +0.026 C 
ATOM      9  C   UNL     1       0.091  -0.010  -0.150  0.00  0.00    +0.060 C 
BRANCH   9  10
ATOM     10  N   UNL     1       0.799  -0.488  -1.340  0.00  0.00    -0.280 N 
ATOM     11  C   UNL     1       1.790   0.251  -1.877  0.00  0.00    +0.401 C 
ATOM     12  O   UNL     1       2.096   1.313  -1.374  0.00  0.00    -0.226 OA
ATOM     13  H   UNL     1       0.555  -1.337  -1.741  0.00  0.00    +0.152 HD
BRANCH  11  14
ATOM     14  O   UNL     1       2.441  -0.189  -2.971  0.00  0.00    -0.445 OA
BRANCH  14  15
ATOM     15  C   UNL     1       3.480   0.645  -3.486  0.00  0.00    +0.107 C 
ATOM     16  C   UNL     1       4.557   0.838  -2.417  0.00  0.00    +0.055 C 
ATOM     17  C   UNL     1       4.099  -0.015  -4.721  0.00  0.00    +0.055 C 
ATOM     18  C   UNL     1       2.897   2.006  -3.874  0.00  0.00    +0.055 C 
ENDBRANCH  14  15
ENDBRANCH  11  14
ENDBRANCH   9  10
ENDBRANCH   1   9
BRANCH   6  19
ATOM     19  C   UNL     1      -2.105   1.226  -1.387  0.00  0.00    +0.022 C 
BRANCH  19  20
ATOM     20  C   UNL     1      -2.788   1.631  -2.669  0.00  0.00    +0.211 A 
ATOM     21  N   UNL     1      -4.066   1.840  -2.821  0.00  0.00    -0.195 NA
ATOM     22  C   UNL     1      -4.327   2.184  -4.087  0.00  0.00    +0.194 A 
ATOM     23  N   UNL     1      -3.212   2.199  -4.759  0.00  0.00    -0.059 NA
ATOM     24  O   UNL     1      -2.185   1.844  -3.845  0.00  0.00    -0.340 OA
BRANCH  22  25
ATOM     25  C   UNL     1      -5.691   2.503  -4.644  0.00  0.00    +0.095 C 
ATOM     26  C   UNL     1      -6.606   1.289  -4.479  0.00  0.00    +0.040 C 
ATOM     27  C   UNL     1      -6.284   3.695  -3.890  0.00  0.00    +0.040 C 
BRANCH  25  28
ATOM     28  N   UNL     1      -5.571   2.835  -6.066  0.00  0.00    -0.269 N 
ATOM     29  C   UNL     1      -6.670   3.157  -6.778  0.00  0.00    +0.402 C 
ATOM     30  O   UNL     1      -7.759   3.171  -6.240  0.00  0.00    -0.226 OA
ATOM     31  H   UNL     1      -4.702   2.824  -6.495  0.00  0.00    +0.153 HD
BRANCH  29  32
ATOM     32  O   UNL     1      -6.560   3.462  -8.084  0.00  0.00    -0.445 OA
BRANCH  32  33
ATOM     33  C   UNL     1      -7.766   3.792  -8.777  0.00  0.00    +0.107 C 
ATOM     34  C   UNL     1      -8.411   5.016  -8.122  0.00  0.00    +0.055 C 
ATOM     35  C   UNL     1      -7.444   4.107 -10.239  0.00  0.00    +0.055 C 
ATOM     36  C   UNL     1      -8.733   2.609  -8.711  0.00  0.00    +0.055 C 
ENDBRANCH  32  33
ENDBRANCH  29  32
ENDBRANCH  25  28
ENDBRANCH  22  25
ENDBRANCH  19  20
ENDBRANCH   6  19
TORSDOF 10
