REMARK  Name = ZINC14700636
REMARK  5 active torsions:
REMARK  status: ('A' for Active; 'I' for Inactive)
REMARK    1  A    between atoms: C_1  and  C_2
REMARK    2  A    between atoms: C_2  and  C_3
REMARK    3  A    between atoms: C_2  and  C_4
REMARK    4  A    between atoms: C_8  and  N_10
REMARK    5  A    between atoms: C_11  and  C_13
REMARK                            x       y       z     vdW  Elec       q    Type
REMARK                         _______ _______ _______ _____ _____    ______ ____
ROOT
ATOM      1  N   UNL     1      -3.621  -2.614  -2.056  0.00  0.00    -0.283 N 
ATOM      2  C   UNL     1      -4.851  -3.162  -1.995  0.00  0.00    +0.252 C 
ATOM      3  O   UNL     1      -5.595  -2.881  -1.080  0.00  0.00    -0.272 OA
ATOM      4  H   UNL     1      -3.054  -2.778  -2.826  0.00  0.00    +0.155 HD
ENDROOT
BRANCH   2   5
ATOM      5  C   UNL     1      -5.301  -4.123  -3.065  0.00  0.00    +0.169 C 
ATOM      6  C   UNL     1      -4.356  -5.323  -3.235  0.00  0.00    +0.056 C 
ATOM      7  C   UNL     1      -4.981  -6.312  -2.218  0.00  0.00    +0.100 C 
ATOM      8  C   UNL     1      -6.435  -5.904  -2.144  0.00  0.00    +0.221 C 
ATOM      9  O   UNL     1      -7.305  -6.534  -1.581  0.00  0.00    -0.275 OA
ATOM     10  N   UNL     1      -6.628  -4.730  -2.799  0.00  0.00    -0.246 N 
ATOM     11  C   UNL     1      -7.700  -4.003  -3.357  0.00  0.00    +0.052 A 
ATOM     12  C   UNL     1      -9.036  -4.053  -2.933  0.00  0.00    +0.025 A 
ATOM     13  C   UNL     1     -10.006  -3.304  -3.561  0.00  0.00    +0.002 A 
ATOM     14  C   UNL     1      -9.697  -2.481  -4.628  0.00  0.00    +0.001 A 
ATOM     15  C   UNL     1      -8.383  -2.408  -5.063  0.00  0.00    +0.016 A 
ATOM     16  C   UNL     1      -7.415  -3.151  -4.432  0.00  0.00    +0.032 A 
ATOM     17  S   UNL     1      -5.655  -3.309  -4.672  0.00  0.00    -0.088 S 
ENDBRANCH   2   5
BRANCH   1  22
ATOM     18  C   UNL     1      -1.863   0.053  -0.234  0.00  0.00    -0.043 A 
ATOM     19  C   UNL     1      -2.252  -0.217   1.065  0.00  0.00    +0.004 A 
ATOM     20  C   UNL     1      -3.094  -1.282   1.331  0.00  0.00    +0.002 A 
ATOM     21  C   UNL     1      -3.549  -2.078   0.298  0.00  0.00    +0.023 A 
ATOM     22  C   UNL     1      -3.161  -1.809  -1.008  0.00  0.00    +0.034 A 
ATOM     23  C   UNL     1      -2.320  -0.736  -1.272  0.00  0.00    +0.027 A 
BRANCH  18  25
ATOM     24  C   UNL     1      -1.604   2.512  -0.046  0.00  0.00    +0.012 C 
ATOM     25  C   UNL     1      -0.946   1.214  -0.519  0.00  0.00    +0.013 C 
ATOM     26  C   UNL     1       0.377   1.014   0.222  0.00  0.00    +0.012 C 
ENDBRANCH  18  25
ENDBRANCH   1  22
TORSDOF 3
