REMARK  Name = ZINC16286124
REMARK  7 active torsions:
REMARK  status: ('A' for Active; 'I' for Inactive)
REMARK    1  A    between atoms: C_1  and  N_2
REMARK    2  A    between atoms: C_16  and  C_19
REMARK    3  A    between atoms: C_19  and  C_20
REMARK    4  A    between atoms: C_20  and  S_21
REMARK    5  A    between atoms: S_21  and  C_22
REMARK    6  A    between atoms: N_25  and  C_28
REMARK    7  A    between atoms: C_28  and  C_29
REMARK                            x       y       z     vdW  Elec       q    Type
REMARK                         _______ _______ _______ _____ _____    ______ ____
ROOT
ATOM      1  C   UNL     1      -0.018   1.461   0.010  0.00  0.00    +0.138 C 
ATOM      2  N   UNL     1       0.002  -0.004   0.002  0.00  0.00    -0.272 N 
ATOM      3  C   UNL     1       0.008  -0.777  -1.161  0.00  0.00    +0.041 A 
ATOM      4  C   UNL     1      -0.003  -0.404  -2.503  0.00  0.00    +0.024 A 
ATOM      5  C   UNL     1       0.006  -1.365  -3.491  0.00  0.00    +0.002 A 
ATOM      6  C   UNL     1       0.026  -2.708  -3.159  0.00  0.00    +0.000 A 
ATOM      7  C   UNL     1       0.036  -3.088  -1.829  0.00  0.00    +0.008 A 
ATOM      8  C   UNL     1       0.028  -2.131  -0.839  0.00  0.00    +0.004 A 
ATOM      9  C   UNL     1       0.035  -2.196   0.662  0.00  0.00    +0.136 C 
ATOM     10  C   UNL     1       0.023  -0.762   1.116  0.00  0.00    +0.245 C 
ATOM     11  O   UNL     1       0.029  -0.365   2.262  0.00  0.00    -0.273 OA
ATOM     12  C   UNL     1      -1.175  -2.970   1.197  0.00  0.00    +0.122 C 
ATOM     13  C   UNL     1      -0.632  -4.401   1.473  0.00  0.00    +0.107 C 
ATOM     14  C   UNL     1       0.852  -4.349   1.054  0.00  0.00    +0.068 C 
ATOM     15  N   UNL     1       1.225  -2.907   1.166  0.00  0.00    -0.295 NA
ATOM     16  C   UNL     1      -0.737  -4.531   2.975  0.00  0.00    +0.227 C 
ATOM     17  O   UNL     1      -0.408  -5.504   3.619  0.00  0.00    -0.275 OA
ATOM     18  N   UNL     1      -1.250  -3.404   3.484  0.00  0.00    -0.237 N 
ATOM     19  C   UNL     1      -1.544  -2.452   2.569  0.00  0.00    +0.229 C 
ATOM     20  O   UNL     1      -2.021  -1.362   2.801  0.00  0.00    -0.275 OA
ATOM     21  H   UNL     1       2.035  -2.702   0.600  0.00  0.00    +0.123 HD
ENDROOT
BRANCH  14  22
ATOM     22  C   UNL     1       1.706  -5.182   2.012  0.00  0.00    +0.030 C 
BRANCH  22  23
ATOM     23  C   UNL     1       3.150  -5.219   1.508  0.00  0.00    +0.070 C 
BRANCH  23  24
ATOM     24  S   UNL     1       4.161  -6.206   2.645  0.00  0.00    -0.164 S 
ATOM     25  C   UNL     1       5.821  -6.152   1.916  0.00  0.00    +0.084 C 
ENDBRANCH  23  24
ENDBRANCH  22  23
ENDBRANCH  14  22
BRANCH  18  26
ATOM     26  C   UNL     1      -1.481  -3.217   4.919  0.00  0.00    +0.151 C 
BRANCH  26  27
ATOM     27  C   UNL     1      -0.251  -2.621   5.552  0.00  0.00    -0.030 A 
ATOM     28  C   UNL     1       0.740  -3.447   6.050  0.00  0.00    +0.005 A 
ATOM     29  C   UNL     1       1.868  -2.900   6.632  0.00  0.00    +0.000 A 
ATOM     30  C   UNL     1       2.006  -1.527   6.715  0.00  0.00    +0.000 A 
ATOM     31  C   UNL     1       1.016  -0.701   6.216  0.00  0.00    +0.000 A 
ATOM     32  C   UNL     1      -0.110  -1.248   5.631  0.00  0.00    +0.005 A 
ENDBRANCH  26  27
ENDBRANCH  18  26
TORSDOF 5
