REMARK  Name = ZINC04762832
REMARK  7 active torsions:
REMARK  status: ('A' for Active; 'I' for Inactive)
REMARK    1  A    between atoms: C_1  and  C_2
REMARK    2  A    between atoms: C_2  and  C_15
REMARK    3  A    between atoms: N_3  and  N_4
REMARK    4  A    between atoms: N_4  and  C_5
REMARK    5  A    between atoms: C_15  and  C_28
REMARK    6  A    between atoms: N_16  and  N_17
REMARK    7  A    between atoms: N_17  and  C_18
REMARK                            x       y       z     vdW  Elec       q    Type
REMARK                         _______ _______ _______ _____ _____    ______ ____
ROOT
ATOM      1  C   UNL     1      -0.018   1.503   0.010  0.00  0.00    +0.069 C 
ATOM      2  C   UNL     1       0.002  -0.004   0.002  0.00  0.00    +0.079 C 
ATOM      3  N   UNL     1       0.022  -0.662   1.127  0.00  0.00    -0.185 NA
ENDROOT
BRANCH   2   4
ATOM      4  C   UNL     1       0.000  -0.707  -1.230  0.00  0.00    +0.079 C 
ATOM      5  N   UNL     1      -0.020  -0.049  -2.355  0.00  0.00    -0.185 NA
ATOM      6  C   UNL     1       0.020  -2.213  -1.238  0.00  0.00    +0.069 C 
BRANCH   5   7
ATOM      7  N   UNL     1      -0.022  -0.743  -3.572  0.00  0.00    -0.235 N 
ATOM      8  H   UNL     1      -0.009  -1.713  -3.577  0.00  0.00    +0.174 HD
BRANCH   7   9
ATOM      9  C   UNL     1      -0.043  -0.041  -4.773  0.00  0.00    +0.074 A 
ATOM     10  C   UNL     1      -0.051  -0.735  -6.004  0.00  0.00    +0.093 A 
ATOM     11  N   UNL     1      -0.039  -2.070  -6.042  0.00  0.00    -0.253 NA
ATOM     12  C   UNL     1      -0.047  -2.720  -7.181  0.00  0.00    +0.111 A 
ATOM     13  C   UNL     1      -0.068  -2.054  -8.404  0.00  0.00    +0.020 A 
ATOM     14  C   UNL     1      -0.080  -0.688  -8.436  0.00  0.00    +0.011 A 
ATOM     15  C   UNL     1      -0.072   0.005  -7.211  0.00  0.00    +0.002 A 
ATOM     16  C   UNL     1      -0.085   1.409  -7.167  0.00  0.00    +0.010 A 
ATOM     17  C   UNL     1      -0.077   2.052  -5.966  0.00  0.00    +0.003 A 
ATOM     18  C   UNL     1      -0.061   1.338  -4.772  0.00  0.00    +0.027 A 
ENDBRANCH   7   9
ENDBRANCH   5   7
ENDBRANCH   2   4
BRANCH   3  19
ATOM     19  N   UNL     1       0.024   0.032   2.344  0.00  0.00    -0.235 N 
ATOM     20  H   UNL     1       0.011   1.002   2.349  0.00  0.00    +0.174 HD
BRANCH  19  21
ATOM     21  C   UNL     1       0.045  -0.670   3.545  0.00  0.00    +0.074 A 
ATOM     22  C   UNL     1       0.041   0.025   4.776  0.00  0.00    +0.093 A 
ATOM     23  N   UNL     1       0.017   1.359   4.814  0.00  0.00    -0.253 NA
ATOM     24  C   UNL     1       0.013   2.009   5.953  0.00  0.00    +0.111 A 
ATOM     25  C   UNL     1       0.034   1.343   7.176  0.00  0.00    +0.020 A 
ATOM     26  C   UNL     1       0.059  -0.022   7.208  0.00  0.00    +0.011 A 
ATOM     27  C   UNL     1       0.063  -0.716   5.983  0.00  0.00    +0.002 A 
ATOM     28  C   UNL     1       0.087  -2.119   5.939  0.00  0.00    +0.010 A 
ATOM     29  C   UNL     1       0.089  -2.762   4.738  0.00  0.00    +0.003 A 
ATOM     30  C   UNL     1       0.064  -2.049   3.544  0.00  0.00    +0.027 A 
ENDBRANCH  19  21
ENDBRANCH   3  19
TORSDOF 5
