REMARK  Name = ZINC42135207
REMARK  3 active torsions:
REMARK  status: ('A' for Active; 'I' for Inactive)
REMARK    1  A    between atoms: C_1  and  N_2
REMARK    2  A    between atoms: C_5  and  N_8
REMARK    3  A    between atoms: N_8  and  C_9
REMARK                            x       y       z     vdW  Elec       q    Type
REMARK                         _______ _______ _______ _____ _____    ______ ____
ROOT
ATOM      1  C   UNL     1       1.803  -4.681   1.029  0.00  0.00    +0.049 C 
ATOM      2  C   UNL     1       1.586  -6.175   1.099  0.00  0.00    -0.030 A 
ATOM      3  C   UNL     1       0.470  -6.949   1.321  0.00  0.00    +0.022 A 
ATOM      4  C   UNL     1       0.576  -8.329   1.329  0.00  0.00    +0.053 A 
ATOM      5  C   UNL     1       1.808  -8.926   1.113  0.00  0.00    +0.139 A 
ATOM      6  C   UNL     1       2.929  -8.150   0.890  0.00  0.00    +0.063 A 
ATOM      7  C   UNL     1       2.827  -6.760   0.881  0.00  0.00    +0.038 A 
ATOM      8  N   UNL     1       3.797  -5.776   0.683  0.00  0.00    -0.286 N 
ATOM      9  C   UNL     1       3.284  -4.532   0.754  0.00  0.00    +0.208 C 
ATOM     10  O   UNL     1       3.892  -3.491   0.623  0.00  0.00    -0.277 OA
ATOM     11  F   UNL     1       1.914 -10.273   1.121  0.00  0.00    -0.204 F 
ATOM     12 BR   UNL     1      -0.954  -9.397   1.634  0.00  0.00    -0.047 Br
ATOM     13  H   UNL     1       4.733  -5.965   0.513  0.00  0.00    +0.155 HD
ENDROOT
BRANCH   1  14
ATOM     14  N   UNL     1       1.016  -4.097  -0.065  0.00  0.00    +0.391 N 
ATOM     15  H   UNL     1       0.041  -4.323   0.065  0.00  0.00    -0.084 HD
ATOM     16  H   UNL     1       1.333  -4.473  -0.946  0.00  0.00    -0.084 HD
BRANCH  14  21
ATOM     17  C   UNL     1      -0.018   1.465   0.010  0.00  0.00    +0.104 C 
ATOM     18  N   UNL     1       0.002  -0.004   0.002  0.00  0.00    -0.305 NA
ATOM     19  C   UNL     1       0.594  -0.515  -1.241  0.00  0.00    +0.082 C 
ATOM     20  C   UNL     1       0.466  -2.040  -1.279  0.00  0.00    -0.000 C 
ATOM     21  C   UNL     1       1.184  -2.638  -0.066  0.00  0.00    -0.068 C 
ATOM     22  C   UNL     1       0.582  -2.052   1.214  0.00  0.00    -0.000 C 
ATOM     23  C   UNL     1       0.706  -0.527   1.180  0.00  0.00    +0.082 C 
ENDBRANCH  14  21
ENDBRANCH   1  14
TORSDOF 2
