REMARK  Name = ZINC38984262
REMARK  6 active torsions:
REMARK  status: ('A' for Active; 'I' for Inactive)
REMARK    1  A    between atoms: C_1  and  O_2
REMARK    2  A    between atoms: O_2  and  C_3
REMARK    3  A    between atoms: C_3  and  C_5
REMARK    4  A    between atoms: C_8  and  C_11
REMARK    5  A    between atoms: N_12  and  N_13
REMARK    6  A    between atoms: C_14  and  C_20
REMARK                            x       y       z     vdW  Elec       q    Type
REMARK                         _______ _______ _______ _____ _____    ______ ____
ROOT
ATOM      1  N   UNL     1       1.555  -8.272  -2.368  0.00  0.00    -0.182 N 
ATOM      2  C   UNL     1       2.280  -9.061  -3.375  0.00  0.00    +0.213 C 
ATOM      3  N   UNL     1       2.125 -10.458  -2.924  0.00  0.00    -0.217 NA
ATOM      4  N   UNL     1       1.383 -10.407  -1.778  0.00  0.00    -0.259 N 
ATOM      5  C   UNL     1       1.066  -9.143  -1.466  0.00  0.00    +0.168 C 
ATOM      6  S   UNL     1       0.148  -8.693  -0.093  0.00  0.00    -0.016 S 
ATOM      7  H   UNL     1       1.666 -11.017  -3.627  0.00  0.00    +0.146 HD
ATOM      8  H   UNL     1       1.123 -11.183  -1.257  0.00  0.00    +0.168 HD
ENDROOT
BRANCH   2   9
ATOM      9  C   UNL     1       3.758  -8.666  -3.403  0.00  0.00    +0.194 C 
ATOM     10  C   UNL     1       4.498  -9.431  -4.481  0.00  0.00    -0.018 C 
ATOM     11  C   UNL     1       4.947  -8.494  -5.314  0.00  0.00    +0.065 C 
ATOM     12  C   UNL     1       5.714  -9.143  -6.453  0.00  0.00    +0.057 C 
ATOM     13  C   UNL     1       6.032 -10.572  -5.961  0.00  0.00    +0.011 C 
ATOM     14  C   UNL     1       4.898 -10.810  -4.937  0.00  0.00    +0.035 C 
ATOM     15  N   UNL     1       4.571  -7.263  -4.873  0.00  0.00    -0.158 NA
ATOM     16  N   UNL     1       3.915  -7.264  -3.827  0.00  0.00    -0.176 NA
ENDBRANCH   2   9
BRANCH   1  18
ATOM     17  C   UNL     1       0.643  -6.320  -1.457  0.00  0.00    +0.138 C 
ATOM     18  N   UNL     1       1.406  -6.879  -2.347  0.00  0.00    -0.184 NA
BRANCH  17  22
ATOM     19  C   UNL     1       0.446  -2.096  -1.185  0.00  0.00    +0.059 A 
ATOM     20  C   UNL     1      -0.312  -2.889  -0.317  0.00  0.00    +0.015 A 
ATOM     21  C   UNL     1      -0.248  -4.250  -0.405  0.00  0.00    +0.010 A 
ATOM     22  C   UNL     1       0.574  -4.852  -1.363  0.00  0.00    -0.005 A 
ATOM     23  C   UNL     1       1.332  -4.059  -2.231  0.00  0.00    +0.010 A 
ATOM     24  C   UNL     1       1.264  -2.697  -2.147  0.00  0.00    +0.015 A 
BRANCH  19  25
ATOM     25  C   UNL     1       0.378  -0.626  -1.090  0.00  0.00    +0.339 C 
ATOM     26  O   UNL     1       1.032   0.063  -1.848  0.00  0.00    -0.245 OA
BRANCH  25  28
ATOM     27  C   UNL     1      -0.428   1.382  -0.129  0.00  0.00    +0.280 C 
ATOM     28  O   UNL     1      -0.411  -0.046  -0.164  0.00  0.00    -0.464 OA
ENDBRANCH  25  28
ENDBRANCH  19  25
ENDBRANCH  17  22
ENDBRANCH   1  18
TORSDOF 5
