REMARK  Name = ZINC52823646
REMARK  9 active torsions:
REMARK  status: ('A' for Active; 'I' for Inactive)
REMARK    1  A    between atoms: C_1  and  C_2
REMARK    2  A    between atoms: C_2  and  C_3
REMARK    3  A    between atoms: C_2  and  C_4
REMARK    4  A    between atoms: C_4  and  C_5
REMARK    5  A    between atoms: C_4  and  C_6
REMARK    6  A    between atoms: C_4  and  N_8
REMARK    7  A    between atoms: C_9  and  C_11
REMARK    8  A    between atoms: C_11  and  N_12
REMARK    9  A    between atoms: C_15  and  C_18
REMARK                            x       y       z     vdW  Elec       q    Type
REMARK                         _______ _______ _______ _____ _____    ______ ____
ROOT
ATOM      1  N   UNL     1      -5.456  -0.620  -2.712  0.00  0.00    +0.388 N 
ATOM      2  C   UNL     1      -6.098  -0.328  -4.003  0.00  0.00    -0.073 C 
ATOM      3  C   UNL     1      -7.427  -1.086  -4.070  0.00  0.00    +0.017 C 
ATOM      4  C   UNL     1      -8.216  -0.830  -2.816  0.00  0.00    -0.046 C 
ATOM      5  C   UNL     1      -7.668  -0.328  -1.728  0.00  0.00    -0.041 C 
ATOM      6  C   UNL     1      -6.214   0.038  -1.642  0.00  0.00    -0.050 C 
ATOM      7  H   UNL     1      -5.447  -1.617  -2.555  0.00  0.00    -0.081 HD
ENDROOT
BRANCH   4   8
ATOM      8  C   UNL     1      -9.657  -1.152  -2.803  0.00  0.00    +0.003 A 
ATOM      9  C   UNL     1     -10.650  -0.449  -3.405  0.00  0.00    +0.091 A 
ATOM     10  N   UNL     1     -11.851  -1.056  -3.171  0.00  0.00    -0.360 N 
ATOM     11  H   UNL     1     -12.706  -0.739  -3.500  0.00  0.00    +0.165 HD
ATOM     12  C   UNL     1     -11.671  -2.186  -2.402  0.00  0.00    +0.050 A 
ATOM     13  C   UNL     1     -10.296  -2.302  -2.140  0.00  0.00    +0.007 A 
ATOM     14  C   UNL     1      -9.817  -3.367  -1.379  0.00  0.00    +0.013 A 
ATOM     15  C   UNL     1     -10.697  -4.305  -0.889  0.00  0.00    +0.039 A 
ATOM     16  C   UNL     1     -12.058  -4.194  -1.149  0.00  0.00    +0.125 A 
ATOM     17  C   UNL     1     -12.546  -3.140  -1.894  0.00  0.00    +0.064 A 
ATOM     18  F   UNL     1     -12.911  -5.121  -0.661  0.00  0.00    -0.205 F 
ENDBRANCH   4   8
BRANCH   1  19
ATOM     19  C   UNL     1      -4.078  -0.112  -2.723  0.00  0.00    +0.019 C 
BRANCH  19  21
ATOM     20  N   UNL     1      -2.105  -0.148  -1.230  0.00  0.00    -0.299 N 
ATOM     21  C   UNL     1      -3.387  -0.508  -1.443  0.00  0.00    +0.198 C 
ATOM     22  O   UNL     1      -3.983  -1.151  -0.606  0.00  0.00    -0.278 OA
ATOM     23  H   UNL     1      -1.628   0.366  -1.901  0.00  0.00    +0.150 HD
BRANCH  20  24
ATOM     24  C   UNL     1      -1.433  -0.534   0.013  0.00  0.00    +0.121 C 
ATOM     25  C   UNL     1      -2.187   0.060   1.205  0.00  0.00    +0.048 C 
BRANCH  24  27
ATOM     26  C   UNL     1      -0.019   1.526   0.010  0.00  0.00    +0.010 C 
ATOM     27  C   UNL     1       0.002  -0.004   0.002  0.00  0.00    +0.020 C 
ATOM     28  C   UNL     1       0.742  -0.511   1.242  0.00  0.00    +0.010 C 
ENDBRANCH  24  27
BRANCH  24  29
ATOM     29  C   UNL     1      -1.414  -2.001   0.126  0.00  0.00    +0.088 C 
ATOM     30  N   UNL     1      -1.399  -3.134   0.213  0.00  0.00    -0.194 NA
ENDBRANCH  24  29
ENDBRANCH  20  24
ENDBRANCH  19  21
ENDBRANCH   1  19
TORSDOF 6
