REMARK  Name = ZINC40062486
REMARK  6 active torsions:
REMARK  status: ('A' for Active; 'I' for Inactive)
REMARK    1  A    between atoms: C_1  and  C_2
REMARK    2  A    between atoms: C_7  and  C_8
REMARK    3  A    between atoms: C_11  and  C_12
REMARK    4  A    between atoms: C_14  and  O_20
REMARK    5  A    between atoms: C_15  and  O_19
REMARK    6  A    between atoms: O_20  and  C_21
REMARK                            x       y       z     vdW  Elec       q    Type
REMARK                         _______ _______ _______ _____ _____    ______ ____
ROOT
ATOM      1  C   UNL     1       0.113   1.500  -0.000  0.00  0.00    +0.044 C 
ATOM      2  C   UNL     1       0.107  -0.007  -0.006  0.00  0.00    -0.044 A 
ATOM      3  C   UNL     1       0.105  -0.688  -1.214  0.00  0.00    +0.004 A 
ATOM      4  C   UNL     1       0.099  -2.067  -1.230  0.00  0.00    +0.016 A 
ATOM      5  C   UNL     1       0.097  -2.771  -0.027  0.00  0.00    +0.068 A 
ATOM      6  C   UNL     1       0.100  -2.086   1.197  0.00  0.00    +0.143 A 
ATOM      7  C   UNL     1       0.111  -0.694   1.189  0.00  0.00    -0.005 A 
ATOM      8  C   UNL     1       0.120   0.065   2.491  0.00  0.00    +0.048 C 
ATOM      9  O   UNL     1       0.096  -2.973   2.215  0.00  0.00    -0.451 OA
ATOM     10  C   UNL     1       0.090  -4.252   1.770  0.00  0.00    +0.176 C 
ATOM     11  C   UNL     1       0.085  -5.370   2.542  0.00  0.00    +0.058 C 
ATOM     12  C   UNL     1       0.091  -4.210   0.302  0.00  0.00    +0.231 C 
ATOM     13  O   UNL     1       0.086  -5.152  -0.471  0.00  0.00    -0.283 OA
ENDROOT
BRANCH  11  14
ATOM     14  C   UNL     1       0.201  -5.256   4.000  0.00  0.00    -0.017 A 
ATOM     15  C   UNL     1       0.331  -6.408   4.787  0.00  0.00    +0.057 A 
ATOM     16  C   UNL     1       0.439  -6.294   6.159  0.00  0.00    +0.163 A 
ATOM     17  C   UNL     1       0.420  -5.035   6.759  0.00  0.00    +0.173 A 
ATOM     18  C   UNL     1       0.291  -3.892   5.980  0.00  0.00    +0.063 A 
ATOM     19  C   UNL     1       0.188  -3.995   4.609  0.00  0.00    +0.027 A 
ATOM     20 BR   UNL     1       0.265  -2.189   6.802  0.00  0.00    -0.046 Br
BRANCH  17  21
ATOM     21  O   UNL     1       0.526  -4.926   8.108  0.00  0.00    -0.503 OA
ATOM     22  H   UNL     1       1.436  -4.846   8.426  0.00  0.00    +0.292 HD
ENDBRANCH  17  21
BRANCH  16  23
ATOM     23  O   UNL     1       0.566  -7.410   6.925  0.00  0.00    -0.491 OA
ATOM     24  C   UNL     1       0.578  -8.667   6.245  0.00  0.00    +0.277 C 
ENDBRANCH  16  23
ENDBRANCH  11  14
TORSDOF 3
