REMARK  Name = ZINC59365025
REMARK  3 active torsions:
REMARK  status: ('A' for Active; 'I' for Inactive)
REMARK    1  A    between atoms: C_4  and  C_7
REMARK    2  A    between atoms: C_25  and  C_26
REMARK    3  A    between atoms: C_29  and  O_33
REMARK                            x       y       z     vdW  Elec       q    Type
REMARK                         _______ _______ _______ _____ _____    ______ ____
ROOT
ATOM      1  C   UNL     1       2.873  -0.891   0.111  0.00  0.00    +0.151 C 
ATOM      2  C   UNL     1       3.245  -1.247   1.530  0.00  0.00    -0.016 C 
ATOM      3  C   UNL     1       3.738  -2.472   1.778  0.00  0.00    +0.076 C 
ATOM      4  C   UNL     1       4.082  -2.848   3.171  0.00  0.00    +0.004 A 
ATOM      5  C   UNL     1       4.885  -3.954   3.431  0.00  0.00    +0.010 A 
ATOM      6  C   UNL     1       5.206  -4.274   4.736  0.00  0.00    +0.001 A 
ATOM      7  C   UNL     1       4.733  -3.498   5.778  0.00  0.00    +0.000 A 
ATOM      8  C   UNL     1       3.929  -2.401   5.524  0.00  0.00    +0.004 A 
ATOM      9  C   UNL     1       3.594  -2.078   4.225  0.00  0.00    -0.038 A 
ATOM     10  C   UNL     1       2.683  -0.913   3.938  0.00  0.00    +0.040 C 
ATOM     11  C   UNL     1       3.091  -0.236   2.631  0.00  0.00    +0.040 C 
ATOM     12  N   UNL     1       3.919  -3.359   0.763  0.00  0.00    -0.223 NA
ATOM     13  C   UNL     1       3.634  -3.119  -0.481  0.00  0.00    +0.178 A 
ATOM     14  N   UNL     1       3.105  -1.927  -0.935  0.00  0.00    -0.275 N 
ATOM     15  C   UNL     1       2.850  -1.797  -2.243  0.00  0.00    +0.268 A 
ATOM     16  O   UNL     1       2.383  -0.767  -2.692  0.00  0.00    -0.266 OA
ATOM     17  C   UNL     1       3.152  -2.936  -3.122  0.00  0.00    +0.081 A 
ATOM     18  C   UNL     1       2.990  -3.056  -4.464  0.00  0.00    +0.028 C 
ATOM     19  S   UNL     1       3.790  -4.119  -1.948  0.00  0.00    -0.046 S 
ENDROOT
BRANCH  18  20
ATOM     20  C   UNL     1       2.606  -1.887  -5.264  0.00  0.00    -0.021 A 
ATOM     21  C   UNL     1       1.677  -2.021  -6.303  0.00  0.00    +0.031 A 
ATOM     22  C   UNL     1       1.319  -0.920  -7.051  0.00  0.00    +0.084 A 
ATOM     23  C   UNL     1       1.880   0.322  -6.777  0.00  0.00    +0.153 A 
ATOM     24  C   UNL     1       2.804   0.461  -5.747  0.00  0.00    +0.084 A 
ATOM     25  C   UNL     1       3.163  -0.632  -4.988  0.00  0.00    +0.031 A 
ATOM     26 CL   UNL     1       3.501   2.015  -5.411  0.00  0.00    -0.080 Cl
ATOM     27 CL   UNL     1       0.167  -1.085  -8.339  0.00  0.00    -0.080 Cl
BRANCH  23  28
ATOM     28  O   UNL     1       1.525   1.404  -7.517  0.00  0.00    -0.504 OA
ATOM     29  H   UNL     1       0.766   1.889  -7.167  0.00  0.00    +0.292 HD
ENDBRANCH  23  28
ENDBRANCH  18  20
BRANCH   1  33
ATOM     30  C   UNL     1      -1.276   0.123   0.054  0.00  0.00    +0.000 A 
ATOM     31  C   UNL     1      -0.323   1.119   0.150  0.00  0.00    +0.000 A 
ATOM     32  C   UNL     1       1.020   0.791   0.169  0.00  0.00    +0.006 A 
ATOM     33  C   UNL     1       1.409  -0.533   0.091  0.00  0.00    -0.020 A 
ATOM     34  C   UNL     1       0.456  -1.530  -0.004  0.00  0.00    +0.006 A 
ATOM     35  C   UNL     1      -0.887  -1.201  -0.024  0.00  0.00    +0.000 A 
ENDBRANCH   1  33
TORSDOF 3
