REMARK  Name = ZINC59324141
REMARK  10 active torsions:
REMARK  status: ('A' for Active; 'I' for Inactive)
REMARK    1  A    between atoms: C_1  and  C_2
REMARK    2  A    between atoms: C_2  and  N_3
REMARK    3  A    between atoms: N_3  and  C_4
REMARK    4  A    between atoms: N_3  and  S_6
REMARK    5  A    between atoms: C_4  and  C_5
REMARK    6  A    between atoms: S_6  and  C_9
REMARK    7  A    between atoms: C_13  and  N_15
REMARK    8  A    between atoms: N_18  and  C_19
REMARK    9  A    between atoms: C_19  and  C_21
REMARK   10  A    between atoms: C_19  and  C_22
REMARK                            x       y       z     vdW  Elec       q    Type
REMARK                         _______ _______ _______ _____ _____    ______ ____
ROOT
ATOM      1  N   UNL     1       1.456   2.321  -6.227  0.00  0.00    -0.268 N 
ATOM      2  C   UNL     1       2.550   1.544  -6.352  0.00  0.00    +0.304 C 
ATOM      3  O   UNL     1       2.659   0.535  -5.682  0.00  0.00    -0.252 OA
ATOM      4  N   UNL     1       3.524   1.885  -7.219  0.00  0.00    -0.293 N 
ATOM      5  H   UNL     1       1.331   3.080  -6.818  0.00  0.00    +0.156 HD
ATOM      6  H   UNL     1       3.437   2.690  -7.754  0.00  0.00    +0.151 HD
ENDROOT
BRANCH   1  11
ATOM      7  C   UNL     1      -0.080   1.041  -3.140  0.00  0.00    +0.107 A 
ATOM      8  C   UNL     1      -1.387   1.464  -3.303  0.00  0.00    +0.030 A 
ATOM      9  C   UNL     1      -1.752   2.171  -4.433  0.00  0.00    +0.024 A 
ATOM     10  C   UNL     1      -0.812   2.457  -5.405  0.00  0.00    +0.062 A 
ATOM     11  C   UNL     1       0.501   2.033  -5.245  0.00  0.00    +0.055 A 
ATOM     12  C   UNL     1       0.866   1.329  -4.105  0.00  0.00    +0.053 A 
ATOM     13 CL   UNL     1      -1.272   3.344  -6.825  0.00  0.00    -0.082 Cl
BRANCH   7  14
ATOM     14  S   UNL     1       0.381   0.140  -1.698  0.00  0.00    +0.061 S 
ATOM     15  O   UNL     1       1.540  -0.607  -2.039  0.00  0.00    -0.153 OA
ATOM     16  O   UNL     1      -0.803  -0.472  -1.206  0.00  0.00    -0.153 OA
BRANCH  14  17
ATOM     17  N   UNL     1       0.849   1.247  -0.558  0.00  0.00    -0.177 NA
BRANCH  17  19
ATOM     18  C   UNL     1      -0.658   3.135  -0.179  0.00  0.00    +0.022 C 
ATOM     19  C   UNL     1      -0.137   1.805   0.370  0.00  0.00    +0.106 C 
ENDBRANCH  17  19
BRANCH  17  20
ATOM     20  C   UNL     1       2.250   1.668  -0.478  0.00  0.00    +0.106 C 
ATOM     21  C   UNL     1       2.977   0.824   0.571  0.00  0.00    +0.022 C 
ENDBRANCH  17  20
ENDBRANCH  14  17
ENDBRANCH   7  14
ENDBRANCH   1  11
BRANCH   4  22
ATOM     22  C   UNL     1       4.713   1.040  -7.355  0.00  0.00    +0.102 C 
ATOM     23  C   UNL     1       5.736   1.423  -6.284  0.00  0.00    +0.033 C 
BRANCH  22  24
ATOM     24  C   UNL     1       5.317   1.239  -8.721  0.00  0.00    -0.027 A 
ATOM     25  C   UNL     1       5.378   2.505  -9.274  0.00  0.00    +0.007 A 
ATOM     26  C   UNL     1       5.930   2.695 -10.524  0.00  0.00    +0.024 A 
ATOM     27  C   UNL     1       6.432   1.609 -11.239  0.00  0.00    +0.037 A 
ATOM     28  C   UNL     1       6.366   0.342 -10.672  0.00  0.00    -0.017 A 
ATOM     29  C   UNL     1       5.818   0.157  -9.423  0.00  0.00    +0.011 A 
ATOM     30  C   UNL     1       6.981  -0.605 -11.676  0.00  0.00    +0.133 C 
ATOM     31  C   UNL     1       7.379   0.289 -12.831  0.00  0.00    +0.222 C 
ATOM     32  O   UNL     1       7.914  -0.060 -13.862  0.00  0.00    -0.275 OA
ATOM     33  N   UNL     1       7.029   1.543 -12.498  0.00  0.00    -0.285 N 
ATOM     34  H   UNL     1       7.174   2.314 -13.069  0.00  0.00    +0.155 HD
ENDBRANCH  22  24
ENDBRANCH   4  22
TORSDOF 7
