REMARK  Name = ZINC39695125
REMARK  6 active torsions:
REMARK  status: ('A' for Active; 'I' for Inactive)
REMARK    1  A    between atoms: C_1  and  C_2
REMARK    2  A    between atoms: C_3  and  C_9
REMARK    3  A    between atoms: C_9  and  N_10
REMARK    4  A    between atoms: C_11  and  C_13
REMARK    5  A    between atoms: C_24  and  C_26
REMARK    6  A    between atoms: C_29  and  C_31
REMARK                            x       y       z     vdW  Elec       q    Type
REMARK                         _______ _______ _______ _____ _____    ______ ____
ROOT
ATOM      1  C   UNL     1       2.959   1.739  -4.246  0.00  0.00    +0.100 C 
ATOM      2  C   UNL     1       3.941   0.548  -4.324  0.00  0.00    +0.121 C 
ATOM      3  N   UNL     1       4.002   0.207  -5.764  0.00  0.00    -0.294 N 
ATOM      4  C   UNL     1       3.994   1.519  -6.455  0.00  0.00    +0.115 C 
ATOM      5  C   UNL     1       2.999   2.376  -5.646  0.00  0.00    -0.004 C 
ATOM      6  C   UNL     1       1.617   2.326  -6.288  0.00  0.00    -0.010 C 
ATOM      7  C   UNL     1       1.669   3.015  -7.655  0.00  0.00    -0.082 C 
ATOM      8  N   UNL     1       2.103   4.407  -7.486  0.00  0.00    +0.379 N 
ATOM      9  C   UNL     1       3.470   4.445  -6.954  0.00  0.00    -0.082 C 
ATOM     10  C   UNL     1       3.494   3.816  -5.558  0.00  0.00    -0.010 C 
ATOM     11  C   UNL     1       4.055  -1.019  -6.321  0.00  0.00    +0.282 C 
ATOM     12  O   UNL     1       4.102  -1.136  -7.532  0.00  0.00    -0.267 OA
ATOM     13  H   UNL     1       2.078   4.876  -8.379  0.00  0.00    -0.086 HD
ATOM     14  H   UNL     1       1.481   4.877  -6.846  0.00  0.00    -0.086 HD
ENDROOT
BRANCH  11  15
ATOM     15  C   UNL     1       4.054  -2.211  -5.470  0.00  0.00    +0.190 A 
ATOM     16  C   UNL     1       4.109  -3.517  -5.906  0.00  0.00    +0.055 A 
ATOM     17  C   UNL     1       4.086  -4.325  -4.765  0.00  0.00    +0.051 A 
ATOM     18  C   UNL     1       4.018  -3.492  -3.684  0.00  0.00    +0.139 A 
ATOM     19  O   UNL     1       4.005  -2.221  -4.121  0.00  0.00    -0.450 OA
BRANCH  18  20
ATOM     20  C   UNL     1       3.973  -3.917  -2.271  0.00  0.00    +0.052 A 
ATOM     21  C   UNL     1       3.062  -4.893  -1.861  0.00  0.00    +0.014 A 
ATOM     22  C   UNL     1       3.025  -5.286  -0.540  0.00  0.00    +0.001 A 
ATOM     23  C   UNL     1       3.888  -4.716   0.381  0.00  0.00    +0.003 A 
ATOM     24  C   UNL     1       4.793  -3.749  -0.016  0.00  0.00    +0.039 A 
ATOM     25  C   UNL     1       4.846  -3.349  -1.338  0.00  0.00    +0.134 A 
ATOM     26  F   UNL     1       5.735  -2.409  -1.727  0.00  0.00    -0.205 F 
ENDBRANCH  18  20
ENDBRANCH  11  15
BRANCH   1  28
ATOM     27  N   UNL     1       0.709   2.053  -3.269  0.00  0.00    -0.311 N 
ATOM     28  C   UNL     1       1.568   1.253  -3.930  0.00  0.00    +0.218 C 
ATOM     29  O   UNL     1       1.222   0.142  -4.271  0.00  0.00    -0.275 OA
ATOM     30  H   UNL     1       0.986   2.942  -2.996  0.00  0.00    +0.149 HD
BRANCH  27  31
ATOM     31  C   UNL     1      -0.643   1.581  -2.962  0.00  0.00    +0.139 C 
BRANCH  31  34
ATOM     32  C   UNL     1      -1.820   3.780  -4.419  0.00  0.00    +0.045 C 
ATOM     33  C   UNL     1      -1.959   3.710  -2.921  0.00  0.00    -0.027 A 
ATOM     34  C   UNL     1      -1.396   2.658  -2.223  0.00  0.00    -0.026 A 
ATOM     35  C   UNL     1      -1.523   2.592  -0.848  0.00  0.00    +0.005 A 
ATOM     36  C   UNL     1      -2.214   3.579  -0.170  0.00  0.00    +0.002 A 
ATOM     37  C   UNL     1      -2.777   4.632  -0.866  0.00  0.00    +0.020 A 
ATOM     38  C   UNL     1      -2.645   4.701  -2.242  0.00  0.00    +0.044 A 
ATOM     39 CL   UNL     1      -3.347   6.026  -3.116  0.00  0.00    -0.083 Cl
ENDBRANCH  31  34
ENDBRANCH  27  31
ENDBRANCH   1  28
TORSDOF 5
