REMARK  Name = ZINC20678359
REMARK  5 active torsions:
REMARK  status: ('A' for Active; 'I' for Inactive)
REMARK    1  A    between atoms: C_1  and  C_2
REMARK    2  A    between atoms: C_4  and  N_26
REMARK    3  A    between atoms: C_9  and  C_18
REMARK    4  A    between atoms: C_21  and  O_24
REMARK    5  A    between atoms: O_24  and  C_25
REMARK                            x       y       z     vdW  Elec       q    Type
REMARK                         _______ _______ _______ _____ _____    ______ ____
ROOT
ATOM      1  C   UNL     1       5.013   3.002  -2.828  0.00  0.00    +0.046 C 
ATOM      2  C   UNL     1       4.903   3.502  -1.411  0.00  0.00    -0.027 A 
ATOM      3  C   UNL     1       5.617   4.614  -1.024  0.00  0.00    +0.038 A 
ATOM      4  C   UNL     1       5.526   5.083   0.274  0.00  0.00    +0.127 A 
ATOM      5  C   UNL     1       4.708   4.435   1.179  0.00  0.00    +0.038 A 
ATOM      6  C   UNL     1       3.985   3.324   0.799  0.00  0.00    -0.017 A 
ATOM      7  C   UNL     1       4.079   2.831  -0.506  0.00  0.00    +0.034 A 
ATOM      8  N   UNL     1       3.416   1.692  -0.959  0.00  0.00    -0.336 N 
ATOM      9  C   UNL     1       2.490   1.045  -0.016  0.00  0.00    +0.105 C 
ATOM     10  C   UNL     1       3.133   1.107   1.353  0.00  0.00    +0.029 C 
ATOM     11  C   UNL     1       3.090   2.618   1.741  0.00  0.00    +0.049 C 
ATOM     12  C   UNL     1       3.327   2.595   3.206  0.00  0.00    -0.023 C 
ATOM     13  C   UNL     1       2.879   1.441   3.688  0.00  0.00    -0.030 C 
ATOM     14  C   UNL     1       2.334   0.576   2.549  0.00  0.00    +0.033 C 
ATOM     15  H   UNL     1       3.558   1.273  -1.966  0.00  0.00    +0.147 HD
ENDROOT
BRANCH   9  16
ATOM     16  C   UNL     1       1.176   1.783   0.000  0.00  0.00    -0.027 A 
ATOM     17  C   UNL     1       0.024   1.132   0.401  0.00  0.00    +0.009 A 
ATOM     18  C   UNL     1      -1.183   1.804   0.412  0.00  0.00    +0.046 A 
ATOM     19  C   UNL     1      -1.237   3.137   0.031  0.00  0.00    +0.120 A 
ATOM     20  C   UNL     1      -0.079   3.788  -0.370  0.00  0.00    +0.046 A 
ATOM     21  C   UNL     1       1.124   3.110  -0.385  0.00  0.00    +0.009 A 
BRANCH  19  22
ATOM     22  O   UNL     1      -2.422   3.802   0.045  0.00  0.00    -0.495 OA
ATOM     23  C   UNL     1      -3.572   3.068   0.470  0.00  0.00    +0.277 C 
ENDBRANCH  19  22
ENDBRANCH   9  16
BRANCH   4  24
ATOM     24  N   UNL     1       6.300   6.274   0.690  0.00  0.00    +0.056 N 
ATOM     25  O   UNL     1       7.019   6.844  -0.111  0.00  0.00    -0.126 OA
ATOM     26  O   UNL     1       6.218   6.685   1.834  0.00  0.00    -0.126 OA
ENDBRANCH   4  24
TORSDOF 3
