REMARK  Name = ZINC08780703
REMARK  5 active torsions:
REMARK  status: ('A' for Active; 'I' for Inactive)
REMARK    1  A    between atoms: C_6  and  C_7
REMARK    2  A    between atoms: C_7  and  N_47
REMARK    3  A    between atoms: C_10  and  C_13
REMARK    4  A    between atoms: N_15  and  N_16
REMARK    5  A    between atoms: C_17  and  C_18
REMARK                            x       y       z     vdW  Elec       q    Type
REMARK                         _______ _______ _______ _____ _____    ______ ____
ROOT
ATOM      1  C   UNL     1      -9.820   4.364   0.180  0.00  0.00    -0.078 C 
ATOM      2  C   UNL     1      -8.493   3.607   0.102  0.00  0.00    -0.006 C 
ATOM      3  C   UNL     1      -7.337   4.612   0.097  0.00  0.00    +0.073 C 
ATOM      4  C   UNL     1      -7.420   5.479   1.356  0.00  0.00    -0.006 C 
ATOM      5  C   UNL     1      -8.778   6.182   1.398  0.00  0.00    -0.078 C 
ATOM      6  N   UNL     1      -9.846   5.160   1.426  0.00  0.00    +0.382 N 
ATOM      7  H   UNL     1      -9.687   4.534   2.224  0.00  0.00    -0.081 HD
ENDROOT
BRANCH   3   8
ATOM      8  C   UNL     1      -6.025   3.871   0.080  0.00  0.00    +0.235 C 
ATOM      9  O   UNL     1      -6.014   2.658   0.073  0.00  0.00    -0.274 OA
ATOM     10  N   UNL     1      -4.865   4.556   0.073  0.00  0.00    -0.207 N 
ATOM     11  H   UNL     1      -4.874   5.526   0.078  0.00  0.00    +0.177 HD
BRANCH  10  12
ATOM     12  N   UNL     1      -3.645   3.867   0.057  0.00  0.00    -0.188 NA
ATOM     13  C   UNL     1      -2.527   4.526   0.050  0.00  0.00    +0.138 C 
BRANCH  13  14
ATOM     14  C   UNL     1      -1.243   3.801   0.034  0.00  0.00    -0.004 A 
ATOM     15  C   UNL     1      -0.038   4.508   0.026  0.00  0.00    +0.011 A 
ATOM     16  C   UNL     1       1.159   3.825   0.011  0.00  0.00    +0.022 A 
ATOM     17  C   UNL     1       1.170   2.440   0.004  0.00  0.00    +0.059 A 
ATOM     18  C   UNL     1      -0.021   1.732   0.012  0.00  0.00    +0.060 A 
ATOM     19  C   UNL     1      -1.227   2.404   0.021  0.00  0.00    +0.031 A 
ATOM     20 CL   UNL     1       0.002  -0.004   0.002  0.00  0.00    -0.082 Cl
ATOM     21 CL   UNL     1       2.682   1.587  -0.016  0.00  0.00    -0.082 Cl
ENDBRANCH  13  14
ENDBRANCH  10  12
ENDBRANCH   3   8
BRANCH   6  22
ATOM     22  C   UNL     1     -11.164   5.811   1.582  0.00  0.00    -0.043 C 
BRANCH  22  28
ATOM     23  C   UNL     1     -11.714   5.691   4.020  0.00  0.00    +0.003 A 
ATOM     24  C   UNL     1     -11.779   6.257   5.279  0.00  0.00    +0.015 A 
ATOM     25  C   UNL     1     -11.380   7.568   5.470  0.00  0.00    +0.018 A 
ATOM     26  C   UNL     1     -10.910   8.309   4.400  0.00  0.00    +0.015 A 
ATOM     27  C   UNL     1     -10.840   7.740   3.143  0.00  0.00    +0.003 A 
ATOM     28  C   UNL     1     -11.239   6.430   2.953  0.00  0.00    -0.064 A 
ATOM     29 BR   UNL     1     -11.475   8.345   7.191  0.00  0.00    -0.050 Br
ENDBRANCH  22  28
ENDBRANCH   6  22
TORSDOF 5
