REMARK  Name = ZINC09283569
REMARK  8 active torsions:
REMARK  status: ('A' for Active; 'I' for Inactive)
REMARK    1  A    between atoms: C_4  and  S_26
REMARK    2  A    between atoms: C_6  and  C_7
REMARK    3  A    between atoms: C_7  and  O_9
REMARK    4  A    between atoms: O_9  and  C_10
REMARK    5  A    between atoms: C_10  and  C_11
REMARK    6  A    between atoms: N_13  and  C_14
REMARK    7  A    between atoms: C_15  and  C_24
REMARK    8  A    between atoms: S_26  and  N_29
REMARK                            x       y       z     vdW  Elec       q    Type
REMARK                         _______ _______ _______ _____ _____    ______ ____
ROOT
ATOM      1  C   UNL     1      -1.330   1.944   0.019  0.00  0.00    +0.328 C 
ENDROOT
BRANCH   1   2
ATOM      2  C   UNL     1      -0.014   1.209   0.009  0.00  0.00    +0.255 C 
ATOM      3  O   UNL     1       0.002  -0.004   0.002  0.00  0.00    -0.272 OA
ATOM      4  N   UNL     1       1.143   1.898   0.001  0.00  0.00    -0.276 N 
ATOM      5  H   UNL     1       1.130   2.868   0.007  0.00  0.00    +0.155 HD
BRANCH   4   6
ATOM      6  C   UNL     1       2.355   1.221  -0.014  0.00  0.00    +0.090 A 
ATOM      7  C   UNL     1       3.636   1.748  -0.029  0.00  0.00    +0.084 A 
ATOM      8  C   UNL     1       4.753   0.814  -0.035  0.00  0.00    -0.018 A 
ATOM      9  C   UNL     1       4.404  -0.491  -0.043  0.00  0.00    -0.004 A 
ATOM     10  S   UNL     1       2.632  -0.489  -0.026  0.00  0.00    -0.077 S 
ATOM     11  C   UNL     1       5.311  -1.681  -0.076  0.00  0.00    +0.043 C 
ATOM     12  C   UNL     1       6.400  -1.518   0.993  0.00  0.00    +0.005 C 
ATOM     13  C   UNL     1       7.582  -0.782   0.369  0.00  0.00    +0.001 C 
ATOM     14  C   UNL     1       7.089   0.213  -0.679  0.00  0.00    +0.005 C 
ATOM     15  C   UNL     1       6.205   1.274  -0.032  0.00  0.00    +0.037 C 
BRANCH   7  16
ATOM     16  C   UNL     1       3.854   3.163  -0.034  0.00  0.00    +0.102 C 
ATOM     17  N   UNL     1       4.027   4.285  -0.039  0.00  0.00    -0.191 NA
ENDBRANCH   7  16
ENDBRANCH   4   6
ENDBRANCH   1   2
BRANCH   1  18
ATOM     18  O   UNL     1      -2.420   0.986   0.019  0.00  0.00    -0.452 OA
BRANCH  18  19
ATOM     19  C   UNL     1      -3.672   1.484   0.028  0.00  0.00    +0.340 C 
ATOM     20  O   UNL     1      -3.848   2.686   0.035  0.00  0.00    -0.245 OA
BRANCH  19  26
ATOM     21  C   UNL     1      -4.632  -0.814   0.014  0.00  0.00    +0.016 A 
ATOM     22  C   UNL     1      -5.718  -1.663   0.020  0.00  0.00    +0.023 A 
ATOM     23  C   UNL     1      -7.004  -1.148   0.028  0.00  0.00    +0.067 A 
ATOM     24  C   UNL     1      -7.208   0.222   0.037  0.00  0.00    +0.124 A 
ATOM     25  C   UNL     1      -6.130   1.082   0.037  0.00  0.00    +0.045 A 
ATOM     26  C   UNL     1      -4.831   0.569   0.028  0.00  0.00    +0.061 A 
ATOM     27 CL   UNL     1      -8.366  -2.224   0.028  0.00  0.00    -0.082 Cl
BRANCH  24  28
ATOM     28  S   UNL     1      -8.847   0.867   0.049  0.00  0.00    +0.057 S 
ATOM     29  O   UNL     1      -9.548   0.176   1.074  0.00  0.00    -0.153 OA
ATOM     30  O   UNL     1      -8.726   2.283   0.030  0.00  0.00    -0.153 OA
BRANCH  28  31
ATOM     31  N   UNL     1      -9.555   0.433  -1.384  0.00  0.00    -0.203 NA
ATOM     32  H   UNL     1     -10.513   0.289  -1.428  0.00  0.00    +0.144 HD
ATOM     33  H   UNL     1      -9.011   0.324  -2.180  0.00  0.00    +0.144 HD
ENDBRANCH  28  31
ENDBRANCH  24  28
ENDBRANCH  19  26
ENDBRANCH  18  19
ENDBRANCH   1  18
TORSDOF 8
