REMARK  Name = ZINC67120020
REMARK  7 active torsions:
REMARK  status: ('A' for Active; 'I' for Inactive)
REMARK    1  A    between atoms: C_3  and  O_23
REMARK    2  A    between atoms: C_6  and  C_7
REMARK    3  A    between atoms: C_7  and  N_8
REMARK    4  A    between atoms: N_8  and  C_9
REMARK    5  A    between atoms: C_9  and  C_10
REMARK    6  A    between atoms: N_12  and  C_13
REMARK    7  A    between atoms: O_23  and  C_24
REMARK                            x       y       z     vdW  Elec       q    Type
REMARK                         _______ _______ _______ _____ _____    ______ ____
ROOT
ATOM      1  N   UNL     1      -1.714  -1.038  -1.373  0.00  0.00    -0.304 NA
ATOM      2  H   UNL     1      -1.794  -0.169  -1.878  0.00  0.00    +0.123 HD
ENDROOT
BRANCH   1   3
ATOM      3  C   UNL     1      -1.273  -0.806   0.009  0.00  0.00    +0.116 C 
BRANCH   3   9
ATOM      4  C   UNL     1       0.012   1.341   0.015  0.00  0.00    +0.008 A 
ATOM      5  C   UNL     1       1.202   2.045   0.007  0.00  0.00    +0.047 A 
ATOM      6  C   UNL     1       2.409   1.364  -0.017  0.00  0.00    +0.145 A 
ATOM      7  C   UNL     1       2.420  -0.024  -0.033  0.00  0.00    +0.083 A 
ATOM      8  C   UNL     1       1.228  -0.723  -0.025  0.00  0.00    +0.028 A 
ATOM      9  C   UNL     1       0.026  -0.041  -0.001  0.00  0.00    -0.032 A 
ATOM     10 CL   UNL     1       3.930  -0.881  -0.064  0.00  0.00    -0.080 Cl
BRANCH   6  11
ATOM     11  O   UNL     1       3.580   2.055  -0.026  0.00  0.00    -0.433 OA
BRANCH  11  12
ATOM     12  C   UNL     1       3.492   3.481  -0.009  0.00  0.00    +0.541 C 
ATOM     13  F   UNL     1       2.790   3.918  -1.137  0.00  0.00    -0.166 F 
ATOM     14  F   UNL     1       2.821   3.893   1.147  0.00  0.00    -0.166 F 
ENDBRANCH  11  12
ENDBRANCH   6  11
ENDBRANCH   3   9
ENDBRANCH   1   3
BRANCH   1  15
ATOM     15  C   UNL     1      -2.980  -1.783  -1.403  0.00  0.00    +0.178 C 
BRANCH  15  16
ATOM     16  C   UNL     1      -3.400  -2.002  -2.834  0.00  0.00    +0.231 C 
ATOM     17  O   UNL     1      -2.713  -1.580  -3.739  0.00  0.00    -0.274 OA
ATOM     18  N   UNL     1      -4.540  -2.668  -3.107  0.00  0.00    -0.282 N 
ATOM     19  H   UNL     1      -5.056  -3.062  -2.386  0.00  0.00    +0.155 HD
BRANCH  18  20
ATOM     20  C   UNL     1      -4.979  -2.791  -4.432  0.00  0.00    +0.072 A 
ATOM     21  C   UNL     1      -4.056  -2.919  -5.461  0.00  0.00    +0.029 A 
ATOM     22  C   UNL     1      -4.490  -3.039  -6.767  0.00  0.00    +0.043 A 
ATOM     23  C   UNL     1      -5.844  -3.034  -7.053  0.00  0.00    +0.161 A 
ATOM     24  C   UNL     1      -6.770  -2.906  -6.028  0.00  0.00    +0.195 A 
ATOM     25  C   UNL     1      -6.339  -2.791  -4.717  0.00  0.00    +0.182 A 
ATOM     26  F   UNL     1      -7.240  -2.672  -3.717  0.00  0.00    -0.200 F 
ATOM     27  F   UNL     1      -8.091  -2.900  -6.309  0.00  0.00    -0.199 F 
ATOM     28  F   UNL     1      -6.265  -3.152  -8.331  0.00  0.00    -0.202 F 
ENDBRANCH  18  20
ENDBRANCH  15  16
ENDBRANCH   1  15
TORSDOF 7
