REMARK  Name = ZINC01441212
REMARK  10 active torsions:
REMARK  status: ('A' for Active; 'I' for Inactive)
REMARK    1  A    between atoms: C_4  and  C_7
REMARK    2  A    between atoms: C_7  and  C_8
REMARK    3  A    between atoms: C_8  and  O_39
REMARK    4  A    between atoms: N_17  and  C_18
REMARK    5  A    between atoms: C_18  and  C_19
REMARK    6  A    between atoms: C_19  and  C_20
REMARK    7  A    between atoms: C_20  and  N_21
REMARK    8  A    between atoms: C_30  and  C_31
REMARK    9  A    between atoms: C_30  and  O_38
REMARK   10  A    between atoms: C_31  and  C_32
REMARK                            x       y       z     vdW  Elec       q    Type
REMARK                         _______ _______ _______ _____ _____    ______ ____
ROOT
ATOM      1  C   UNL     1       6.237   4.138   0.553  0.00  0.00    +0.038 C 
ENDROOT
BRANCH   1   2
ATOM      2  C   UNL     1       5.772   4.363  -0.887  0.00  0.00    +0.113 C 
BRANCH   2  12
ATOM      3  C   UNL     1       4.097   2.450  -1.467  0.00  0.00    +0.166 C 
ATOM      4  C   UNL     1       4.228   1.149  -2.219  0.00  0.00    +0.015 A 
ATOM      5  C   UNL     1       3.341   0.142  -2.523  0.00  0.00    +0.009 A 
ATOM      6  C   UNL     1       3.766  -0.959  -3.246  0.00  0.00    +0.000 A 
ATOM      7  C   UNL     1       5.082  -1.052  -3.664  0.00  0.00    +0.001 A 
ATOM      8  C   UNL     1       5.982  -0.047  -3.364  0.00  0.00    +0.013 A 
ATOM      9  C   UNL     1       5.560   1.067  -2.635  0.00  0.00    +0.044 A 
ATOM     10  C   UNL     1       6.266   2.276  -2.170  0.00  0.00    +0.249 C 
ATOM     11  O   UNL     1       7.442   2.514  -2.368  0.00  0.00    -0.270 OA
ATOM     12  N   UNL     1       5.424   3.076  -1.494  0.00  0.00    -0.265 N 
BRANCH   3  13
ATOM     13  O   UNL     1       3.142   3.295  -2.111  0.00  0.00    -0.367 OA
ATOM     14  H   UNL     1       2.247   2.929  -2.137  0.00  0.00    +0.212 HD
ENDBRANCH   3  13
BRANCH   3  15
ATOM     15  C   UNL     1       3.672   2.182  -0.022  0.00  0.00    +0.095 C 
BRANCH  15  19
ATOM     16  C   UNL     1       0.002  -0.004   0.002  0.00  0.00    +0.000 A 
ATOM     17  C   UNL     1      -0.017   1.378   0.010  0.00  0.00    +0.000 A 
ATOM     18  C   UNL     1       1.171   2.086   0.002  0.00  0.00    +0.004 A 
ATOM     19  C   UNL     1       2.377   1.411  -0.015  0.00  0.00    -0.043 A 
ATOM     20  C   UNL     1       2.396   0.029  -0.021  0.00  0.00    +0.004 A 
ATOM     21  C   UNL     1       1.208  -0.679  -0.013  0.00  0.00    +0.000 A 
ENDBRANCH  15  19
ENDBRANCH   3  15
ENDBRANCH   2  12
ENDBRANCH   1   2
BRANCH   1  22
ATOM     22  C   UNL     1       6.601   5.482   1.188  0.00  0.00    +0.113 C 
BRANCH  22  23
ATOM     23  N   UNL     1       7.046   5.266   2.567  0.00  0.00    -0.265 N 
ATOM     24  C   UNL     1       8.312   5.038   2.954  0.00  0.00    +0.249 C 
ATOM     25  O   UNL     1       9.268   4.979   2.205  0.00  0.00    -0.270 OA
ATOM     26  C   UNL     1       8.377   4.869   4.419  0.00  0.00    +0.044 A 
ATOM     27  C   UNL     1       9.438   4.618   5.291  0.00  0.00    +0.013 A 
ATOM     28  C   UNL     1       9.201   4.505   6.645  0.00  0.00    +0.001 A 
ATOM     29  C   UNL     1       7.917   4.639   7.143  0.00  0.00    +0.000 A 
ATOM     30  C   UNL     1       6.860   4.888   6.285  0.00  0.00    +0.009 A 
ATOM     31  C   UNL     1       7.085   5.003   4.932  0.00  0.00    +0.015 A 
ATOM     32  C   UNL     1       6.183   5.270   3.754  0.00  0.00    +0.166 C 
BRANCH  32  33
ATOM     33  O   UNL     1       5.198   4.240   3.649  0.00  0.00    -0.367 OA
ATOM     34  H   UNL     1       4.597   4.192   4.404  0.00  0.00    +0.212 HD
ENDBRANCH  32  33
BRANCH  32  35
ATOM     35  C   UNL     1       5.504   6.633   3.906  0.00  0.00    +0.095 C 
BRANCH  35  36
ATOM     36  C   UNL     1       4.720   6.663   5.192  0.00  0.00    -0.043 A 
ATOM     37  C   UNL     1       3.395   6.267   5.203  0.00  0.00    +0.004 A 
ATOM     38  C   UNL     1       2.677   6.290   6.384  0.00  0.00    +0.000 A 
ATOM     39  C   UNL     1       3.280   6.718   7.552  0.00  0.00    +0.000 A 
ATOM     40  C   UNL     1       4.603   7.119   7.540  0.00  0.00    +0.000 A 
ATOM     41  C   UNL     1       5.323   7.091   6.360  0.00  0.00    +0.004 A 
ENDBRANCH  35  36
ENDBRANCH  32  35
ENDBRANCH  22  23
ENDBRANCH   1  22
TORSDOF 10
