REMARK  Name = ZINC39280080
REMARK  8 active torsions:
REMARK  status: ('A' for Active; 'I' for Inactive)
REMARK    1  A    between atoms: C_1  and  C_2
REMARK    2  A    between atoms: C_6  and  S_15
REMARK    3  A    between atoms: N_8  and  C_9
REMARK    4  A    between atoms: S_15  and  C_16
REMARK    5  A    between atoms: C_16  and  C_17
REMARK    6  A    between atoms: N_19  and  N_20
REMARK    7  A    between atoms: C_21  and  C_22
REMARK    8  A    between atoms: C_27  and  C_28
REMARK                            x       y       z     vdW  Elec       q    Type
REMARK                         _______ _______ _______ _____ _____    ______ ____
ROOT
ATOM      1  C   UNL     1      -1.179  -4.486   2.117  0.00  0.00    +0.242 C 
ATOM      2  O   UNL     1      -0.396  -5.194   2.715  0.00  0.00    -0.273 OA
ATOM      3  N   UNL     1      -2.496  -4.774   2.135  0.00  0.00    -0.207 N 
ATOM      4  H   UNL     1      -3.123  -4.208   1.658  0.00  0.00    +0.177 HD
ENDROOT
BRANCH   3   5
ATOM      5  N   UNL     1      -2.960  -5.890   2.843  0.00  0.00    -0.192 NA
ATOM      6  C   UNL     1      -4.210  -6.163   2.860  0.00  0.00    +0.118 C 
BRANCH   6   7
ATOM      7  C   UNL     1      -4.709  -7.364   3.622  0.00  0.00    +0.125 C 
ATOM      8  C   UNL     1      -5.489  -8.290   2.709  0.00  0.00    +0.123 C 
ATOM      9  N   UNL     1      -6.689  -8.341   3.190  0.00  0.00    -0.161 NA
ATOM     10  N   UNL     1      -6.838  -7.560   4.332  0.00  0.00    -0.153 NA
ATOM     11  C   UNL     1      -5.729  -6.950   4.663  0.00  0.00    +0.084 C 
BRANCH  11  12
ATOM     12  C   UNL     1      -5.515  -6.050   5.807  0.00  0.00    +0.000 A 
ATOM     13  C   UNL     1      -4.260  -5.469   6.019  0.00  0.00    +0.011 A 
ATOM     14  C   UNL     1      -4.066  -4.626   7.091  0.00  0.00    +0.022 A 
ATOM     15  C   UNL     1      -5.111  -4.353   7.960  0.00  0.00    +0.059 A 
ATOM     16  C   UNL     1      -6.357  -4.924   7.757  0.00  0.00    +0.060 A 
ATOM     17  C   UNL     1      -6.567  -5.766   6.684  0.00  0.00    +0.031 A 
ATOM     18 CL   UNL     1      -7.659  -4.575   8.852  0.00  0.00    -0.082 Cl
ATOM     19 CL   UNL     1      -4.857  -3.290   9.309  0.00  0.00    -0.082 Cl
ENDBRANCH  11  12
ENDBRANCH   6   7
ENDBRANCH   3   5
BRANCH   1  20
ATOM     20  C   UNL     1      -0.681  -3.285   1.356  0.00  0.00    +0.169 C 
BRANCH  20  21
ATOM     21  S   UNL     1       1.122  -3.169   1.523  0.00  0.00    -0.112 S 
BRANCH  21  26
ATOM     22  C   UNL     1      -0.011   1.528   0.009  0.00  0.00    +0.046 C 
ATOM     23  C   UNL     1       0.005  -0.002   0.001  0.00  0.00    +0.155 C 
ATOM     24  N   UNL     1       0.659  -0.508  -1.234  0.00  0.00    -0.235 NA
ATOM     25  N   UNL     1       1.113  -1.852  -0.841  0.00  0.00    -0.226 NA
ATOM     26  C   UNL     1       1.557  -1.693   0.563  0.00  0.00    +0.217 C 
ATOM     27  N   UNL     1       0.849  -0.515   1.099  0.00  0.00    -0.288 N 
ATOM     28  H   UNL     1       0.000  -0.558  -1.997  0.00  0.00    +0.143 HD
ATOM     29  H   UNL     1       1.872  -2.163  -1.428  0.00  0.00    +0.143 HD
BRANCH  27  30
ATOM     30  C   UNL     1       0.955   0.011   2.388  0.00  0.00    +0.033 A 
ATOM     31  C   UNL     1      -0.141  -0.011   3.242  0.00  0.00    +0.023 A 
ATOM     32  C   UNL     1      -0.032   0.510   4.516  0.00  0.00    +0.002 A 
ATOM     33  C   UNL     1       1.165   1.054   4.943  0.00  0.00    +0.000 A 
ATOM     34  C   UNL     1       2.258   1.079   4.095  0.00  0.00    +0.002 A 
ATOM     35  C   UNL     1       2.158   0.554   2.822  0.00  0.00    +0.023 A 
ENDBRANCH  27  30
ENDBRANCH  21  26
ENDBRANCH  20  21
ENDBRANCH   1  20
TORSDOF 7
