REMARK  Name = ZINC59020566
REMARK  14 active torsions:
REMARK  status: ('A' for Active; 'I' for Inactive)
REMARK    1  A    between atoms: C_1  and  C_2
REMARK    2  A    between atoms: C_2  and  C_3
REMARK    3  A    between atoms: C_3  and  C_29
REMARK    4  A    between atoms: N_4  and  N_5
REMARK    5  A    between atoms: C_8  and  S_11
REMARK    6  A    between atoms: S_11  and  C_12
REMARK    7  A    between atoms: C_12  and  C_13
REMARK    8  A    between atoms: N_15  and  C_16
REMARK    9  A    between atoms: C_17  and  C_27
REMARK   10  A    between atoms: C_18  and  C_26
REMARK   11  A    between atoms: C_19  and  C_21
REMARK   12  A    between atoms: C_21  and  O_23
REMARK   13  A    between atoms: O_23  and  C_24
REMARK   14  A    between atoms: C_24  and  C_25
REMARK                            x       y       z     vdW  Elec       q    Type
REMARK                         _______ _______ _______ _____ _____    ______ ____
ROOT
ATOM      1  S   UNL     1       7.473  -0.138  -0.742  0.00  0.00    -0.075 S 
ENDROOT
BRANCH   1   5
ATOM      2  N   UNL     1       2.637  -0.550  -2.444  0.00  0.00    -0.205 N 
ATOM      3  C   UNL     1       4.019  -0.516  -2.458  0.00  0.00    +0.232 A 
ATOM      4  N   UNL     1       4.800  -0.321  -1.416  0.00  0.00    -0.186 NA
ATOM      5  C   UNL     1       6.080  -0.352  -1.800  0.00  0.00    +0.211 A 
ATOM      6  N   UNL     1       6.132  -0.569  -3.093  0.00  0.00    -0.144 NA
ATOM      7  N   UNL     1       4.806  -0.685  -3.542  0.00  0.00    -0.245 N 
ATOM      8  H   UNL     1       2.147  -0.706  -3.267  0.00  0.00    +0.177 HD
ATOM      9  H   UNL     1       4.514  -0.852  -4.452  0.00  0.00    +0.192 HD
BRANCH   2  11
ATOM     10  C   UNL     1       0.649  -0.274  -1.245  0.00  0.00    +0.066 C 
ATOM     11  N   UNL     1       1.944  -0.358  -1.242  0.00  0.00    -0.184 NA
BRANCH  10  12
ATOM     12  C   UNL     1      -0.082  -0.200  -2.524  0.00  0.00    -0.002 A 
ATOM     13  C   UNL     1      -1.304  -0.859  -2.673  0.00  0.00    +0.010 A 
ATOM     14  C   UNL     1      -1.982  -0.785  -3.873  0.00  0.00    +0.001 A 
ATOM     15  C   UNL     1      -1.454  -0.060  -4.926  0.00  0.00    +0.000 A 
ATOM     16  C   UNL     1      -0.243   0.595  -4.785  0.00  0.00    +0.001 A 
ATOM     17  C   UNL     1       0.443   0.535  -3.590  0.00  0.00    +0.010 A 
ENDBRANCH  10  12
BRANCH  10  19
ATOM     18  C   UNL     1      -0.272   1.193   0.529  0.00  0.00    +0.010 C 
ATOM     19  C   UNL     1      -0.109  -0.253   0.058  0.00  0.00    +0.054 C 
ENDBRANCH  10  19
ENDBRANCH   2  11
ENDBRANCH   1   5
BRANCH   1  20
ATOM     20  C   UNL     1       8.897  -0.288  -1.855  0.00  0.00    +0.173 C 
BRANCH  20  21
ATOM     21  C   UNL     1      10.170  -0.122  -1.066  0.00  0.00    +0.228 C 
ATOM     22  O   UNL     1      10.122   0.078   0.129  0.00  0.00    -0.275 OA
ATOM     23  N   UNL     1      11.363  -0.197  -1.689  0.00  0.00    -0.278 N 
ATOM     24  H   UNL     1      11.402  -0.357  -2.645  0.00  0.00    +0.155 HD
BRANCH  23  25
ATOM     25  C   UNL     1      12.531  -0.044  -0.965  0.00  0.00    +0.090 A 
ATOM     26  C   UNL     1      13.844  -0.084  -1.436  0.00  0.00    +0.084 A 
ATOM     27  C   UNL     1      14.866   0.097  -0.516  0.00  0.00    -0.010 A 
ATOM     28  C   UNL     1      14.474   0.301   0.792  0.00  0.00    +0.102 A 
ATOM     29  S   UNL     1      12.697   0.238   0.682  0.00  0.00    -0.065 S 
ATOM     30  C   UNL     1      16.317   0.072  -0.921  0.00  0.00    +0.046 C 
BRANCH  28  31
ATOM     31  C   UNL     1      15.309   0.519   1.972  0.00  0.00    +0.346 C 
ATOM     32  O   UNL     1      16.521   0.536   1.865  0.00  0.00    -0.244 OA
BRANCH  31  33
ATOM     33  O   UNL     1      14.736   0.701   3.180  0.00  0.00    -0.461 OA
BRANCH  33  34
ATOM     34  C   UNL     1      15.612   0.908   4.290  0.00  0.00    +0.229 C 
ATOM     35  C   UNL     1      14.786   1.095   5.564  0.00  0.00    +0.048 C 
ENDBRANCH  33  34
ENDBRANCH  31  33
ENDBRANCH  28  31
BRANCH  26  36
ATOM     36  C   UNL     1      14.126  -0.304  -2.822  0.00  0.00    +0.102 C 
ATOM     37  N   UNL     1      14.351  -0.479  -3.922  0.00  0.00    -0.191 NA
ENDBRANCH  26  36
ENDBRANCH  23  25
ENDBRANCH  20  21
ENDBRANCH   1  20
TORSDOF 11
