REMARK  Name = ZINC20999313
REMARK  7 active torsions:
REMARK  status: ('A' for Active; 'I' for Inactive)
REMARK    1  A    between atoms: C_4  and  C_7
REMARK    2  A    between atoms: N_12  and  C_15
REMARK    3  A    between atoms: C_15  and  C_16
REMARK    4  A    between atoms: C_19  and  C_24
REMARK    5  A    between atoms: N_26  and  C_27
REMARK    6  A    between atoms: C_27  and  C_28
REMARK    7  A    between atoms: C_28  and  N_34
REMARK                            x       y       z     vdW  Elec       q    Type
REMARK                         _______ _______ _______ _____ _____    ______ ____
ROOT
ATOM      1  C   UNL     1       4.814   6.377   1.556  0.00  0.00    +0.003 A 
ATOM      2  C   UNL     1       3.790   7.268   1.573  0.00  0.00    +0.020 A 
ATOM      3  C   UNL     1       2.472   6.822   1.475  0.00  0.00    +0.020 A 
ATOM      4  C   UNL     1       2.229   5.454   1.370  0.00  0.00    +0.101 A 
ATOM      5  C   UNL     1       3.332   4.562   1.357  0.00  0.00    +0.261 A 
ATOM      6  O   UNL     1       3.146   3.361   1.261  0.00  0.00    -0.267 OA
ATOM      7  N   UNL     1       4.585   5.046   1.449  0.00  0.00    -0.327 N 
ATOM      8  H   UNL     1       5.430   4.342   1.437  0.00  0.00    +0.169 HD
ENDROOT
BRANCH   4   9
ATOM      9  C   UNL     1       0.853   4.944   1.270  0.00  0.00    +0.249 C 
ATOM     10  O   UNL     1      -0.078   5.721   1.170  0.00  0.00    -0.270 OA
ATOM     11  N   UNL     1       0.623   3.616   1.289  0.00  0.00    -0.309 N 
ATOM     12  H   UNL     1       1.468   2.912   1.295  0.00  0.00    +0.149 HD
BRANCH  11  13
ATOM     13  C   UNL     1      -0.752   3.111   1.301  0.00  0.00    +0.126 C 
BRANCH  13  14
ATOM     14  C   UNL     1      -0.733   1.581   1.321  0.00  0.00    +0.038 C 
ATOM     15  C   UNL     1      -0.010   1.063   0.076  0.00  0.00    +0.024 C 
ATOM     16  C   UNL     1      -0.742   1.548  -1.177  0.00  0.00    +0.002 C 
ATOM     17  C   UNL     1      -2.178   1.020  -1.165  0.00  0.00    +0.000 C 
ATOM     18  C   UNL     1      -2.901   1.538   0.081  0.00  0.00    +0.002 C 
ATOM     19  C   UNL     1      -2.168   1.054   1.334  0.00  0.00    +0.024 C 
BRANCH  14  20
ATOM     20  N   UNL     1      -0.029   1.117   2.524  0.00  0.00    -0.291 NA
ATOM     21  C   UNL     1       0.084  -0.349   2.535  0.00  0.00    +0.113 C 
ATOM     22  C   UNL     1       0.873  -0.785   3.772  0.00  0.00    +0.175 C 
ATOM     23  O   UNL     1       0.227  -0.284   4.945  0.00  0.00    -0.377 OA
ATOM     24  C   UNL     1       0.100   1.140   4.968  0.00  0.00    +0.175 C 
ATOM     25  C   UNL     1      -0.697   1.596   3.743  0.00  0.00    +0.113 C 
ENDBRANCH  14  20
ENDBRANCH  13  14
ENDBRANCH  11  13
ENDBRANCH   4   9
BRANCH   1  26
ATOM     26  C   UNL     1       6.232   6.878   1.658  0.00  0.00    -0.025 C 
BRANCH  26  31
ATOM     27  C   UNL     1       8.134   6.294   5.431  0.00  0.00    +0.017 C 
ATOM     28  C   UNL     1       7.806   4.838   5.241  0.00  0.00    +0.006 C 
ATOM     29  C   UNL     1       8.055   4.458   3.764  0.00  0.00    -0.018 C 
ATOM     30  C   UNL     1       6.978   4.928   2.900  0.00  0.00    -0.078 C 
ATOM     31  N   UNL     1       6.832   6.399   2.911  0.00  0.00    +0.383 N 
ATOM     32  C   UNL     1       6.037   6.795   4.048  0.00  0.00    -0.078 C 
ATOM     33  C   UNL     1       6.912   7.218   5.244  0.00  0.00    -0.011 C 
ATOM     34  H   UNL     1       7.820   6.871   3.011  0.00  0.00    -0.081 HD
BRANCH  27  38
ATOM     35  C   UNL     1       9.689   6.852   9.370  0.00  0.00    +0.000 A 
ATOM     36  C   UNL     1      10.461   7.176   8.270  0.00  0.00    +0.000 A 
ATOM     37  C   UNL     1       9.957   6.996   6.995  0.00  0.00    +0.004 A 
ATOM     38  C   UNL     1       8.683   6.491   6.820  0.00  0.00    -0.044 A 
ATOM     39  C   UNL     1       7.909   6.171   7.920  0.00  0.00    +0.004 A 
ATOM     40  C   UNL     1       8.414   6.348   9.195  0.00  0.00    +0.000 A 
ENDBRANCH  27  38
ENDBRANCH  26  31
ENDBRANCH   1  26
TORSDOF 7
