REMARK  Name = ZINC23547245
REMARK  8 active torsions:
REMARK  status: ('A' for Active; 'I' for Inactive)
REMARK    1  A    between atoms: C_1  and  C_2
REMARK    2  A    between atoms: C_5  and  N_8
REMARK    3  A    between atoms: C_9  and  C_28
REMARK    4  A    between atoms: C_12  and  S_13
REMARK    5  A    between atoms: S_13  and  C_14
REMARK    6  A    between atoms: C_14  and  C_15
REMARK    7  A    between atoms: C_21  and  C_27
REMARK    8  A    between atoms: C_22  and  C_26
REMARK                            x       y       z     vdW  Elec       q    Type
REMARK                         _______ _______ _______ _____ _____    ______ ____
ROOT
ATOM      1  N   UNL     1       0.029  -4.174  -0.071  0.00  0.00    -0.270 N 
ATOM      2  C   UNL     1      -0.881  -5.021   0.523  0.00  0.00    +0.172 A 
ATOM      3  N   UNL     1      -0.445  -6.245   0.337  0.00  0.00    -0.128 NA
ATOM      4  N   UNL     1       0.658  -6.224  -0.321  0.00  0.00    -0.122 NA
ATOM      5  C   UNL     1       0.994  -4.985  -0.603  0.00  0.00    +0.197 A 
ENDROOT
BRANCH   1  10
ATOM      6  C   UNL     1      -0.191   1.494  -0.284  0.00  0.00    +0.044 C 
ATOM      7  C   UNL     1      -0.133  -0.011  -0.228  0.00  0.00    -0.050 A 
ATOM      8  C   UNL     1      -0.270  -0.751  -1.387  0.00  0.00    +0.005 A 
ATOM      9  C   UNL     1      -0.217  -2.131  -1.339  0.00  0.00    +0.026 A 
ATOM     10  C   UNL     1      -0.025  -2.774  -0.123  0.00  0.00    +0.051 A 
ATOM     11  C   UNL     1       0.113  -2.028   1.039  0.00  0.00    +0.026 A 
ATOM     12  C   UNL     1       0.064  -0.649   0.984  0.00  0.00    +0.005 A 
ENDBRANCH   1  10
BRANCH   2  13
ATOM     13  C   UNL     1      -2.115  -4.626   1.235  0.00  0.00    +0.055 A 
ATOM     14  C   UNL     1      -2.986  -3.697   0.664  0.00  0.00    +0.014 A 
ATOM     15  C   UNL     1      -4.136  -3.332   1.334  0.00  0.00    +0.001 A 
ATOM     16  C   UNL     1      -4.427  -3.885   2.569  0.00  0.00    +0.003 A 
ATOM     17  C   UNL     1      -3.569  -4.806   3.141  0.00  0.00    +0.039 A 
ATOM     18  C   UNL     1      -2.417  -5.186   2.479  0.00  0.00    +0.134 A 
ATOM     19  F   UNL     1      -1.582  -6.090   3.036  0.00  0.00    -0.205 F 
ENDBRANCH   2  13
BRANCH   5  20
ATOM     20  S   UNL     1       2.421  -4.466  -1.497  0.00  0.00    -0.078 S 
BRANCH  20  21
ATOM     21  C   UNL     1       3.267  -6.016  -1.912  0.00  0.00    +0.151 C 
BRANCH  21  22
ATOM     22  C   UNL     1       4.521  -5.711  -2.689  0.00  0.00    +0.121 A 
ATOM     23  N   UNL     1       5.311  -6.733  -3.109  0.00  0.00    -0.310 N 
ATOM     24  H   UNL     1       5.056  -7.646  -2.903  0.00  0.00    +0.170 HD
ATOM     25  C   UNL     1       6.440  -6.504  -3.805  0.00  0.00    +0.260 A 
ATOM     26  O   UNL     1       7.137  -7.433  -4.176  0.00  0.00    -0.267 OA
ATOM     27  C   UNL     1       6.809  -5.152  -4.104  0.00  0.00    +0.075 A 
ATOM     28  C   UNL     1       7.961  -4.652  -4.830  0.00  0.00    -0.026 A 
ATOM     29  C   UNL     1       8.108  -3.328  -4.994  0.00  0.00    -0.008 A 
ATOM     30  S   UNL     1       6.682  -2.649  -4.168  0.00  0.00    -0.073 S 
ATOM     31  C   UNL     1       5.931  -4.163  -3.628  0.00  0.00    +0.116 A 
ATOM     32  N   UNL     1       4.828  -4.468  -2.950  0.00  0.00    -0.226 NA
ATOM     33  C   UNL     1       9.214  -2.591  -5.705  0.00  0.00    +0.052 C 
ATOM     34  C   UNL     1       8.981  -5.608  -5.394  0.00  0.00    +0.045 C 
ENDBRANCH  21  22
ENDBRANCH  20  21
ENDBRANCH   5  20
TORSDOF 5
