REMARK  Name = ZINC33712397
REMARK  9 active torsions:
REMARK  status: ('A' for Active; 'I' for Inactive)
REMARK    1  A    between atoms: C_1  and  C_2
REMARK    2  A    between atoms: C_8  and  N_10
REMARK    3  A    between atoms: C_11  and  C_13
REMARK    4  A    between atoms: C_21  and  C_31
REMARK    5  A    between atoms: N_27  and  C_28
REMARK    6  A    between atoms: N_33  and  C_34
REMARK    7  A    between atoms: C_37  and  C_40
REMARK    8  A    between atoms: C_40  and  C_41
REMARK    9  A    between atoms: C_40  and  C_42
REMARK                            x       y       z     vdW  Elec       q    Type
REMARK                         _______ _______ _______ _____ _____    ______ ____
ROOT
ATOM      1  C   UNL     1       1.981   3.111  -0.174  0.00  0.00    +0.199 C 
ATOM      2  C   UNL     1       1.896   1.621  -0.057  0.00  0.00    +0.127 C 
ATOM      3  C   UNL     1       2.485   0.901  -1.255  0.00  0.00    +0.009 C 
ATOM      4  C   UNL     1       2.345  -0.392  -1.002  0.00  0.00    +0.004 C 
ATOM      5  C   UNL     1       1.606  -0.457   0.340  0.00  0.00    +0.155 C 
ATOM      6  O   UNL     1       2.140   0.753   1.025  0.00  0.00    -0.358 OA
ATOM      7  C   UNL     1       0.151   0.005  -0.060  0.00  0.00    +0.123 C 
ATOM      8  C   UNL     1       0.320   1.502  -0.121  0.00  0.00    +0.128 C 
ATOM      9  C   UNL     1       0.037   2.382  -1.269  0.00  0.00    +0.224 C 
ATOM     10  O   UNL     1      -0.846   2.239  -2.088  0.00  0.00    -0.275 OA
ATOM     11  N   UNL     1       0.964   3.396  -1.234  0.00  0.00    -0.283 N 
ENDROOT
BRANCH   1  13
ATOM     12  N   UNL     1       4.363   3.603   0.274  0.00  0.00    -0.311 N 
ATOM     13  C   UNL     1       3.356   3.539  -0.619  0.00  0.00    +0.237 C 
ATOM     14  O   UNL     1       3.557   3.824  -1.781  0.00  0.00    -0.274 OA
ATOM     15  H   UNL     1       4.182   3.344   1.328  0.00  0.00    +0.149 HD
BRANCH  12  22
ATOM     16  C   UNL     1       5.704   5.814   1.580  0.00  0.00    +0.009 C 
ATOM     17  C   UNL     1       6.463   4.603   1.033  0.00  0.00    +0.006 C 
ATOM     18  C   UNL     1       7.859   5.037   0.582  0.00  0.00    +0.005 C 
ATOM     19  C   UNL     1       8.617   3.826   0.035  0.00  0.00    +0.000 C 
ATOM     20  C   UNL     1       7.855   3.242  -1.156  0.00  0.00    +0.002 C 
ATOM     21  C   UNL     1       6.459   2.808  -0.705  0.00  0.00    +0.022 C 
ATOM     22  C   UNL     1       5.700   4.019  -0.158  0.00  0.00    +0.076 C 
ENDBRANCH  12  22
ENDBRANCH   1  13
BRANCH   7  23
ATOM     23  C   UNL     1      -0.242  -0.550  -1.405  0.00  0.00    +0.224 C 
ATOM     24  O   UNL     1      -0.380   0.196  -2.352  0.00  0.00    -0.275 OA
ATOM     25  N   UNL     1      -0.441  -1.874  -1.555  0.00  0.00    -0.285 N 
ATOM     26  H   UNL     1      -0.233  -2.560  -0.721  0.00  0.00    +0.155 HD
BRANCH  25  27
ATOM     27  C   UNL     1      -0.912  -2.377  -2.773  0.00  0.00    +0.033 A 
ATOM     28  C   UNL     1      -1.795  -1.628  -3.540  0.00  0.00    +0.023 A 
ATOM     29  C   UNL     1      -2.255  -2.125  -4.744  0.00  0.00    +0.006 A 
ATOM     30  C   UNL     1      -1.846  -3.372  -5.180  0.00  0.00    -0.045 A 
ATOM     31  C   UNL     1      -0.971  -4.122  -4.416  0.00  0.00    +0.006 A 
ATOM     32  C   UNL     1      -0.503  -3.629  -3.214  0.00  0.00    +0.023 A 
BRANCH  30  33
ATOM     33  C   UNL     1      -2.354  -3.914  -6.491  0.00  0.00    +0.013 C 
ATOM     34  C   UNL     1      -3.880  -4.021  -6.441  0.00  0.00    +0.012 C 
ATOM     35  C   UNL     1      -1.946  -2.972  -7.626  0.00  0.00    +0.012 C 
ENDBRANCH  30  33
ENDBRANCH  25  27
ENDBRANCH   7  23
BRANCH  11  36
ATOM     36  C   UNL     1       0.957   4.576  -2.103  0.00  0.00    +0.077 C 
ATOM     37  C   UNL     1      -0.274   4.797  -2.985  0.00  0.00    +0.024 C 
ATOM     38  C   UNL     1       1.047   4.343  -3.612  0.00  0.00    +0.024 C 
ENDBRANCH  11  36
TORSDOF 6
