REMARK  Name = ZINC58159956
REMARK  7 active torsions:
REMARK  status: ('A' for Active; 'I' for Inactive)
REMARK    1  A    between atoms: C_1  and  O_2
REMARK    2  A    between atoms: O_2  and  C_3
REMARK    3  A    between atoms: C_5  and  C_13
REMARK    4  A    between atoms: C_7  and  O_11
REMARK    5  A    between atoms: C_8  and  O_9
REMARK    6  A    between atoms: O_9  and  C_10
REMARK    7  A    between atoms: O_11  and  C_12
REMARK                            x       y       z     vdW  Elec       q    Type
REMARK                         _______ _______ _______ _____ _____    ______ ____
ROOT
ATOM      1  C   UNL     1      -4.871   0.264   0.038  0.00  0.00    +0.190 C 
ATOM      2  N   UNL     1      -5.931  -0.492  -0.640  0.00  0.00    -0.322 N 
ATOM      3  C   UNL     1      -5.913  -0.559  -2.029  0.00  0.00    +0.042 A 
ATOM      4  C   UNL     1      -6.425  -1.646  -2.716  0.00  0.00    +0.043 A 
ATOM      5  C   UNL     1      -6.377  -1.665  -4.099  0.00  0.00    +0.043 A 
ATOM      6  C   UNL     1      -5.821  -0.604  -4.800  0.00  0.00    +0.021 A 
ATOM      7  C   UNL     1      -5.310   0.487  -4.129  0.00  0.00    +0.016 A 
ATOM      8  C   UNL     1      -5.354   0.520  -2.737  0.00  0.00    +0.058 A 
ATOM      9  C   UNL     1      -4.831   1.665  -1.971  0.00  0.00    +0.247 C 
ATOM     10  O   UNL     1      -4.572   2.713  -2.532  0.00  0.00    -0.270 OA
ATOM     11  N   UNL     1      -4.644   1.537  -0.645  0.00  0.00    -0.289 N 
ATOM     12 CL   UNL     1      -7.018  -3.027  -4.964  0.00  0.00    -0.083 Cl
ATOM     13  H   UNL     1      -6.628  -0.935  -0.132  0.00  0.00    +0.148 HD
ATOM     14  H   UNL     1      -4.350   2.307  -0.132  0.00  0.00    +0.151 HD
ENDROOT
BRANCH   1  17
ATOM     15  C   UNL     1      -1.201  -0.638   0.010  0.00  0.00    +0.166 A 
ATOM     16  C   UNL     1      -2.375   0.101   0.019  0.00  0.00    +0.056 A 
ATOM     17  C   UNL     1      -3.598  -0.543   0.028  0.00  0.00    -0.002 A 
ATOM     18  C   UNL     1      -3.657  -1.924   0.027  0.00  0.00    +0.056 A 
ATOM     19  C   UNL     1      -2.488  -2.670   0.017  0.00  0.00    +0.166 A 
ATOM     20  C   UNL     1      -1.256  -2.027   0.003  0.00  0.00    +0.204 A 
BRANCH  15  22
ATOM     21  C   UNL     1      -0.017   1.425   0.010  0.00  0.00    +0.277 C 
ATOM     22  O   UNL     1       0.002  -0.004   0.002  0.00  0.00    -0.491 OA
ENDBRANCH  15  22
BRANCH  20  23
ATOM     23  O   UNL     1      -0.106  -2.755  -0.012  0.00  0.00    -0.488 OA
ATOM     24  C   UNL     1       0.454  -3.109   1.254  0.00  0.00    +0.277 C 
ENDBRANCH  20  23
BRANCH  19  25
ATOM     25  O   UNL     1      -2.547  -4.028   0.017  0.00  0.00    -0.491 OA
ATOM     26  C   UNL     1      -3.847  -4.621   0.026  0.00  0.00    +0.277 C 
ENDBRANCH  19  25
ENDBRANCH   1  17
TORSDOF 4
