REMARK  Name = ZINC13059655
REMARK  8 active torsions:
REMARK  status: ('A' for Active; 'I' for Inactive)
REMARK    1  A    between atoms: C_1  and  C_2
REMARK    2  A    between atoms: C_2  and  C_4
REMARK    3  A    between atoms: C_2  and  C_10
REMARK    4  A    between atoms: C_4  and  N_46
REMARK    5  A    between atoms: N_12  and  N_13
REMARK    6  A    between atoms: N_13  and  S_14
REMARK    7  A    between atoms: S_14  and  C_17
REMARK    8  A    between atoms: C_19  and  C_24
REMARK                            x       y       z     vdW  Elec       q    Type
REMARK                         _______ _______ _______ _____ _____    ______ ____
ROOT
ATOM      1  N   UNL     1       0.337   4.224  -1.250  0.00  0.00    -0.108 NA
ATOM      2  H   UNL     1       0.865   4.702  -1.909  0.00  0.00    +0.172 HD
ENDROOT
BRANCH   1   5
ATOM      3  C   UNL     1      -1.875   4.704  -1.990  0.00  0.00    +0.229 C 
ATOM      4  O   UNL     1      -1.569   5.873  -2.102  0.00  0.00    -0.274 OA
ATOM      5  N   UNL     1      -0.964   3.807  -1.564  0.00  0.00    -0.232 N 
ATOM      6  H   UNL     1      -1.208   2.873  -1.474  0.00  0.00    +0.171 HD
BRANCH   3   8
ATOM      7  C   UNL     1      -3.220   3.221  -3.453  0.00  0.00    +0.015 C 
ATOM      8  C   UNL     1      -3.273   4.256  -2.327  0.00  0.00    +0.057 C 
BRANCH   8   9
ATOM      9  C   UNL     1      -4.100   5.461  -2.781  0.00  0.00    -0.066 C 
BRANCH   9  15
ATOM     10  C   UNL     1      -6.189   5.998  -3.879  0.00  0.00    -0.079 C 
ATOM     11  C   UNL     1      -7.582   5.459  -4.214  0.00  0.00    -0.019 C 
ATOM     12  C   UNL     1      -8.368   5.250  -2.917  0.00  0.00    -0.004 C 
ATOM     13  C   UNL     1      -7.594   4.289  -2.010  0.00  0.00    -0.019 C 
ATOM     14  C   UNL     1      -6.201   4.862  -1.739  0.00  0.00    -0.079 C 
ATOM     15  N   UNL     1      -5.488   5.017  -3.025  0.00  0.00    +0.380 N 
ATOM     16  H   UNL     1      -5.468   4.110  -3.506  0.00  0.00    -0.082 HD
ENDBRANCH   9  15
ENDBRANCH   8   9
ENDBRANCH   3   8
ENDBRANCH   1   5
BRANCH   1  17
ATOM     17  S   UNL     1       0.972   3.901   0.244  0.00  0.00    +0.075 S 
ATOM     18  O   UNL     1       2.237   4.545   0.296  0.00  0.00    -0.152 OA
ATOM     19  O   UNL     1       0.819   2.504   0.457  0.00  0.00    -0.152 OA
BRANCH  17  20
ATOM     20  C   UNL     1      -0.052   4.706   1.431  0.00  0.00    +0.121 A 
ATOM     21  C   UNL     1      -0.766   3.959   2.344  0.00  0.00    +0.044 A 
ATOM     22  C   UNL     1      -1.577   4.599   3.283  0.00  0.00    +0.065 A 
ATOM     23  C   UNL     1      -1.659   5.993   3.292  0.00  0.00    +0.016 A 
ATOM     24  C   UNL     1      -0.940   6.729   2.374  0.00  0.00    +0.018 A 
ATOM     25  C   UNL     1      -0.138   6.088   1.444  0.00  0.00    +0.044 A 
ATOM     26 BR   UNL     1       0.839   7.105   0.184  0.00  0.00    -0.048 Br
BRANCH  22  27
ATOM     27  C   UNL     1      -2.344   3.805   4.264  0.00  0.00    +0.387 C 
ATOM     28  O   UNL     1      -2.271   2.592   4.254  0.00  0.00    -0.241 OA
ATOM     29  O   UNL     1      -3.125   4.425   5.169  0.00  0.00    -0.241 OA
ENDBRANCH  22  27
ENDBRANCH  17  20
ENDBRANCH   1  17
TORSDOF 7
