REMARK  Name = ZINC59227839
REMARK  7 active torsions:
REMARK  status: ('A' for Active; 'I' for Inactive)
REMARK    1  A    between atoms: C_1  and  O_2
REMARK    2  A    between atoms: O_2  and  C_3
REMARK    3  A    between atoms: C_6  and  C_28
REMARK    4  A    between atoms: C_11  and  C_13
REMARK    5  A    between atoms: C_16  and  O_19
REMARK    6  A    between atoms: O_19  and  C_20
REMARK    7  A    between atoms: C_20  and  C_21
REMARK                            x       y       z     vdW  Elec       q    Type
REMARK                         _______ _______ _______ _____ _____    ______ ____
ROOT
ATOM      1  C   UNL     1       0.501  -0.619   1.121  0.00  0.00    +0.339 C 
ATOM      2  O   UNL     1       1.072   0.113   2.099  0.00  0.00    -0.245 OA
ATOM      3  C   UNL     1       0.615  -1.977   1.132  0.00  0.00    +0.084 C 
ATOM      4  C   UNL     1       1.398  -2.644   2.097  0.00  0.00    +0.075 C 
ATOM      5  N   UNL     1       1.495  -3.964   2.091  0.00  0.00    -0.192 NA
ATOM      6  C   UNL     1       0.893  -4.757   1.215  0.00  0.00    +0.155 C 
ATOM      7  S   UNL     1       1.126  -6.448   1.351  0.00  0.00    -0.017 S 
ATOM      8  N   UNL     1       0.107  -4.295   0.224  0.00  0.00    -0.314 N 
ATOM      9  C   UNL     1      -0.100  -2.841   0.109  0.00  0.00    +0.141 C 
ATOM     10  H   UNL     1      -0.316  -4.907  -0.398  0.00  0.00    +0.149 HD
ENDROOT
BRANCH   4  11
ATOM     11  C   UNL     1       2.117  -1.861   3.126  0.00  0.00    -0.001 A 
ATOM     12  C   UNL     1       1.510  -1.595   4.355  0.00  0.00    +0.011 A 
ATOM     13  C   UNL     1       2.186  -0.865   5.311  0.00  0.00    +0.020 A 
ATOM     14  C   UNL     1       3.462  -0.394   5.052  0.00  0.00    +0.041 A 
ATOM     15  C   UNL     1       4.069  -0.654   3.834  0.00  0.00    +0.020 A 
ATOM     16  C   UNL     1       3.406  -1.389   2.874  0.00  0.00    +0.011 A 
ATOM     17 CL   UNL     1       4.306   0.525   6.259  0.00  0.00    -0.084 Cl
ENDBRANCH   4  11
BRANCH   9  18
ATOM     18  C   UNL     1       0.355  -2.415  -1.263  0.00  0.00    -0.022 A 
ATOM     19  C   UNL     1       1.565  -2.865  -1.760  0.00  0.00    +0.009 A 
ATOM     20  C   UNL     1       1.984  -2.476  -3.017  0.00  0.00    +0.046 A 
ATOM     21  C   UNL     1       1.190  -1.633  -3.781  0.00  0.00    +0.121 A 
ATOM     22  C   UNL     1      -0.023  -1.183  -3.281  0.00  0.00    +0.046 A 
ATOM     23  C   UNL     1      -0.440  -1.579  -2.025  0.00  0.00    +0.009 A 
BRANCH  21  24
ATOM     24  O   UNL     1       1.601  -1.248  -5.018  0.00  0.00    -0.487 OA
BRANCH  24  25
ATOM     25  C   UNL     1       0.733  -0.379  -5.749  0.00  0.00    +0.264 C 
BRANCH  25  26
ATOM     26  C   UNL     1       1.349  -0.062  -7.087  0.00  0.00    -0.010 A 
ATOM     27  C   UNL     1       2.186   1.031  -7.221  0.00  0.00    +0.008 A 
ATOM     28  C   UNL     1       2.752   1.322  -8.448  0.00  0.00    +0.020 A 
ATOM     29  C   UNL     1       2.480   0.520  -9.542  0.00  0.00    +0.041 A 
ATOM     30  C   UNL     1       1.643  -0.574  -9.407  0.00  0.00    +0.020 A 
ATOM     31  C   UNL     1       1.083  -0.867  -8.178  0.00  0.00    +0.008 A 
ATOM     32 CL   UNL     1       3.190   0.885 -11.084  0.00  0.00    -0.084 Cl
ENDBRANCH  25  26
ENDBRANCH  24  25
ENDBRANCH  21  24
ENDBRANCH   9  18
BRANCH   1  34
ATOM     33  C   UNL     1      -0.262   1.419   0.185  0.00  0.00    +0.280 C 
ATOM     34  O   UNL     1      -0.182  -0.007   0.133  0.00  0.00    -0.465 OA
ENDBRANCH   1  34
TORSDOF 6
