REMARK  Name = ZINC39935630
REMARK  8 active torsions:
REMARK  status: ('A' for Active; 'I' for Inactive)
REMARK    1  A    between atoms: C_1  and  O_2
REMARK    2  A    between atoms: O_2  and  C_3
REMARK    3  A    between atoms: C_5  and  C_12
REMARK    4  A    between atoms: C_7  and  O_10
REMARK    5  A    between atoms: C_8  and  O_9
REMARK    6  A    between atoms: O_10  and  C_11
REMARK    7  A    between atoms: N_13  and  N_14
REMARK    8  A    between atoms: N_14  and  C_15
REMARK                            x       y       z     vdW  Elec       q    Type
REMARK                         _______ _______ _______ _____ _____    ______ ____
ROOT
ATOM      1  C   UNL     1       2.428   0.308   4.203  0.00  0.00    +0.138 C 
ATOM      2  N   UNL     1       2.964  -0.279   5.230  0.00  0.00    -0.190 NA
ENDROOT
BRANCH   1   5
ATOM      3  C   UNL     1      -0.166  -2.199   3.153  0.00  0.00    +0.166 A 
ATOM      4  C   UNL     1       0.792  -1.543   3.906  0.00  0.00    +0.059 A 
ATOM      5  C   UNL     1       1.407  -0.394   3.403  0.00  0.00    +0.002 A 
ATOM      6  C   UNL     1       1.053   0.090   2.141  0.00  0.00    +0.059 A 
ATOM      7  C   UNL     1       0.095  -0.570   1.393  0.00  0.00    +0.166 A 
ATOM      8  C   UNL     1      -0.512  -1.718   1.894  0.00  0.00    +0.201 A 
BRANCH   3  10
ATOM      9  C   UNL     1      -0.360  -3.756   4.940  0.00  0.00    +0.277 C 
ATOM     10  O   UNL     1      -0.764  -3.318   3.641  0.00  0.00    -0.491 OA
ENDBRANCH   3  10
BRANCH   8  11
ATOM     11  O   UNL     1      -1.451  -2.368   1.154  0.00  0.00    -0.501 OA
ATOM     12  H   UNL     1      -2.354  -2.058   1.304  0.00  0.00    +0.292 HD
ENDBRANCH   8  11
BRANCH   7  13
ATOM     13  O   UNL     1      -0.251  -0.100   0.165  0.00  0.00    -0.491 OA
ATOM     14  C   UNL     1       0.415   1.080  -0.289  0.00  0.00    +0.277 C 
ENDBRANCH   7  13
ENDBRANCH   1   5
BRANCH   2  15
ATOM     15  N   UNL     1       3.025  -1.677   5.285  0.00  0.00    -0.236 N 
ATOM     16  H   UNL     1       2.755  -2.205   4.517  0.00  0.00    +0.174 HD
BRANCH  15  17
ATOM     17  C   UNL     1       3.474  -2.310   6.441  0.00  0.00    +0.074 A 
ATOM     18  C   UNL     1       3.855  -1.565   7.538  0.00  0.00    +0.027 A 
ATOM     19  C   UNL     1       4.306  -2.184   8.698  0.00  0.00    +0.003 A 
ATOM     20  C   UNL     1       4.383  -3.542   8.784  0.00  0.00    +0.010 A 
ATOM     21  C   UNL     1       4.004  -4.336   7.689  0.00  0.00    +0.002 A 
ATOM     22  C   UNL     1       3.538  -3.720   6.502  0.00  0.00    +0.093 A 
ATOM     23  N   UNL     1       3.174  -4.472   5.461  0.00  0.00    -0.253 NA
ATOM     24  C   UNL     1       3.231  -5.781   5.512  0.00  0.00    +0.111 A 
ATOM     25  C   UNL     1       3.674  -6.451   6.650  0.00  0.00    +0.020 A 
ATOM     26  C   UNL     1       4.073  -5.741   7.747  0.00  0.00    +0.011 A 
ENDBRANCH  15  17
ENDBRANCH   2  15
TORSDOF 6
