REMARK  Name = ZINC52781850
REMARK  5 active torsions:
REMARK  status: ('A' for Active; 'I' for Inactive)
REMARK    1  A    between atoms: C_1  and  C_2
REMARK    2  A    between atoms: C_8  and  N_10
REMARK    3  A    between atoms: N_10  and  S_11
REMARK    4  A    between atoms: S_11  and  C_14
REMARK    5  A    between atoms: C_24  and  C_26
REMARK                            x       y       z     vdW  Elec       q    Type
REMARK                         _______ _______ _______ _____ _____    ______ ____
ROOT
ATOM      1  C   UNL     1       3.176  -1.062   3.643  0.00  0.00    +0.106 A 
ATOM      2  C   UNL     1       2.093  -1.558   4.345  0.00  0.00    +0.030 A 
ATOM      3  C   UNL     1       2.230  -2.706   5.099  0.00  0.00    +0.026 A 
ATOM      4  C   UNL     1       3.455  -3.362   5.153  0.00  0.00    +0.040 A 
ATOM      5  C   UNL     1       4.539  -2.865   4.447  0.00  0.00    -0.024 A 
ATOM      6  C   UNL     1       4.393  -1.715   3.690  0.00  0.00    +0.034 A 
ATOM      7  C   UNL     1       5.878  -3.554   4.474  0.00  0.00    +0.038 C 
ATOM      8  C   UNL     1       5.990  -4.460   5.699  0.00  0.00    +0.024 C 
ATOM      9  C   UNL     1       4.759  -5.375   5.755  0.00  0.00    +0.114 C 
ATOM     10  N   UNL     1       3.574  -4.523   5.929  0.00  0.00    -0.271 N 
ATOM     11  C   UNL     1       2.619  -4.852   6.821  0.00  0.00    +0.217 C 
ATOM     12  O   UNL     1       1.703  -4.087   7.038  0.00  0.00    -0.276 OA
ATOM     13  C   UNL     1       2.689  -6.169   7.549  0.00  0.00    +0.109 C 
ENDROOT
BRANCH   1  14
ATOM     14  S   UNL     1       3.003   0.404   2.680  0.00  0.00    +0.059 S 
ATOM     15  O   UNL     1       4.303   0.962   2.552  0.00  0.00    -0.153 OA
ATOM     16  O   UNL     1       1.914   1.129   3.237  0.00  0.00    -0.153 OA
BRANCH  14  17
ATOM     17  N   UNL     1       2.535  -0.060   1.161  0.00  0.00    -0.187 NA
ATOM     18  H   UNL     1       3.123   0.093   0.405  0.00  0.00    +0.148 HD
BRANCH  17  25
ATOM     19  C   UNL     1       0.480   1.253  -0.402  0.00  0.00    +0.009 C 
ATOM     20  C   UNL     1       0.654  -0.268  -0.388  0.00  0.00    +0.005 C 
ATOM     21  C   UNL     1       1.607  -0.683  -1.511  0.00  0.00    +0.005 C 
ATOM     22  C   UNL     1       1.780  -2.203  -1.496  0.00  0.00    +0.000 C 
ATOM     23  C   UNL     1       2.360  -2.637  -0.149  0.00  0.00    +0.002 C 
ATOM     24  C   UNL     1       1.407  -2.222   0.974  0.00  0.00    +0.020 C 
ATOM     25  C   UNL     1       1.234  -0.702   0.960  0.00  0.00    +0.079 C 
ENDBRANCH  17  25
ENDBRANCH  14  17
ENDBRANCH   1  14
TORSDOF 3
