REMARK  Name = ZINC20763231
REMARK  7 active torsions:
REMARK  status: ('A' for Active; 'I' for Inactive)
REMARK    1  A    between atoms: C_1  and  C_2
REMARK    2  A    between atoms: C_2  and  O_3
REMARK    3  A    between atoms: O_3  and  C_4
REMARK    4  A    between atoms: C_7  and  C_10
REMARK    5  A    between atoms: C_12  and  C_25
REMARK    6  A    between atoms: C_15  and  C_18
REMARK    7  A    between atoms: C_23  and  O_24
REMARK                            x       y       z     vdW  Elec       q    Type
REMARK                         _______ _______ _______ _____ _____    ______ ____
ROOT
ATOM      1  C   UNL     1       1.140   7.101   1.899  0.00  0.00    +0.040 C 
ATOM      2  N   UNL     1       1.117   6.652   0.701  0.00  0.00    -0.299 NA
ATOM      3  C   UNL     1      -0.082   6.158   0.034  0.00  0.00    +0.081 C 
ATOM      4  N   UNL     1      -1.289   6.622   0.729  0.00  0.00    +0.401 N 
ATOM      5  C   UNL     1      -1.196   6.318   2.167  0.00  0.00    -0.028 C 
ATOM      6  C   UNL     1      -0.084   7.182   2.768  0.00  0.00    +0.044 C 
ATOM      7  H   UNL     1      -1.393   7.709   0.596  0.00  0.00    -0.081 HD
ATOM      8  H   UNL     1      -2.171   6.116   0.309  0.00  0.00    -0.081 HD
ENDROOT
BRANCH   3   9
ATOM      9  C   UNL     1      -0.061   4.651   0.027  0.00  0.00    -0.040 A 
ATOM     10  C   UNL     1       1.145   3.977   0.012  0.00  0.00    +0.005 A 
ATOM     11  C   UNL     1       1.165   2.595   0.005  0.00  0.00    +0.015 A 
ATOM     12  C   UNL     1      -0.024   1.887   0.012  0.00  0.00    +0.018 A 
ATOM     13  C   UNL     1      -1.231   2.562   0.022  0.00  0.00    +0.015 A 
ATOM     14  C   UNL     1      -1.249   3.944   0.034  0.00  0.00    +0.005 A 
ATOM     15 BR   UNL     1       0.002  -0.004   0.002  0.00  0.00    -0.050 Br
ENDBRANCH   3   9
BRANCH   1  19
ATOM     16  C   UNL     1       4.846   8.419   3.496  0.00  0.00    +0.121 A 
ATOM     17  C   UNL     1       4.787   7.926   2.198  0.00  0.00    +0.046 A 
ATOM     18  C   UNL     1       3.587   7.497   1.676  0.00  0.00    +0.013 A 
ATOM     19  C   UNL     1       2.427   7.558   2.454  0.00  0.00    -0.004 A 
ATOM     20  C   UNL     1       2.490   8.059   3.757  0.00  0.00    +0.013 A 
ATOM     21  C   UNL     1       3.695   8.482   4.272  0.00  0.00    +0.046 A 
BRANCH  16  22
ATOM     22  O   UNL     1       6.031   8.841   4.006  0.00  0.00    -0.492 OA
BRANCH  22  24
ATOM     23  C   UNL     1       7.435   9.762   5.744  0.00  0.00    +0.048 C 
ATOM     24  C   UNL     1       6.020   9.337   5.347  0.00  0.00    +0.225 C 
ENDBRANCH  22  24
ENDBRANCH  16  22
ENDBRANCH   1  19
BRANCH   5  25
ATOM     25  C   UNL     1      -2.508   6.635   2.838  0.00  0.00    -0.019 A 
ATOM     26  C   UNL     1      -3.405   7.493   2.233  0.00  0.00    +0.005 A 
ATOM     27  C   UNL     1      -4.608   7.785   2.849  0.00  0.00    +0.000 A 
ATOM     28  C   UNL     1      -4.917   7.218   4.072  0.00  0.00    +0.004 A 
ATOM     29  C   UNL     1      -4.023   6.358   4.681  0.00  0.00    +0.045 A 
ATOM     30  C   UNL     1      -2.817   6.061   4.063  0.00  0.00    +0.118 A 
BRANCH  30  31
ATOM     31  O   UNL     1      -1.938   5.212   4.658  0.00  0.00    -0.507 OA
ATOM     32  H   UNL     1      -2.185   4.757   5.629  0.00  0.00    +0.292 HD
ENDBRANCH  30  31
ENDBRANCH   5  25
TORSDOF 6
