REMARK  Name = ZINC22988782
REMARK  9 active torsions:
REMARK  status: ('A' for Active; 'I' for Inactive)
REMARK    1  A    between atoms: C_3  and  C_29
REMARK    2  A    between atoms: C_6  and  C_7
REMARK    3  A    between atoms: C_9  and  C_12
REMARK    4  A    between atoms: C_12  and  S_13
REMARK    5  A    between atoms: S_13  and  C_14
REMARK    6  A    between atoms: C_17  and  C_20
REMARK    7  A    between atoms: N_18  and  N_19
REMARK    8  A    between atoms: C_20  and  O_21
REMARK    9  A    between atoms: O_21  and  C_22
REMARK                            x       y       z     vdW  Elec       q    Type
REMARK                         _______ _______ _______ _____ _____    ______ ____
ROOT
ATOM      1  S   UNL     1       1.377   1.661  -2.862  0.00  0.00    -0.075 S 
ENDROOT
BRANCH   1   2
ATOM      2  C   UNL     1      -0.282   1.804  -2.288  0.00  0.00    +0.209 A 
ATOM      3  N   UNL     1      -1.313   2.232  -2.980  0.00  0.00    -0.121 NA
ATOM      4  N   UNL     1      -2.369   2.211  -2.248  0.00  0.00    -0.128 NA
ATOM      5  C   UNL     1      -2.079   1.768  -1.057  0.00  0.00    +0.189 A 
ATOM      6  N   UNL     1      -0.741   1.490  -1.041  0.00  0.00    -0.225 N 
BRANCH   6   7
ATOM      7  N   UNL     1      -0.012   1.005   0.008  0.00  0.00    -0.295 N 
ATOM      8  H   UNL     1      -0.504   0.791   0.968  0.00  0.00    +0.163 HD
ATOM      9  H   UNL     1       1.068   0.828  -0.108  0.00  0.00    +0.163 HD
ENDBRANCH   6   7
BRANCH   5  10
ATOM     10  C   UNL     1      -3.042   1.594   0.090  0.00  0.00    +0.306 C 
BRANCH  10  11
ATOM     11  O   UNL     1      -3.090   2.798   0.858  0.00  0.00    -0.484 OA
BRANCH  11  12
ATOM     12  C   UNL     1      -3.916   2.809   1.937  0.00  0.00    +0.121 A 
ATOM     13  C   UNL     1      -4.670   1.686   2.246  0.00  0.00    +0.048 A 
ATOM     14  C   UNL     1      -5.504   1.696   3.347  0.00  0.00    +0.042 A 
ATOM     15  C   UNL     1      -5.598   2.830   4.135  0.00  0.00    +0.124 A 
ATOM     16  C   UNL     1      -4.852   3.954   3.824  0.00  0.00    +0.042 A 
ATOM     17  C   UNL     1      -4.011   3.945   2.728  0.00  0.00    +0.048 A 
ATOM     18  F   UNL     1      -6.419   2.841   5.208  0.00  0.00    -0.205 F 
ENDBRANCH  11  12
ENDBRANCH  10  11
ENDBRANCH   5  10
ENDBRANCH   1   2
BRANCH   1  19
ATOM     19  C   UNL     1       1.175   2.253  -4.560  0.00  0.00    +0.176 C 
BRANCH  19  22
ATOM     20  C   UNL     1       4.203   1.634  -6.396  0.00  0.00    +0.202 A 
ATOM     21  N   UNL     1       3.000   1.212  -5.946  0.00  0.00    -0.191 NA
ATOM     22  C   UNL     1       2.506   2.217  -5.266  0.00  0.00    +0.238 A 
ATOM     23  O   UNL     1       3.408   3.203  -5.311  0.00  0.00    -0.337 OA
ATOM     24  N   UNL     1       4.372   2.856  -5.960  0.00  0.00    -0.056 NA
BRANCH  20  30
ATOM     25  C   UNL     1       4.844  -0.446  -7.613  0.00  0.00    +0.012 A 
ATOM     26  C   UNL     1       5.732  -1.164  -8.389  0.00  0.00    +0.013 A 
ATOM     27  C   UNL     1       6.935  -0.598  -8.771  0.00  0.00    +0.055 A 
ATOM     28  C   UNL     1       7.252   0.691  -8.384  0.00  0.00    +0.013 A 
ATOM     29  C   UNL     1       6.369   1.420  -7.613  0.00  0.00    +0.012 A 
ATOM     30  C   UNL     1       5.156   0.855  -7.225  0.00  0.00    +0.022 A 
BRANCH  27  31
ATOM     31  C   UNL     1       7.903  -1.389  -9.611  0.00  0.00    +0.417 C 
ATOM     32  F   UNL     1       8.771  -2.103  -8.777  0.00  0.00    -0.166 F 
ATOM     33  F   UNL     1       7.195  -2.284 -10.421  0.00  0.00    -0.166 F 
ATOM     34  F   UNL     1       8.643  -0.517 -10.416  0.00  0.00    -0.166 F 
ENDBRANCH  27  31
ENDBRANCH  20  30
ENDBRANCH  19  22
ENDBRANCH   1  19
TORSDOF 9
