REMARK  Name = ZINC28821547
REMARK  6 active torsions:
REMARK  status: ('A' for Active; 'I' for Inactive)
REMARK    1  A    between atoms: C_1  and  C_2
REMARK    2  A    between atoms: C_5  and  C_9
REMARK    3  A    between atoms: C_6  and  C_8
REMARK    4  A    between atoms: C_11  and  C_19
REMARK    5  A    between atoms: C_16  and  C_17
REMARK    6  A    between atoms: C_24  and  O_25
REMARK                            x       y       z     vdW  Elec       q    Type
REMARK                         _______ _______ _______ _____ _____    ______ ____
ROOT
ATOM      1  C   UNL     1      -0.029   5.644  -0.073  0.00  0.00    +0.007 A 
ATOM      2  C   UNL     1      -0.017   4.242  -0.081  0.00  0.00    +0.036 A 
ATOM      3  C   UNL     1       1.183   3.568   0.009  0.00  0.00    +0.053 A 
ATOM      4  N   UNL     1       2.365   4.248   0.111  0.00  0.00    -0.321 N 
ATOM      5  H   UNL     1       3.313   3.695   0.191  0.00  0.00    +0.169 HD
ATOM      6  C   UNL     1       2.397   5.593   0.116  0.00  0.00    +0.267 A 
ATOM      7  O   UNL     1       3.464   6.176   0.203  0.00  0.00    -0.266 OA
ATOM      8  C   UNL     1       1.194   6.334   0.026  0.00  0.00    +0.124 A 
ENDROOT
BRANCH   1  13
ATOM      9  C   UNL     1      -4.996   8.529  -0.447  0.00  0.00    +0.044 C 
ATOM     10  C   UNL     1      -3.696   7.773  -0.349  0.00  0.00    -0.050 A 
ATOM     11  C   UNL     1      -3.166   7.166  -1.474  0.00  0.00    +0.004 A 
ATOM     12  C   UNL     1      -1.973   6.478  -1.392  0.00  0.00    +0.009 A 
ATOM     13  C   UNL     1      -1.306   6.385  -0.169  0.00  0.00    -0.013 A 
ATOM     14  C   UNL     1      -1.847   7.000   0.961  0.00  0.00    -0.042 A 
ATOM     15  C   UNL     1      -3.038   7.689   0.865  0.00  0.00    +0.007 A 
ATOM     16  C   UNL     1      -1.131   6.910   2.284  0.00  0.00    +0.044 C 
ENDBRANCH   1  13
BRANCH   3  17
ATOM     17  C   UNL     1       1.191   2.094   0.002  0.00  0.00    +0.041 A 
ATOM     18  C   UNL     1       0.606   1.393  -1.056  0.00  0.00    +0.028 A 
ATOM     19  C   UNL     1       0.617   0.014  -1.057  0.00  0.00    +0.019 A 
ATOM     20  C   UNL     1       1.206  -0.680  -0.012  0.00  0.00    +0.019 A 
ATOM     21  C   UNL     1       1.787   0.000   1.040  0.00  0.00    +0.047 A 
ATOM     22  C   UNL     1       1.785   1.386   1.057  0.00  0.00    +0.126 A 
ATOM     23 BR   UNL     1      -0.176  -0.933  -2.489  0.00  0.00    -0.050 Br
BRANCH  22  24
ATOM     24  O   UNL     1       2.352   2.056   2.093  0.00  0.00    -0.506 OA
ATOM     25  H   UNL     1       2.817   1.499   2.919  0.00  0.00    +0.292 HD
ENDBRANCH  22  24
ENDBRANCH   3  17
BRANCH   8  26
ATOM     26  C   UNL     1       1.220   7.766   0.037  0.00  0.00    +0.105 C 
ATOM     27  N   UNL     1       1.241   8.902   0.046  0.00  0.00    -0.191 NA
ENDBRANCH   8  26
TORSDOF 4
