REMARK  Name = ZINC05130986
REMARK  9 active torsions:
REMARK  status: ('A' for Active; 'I' for Inactive)
REMARK    1  A    between atoms: C_1  and  C_2
REMARK    2  A    between atoms: C_2  and  C_4
REMARK    3  A    between atoms: C_2  and  N_19
REMARK    4  A    between atoms: N_6  and  N_7
REMARK    5  A    between atoms: C_8  and  C_9
REMARK    6  A    between atoms: C_13  and  C_16
REMARK    7  A    between atoms: C_14  and  O_15
REMARK    8  A    between atoms: C_16  and  C_17
REMARK    9  A    between atoms: N_19  and  C_20
REMARK                            x       y       z     vdW  Elec       q    Type
REMARK                         _______ _______ _______ _____ _____    ______ ____
ROOT
ATOM      1  C   UNL     1       4.982  -3.994  -0.071  0.00  0.00    +0.252 C 
ATOM      2  O   UNL     1       3.944  -4.621  -0.065  0.00  0.00    -0.272 OA
ATOM      3  N   UNL     1       4.955  -2.646  -0.063  0.00  0.00    -0.205 N 
ATOM      4  H   UNL     1       5.785  -2.144  -0.068  0.00  0.00    +0.177 HD
ENDROOT
BRANCH   1   6
ATOM      5  C   UNL     1       7.109  -4.343   1.155  0.00  0.00    +0.038 C 
ATOM      6  C   UNL     1       6.302  -4.721  -0.089  0.00  0.00    +0.155 C 
BRANCH   6   7
ATOM      7  N   UNL     1       6.063  -6.166  -0.095  0.00  0.00    -0.333 N 
ATOM      8  H   UNL     1       5.237  -6.523   0.266  0.00  0.00    +0.147 HD
BRANCH   7   9
ATOM      9  C   UNL     1       7.024  -7.029  -0.620  0.00  0.00    +0.035 A 
ATOM     10  C   UNL     1       8.201  -6.529  -1.135  0.00  0.00    +0.023 A 
ATOM     11  C   UNL     1       9.166  -7.381  -1.661  0.00  0.00    +0.002 A 
ATOM     12  C   UNL     1       8.976  -8.730  -1.683  0.00  0.00    +0.008 A 
ATOM     13  C   UNL     1       7.790  -9.280  -1.168  0.00  0.00    -0.016 A 
ATOM     14  C   UNL     1       6.803  -8.422  -0.624  0.00  0.00    +0.003 A 
ATOM     15  C   UNL     1       5.616  -8.973  -0.116  0.00  0.00    +0.010 A 
ATOM     16  C   UNL     1       5.434 -10.322  -0.141  0.00  0.00    +0.001 A 
ATOM     17  C   UNL     1       6.407 -11.167  -0.671  0.00  0.00    +0.001 A 
ATOM     18  C   UNL     1       7.567 -10.668  -1.178  0.00  0.00    +0.008 A 
ENDBRANCH   7   9
ENDBRANCH   6   7
ENDBRANCH   1   6
BRANCH   3  19
ATOM     19  N   UNL     1       3.728  -1.970  -0.047  0.00  0.00    -0.188 NA
ATOM     20  C   UNL     1       3.702  -0.672  -0.038  0.00  0.00    +0.142 C 
BRANCH  20  21
ATOM     21  C   UNL     1       2.412   0.039  -0.021  0.00  0.00    +0.036 A 
ATOM     22  C   UNL     1       2.379   1.435  -0.013  0.00  0.00    +0.013 A 
ATOM     23  C   UNL     1       1.168   2.094   0.002  0.00  0.00    +0.001 A 
ATOM     24  C   UNL     1      -0.017   1.378   0.010  0.00  0.00    +0.007 A 
ATOM     25  C   UNL     1       0.002  -0.004   0.002  0.00  0.00    -0.002 A 
ATOM     26  C   UNL     1       1.210  -0.682  -0.014  0.00  0.00    +0.129 A 
BRANCH  26  27
ATOM     27  O   UNL     1       1.229  -2.040  -0.021  0.00  0.00    -0.506 OA
ATOM     28  H   UNL     1       1.226  -2.429  -0.907  0.00  0.00    +0.292 HD
ENDBRANCH  26  27
BRANCH  25  29
ATOM     29  C   UNL     1      -1.293  -0.774   0.010  0.00  0.00    +0.065 C 
BRANCH  29  30
ATOM     30  C   UNL     1      -1.648  -1.145   1.427  0.00  0.00    -0.030 C 
ATOM     31  C   UNL     1      -2.814  -0.807   1.920  0.00  0.00    +0.004 C 
ENDBRANCH  29  30
ENDBRANCH  25  29
ENDBRANCH  20  21
ENDBRANCH   3  19
TORSDOF 8
