REMARK  Name = ZINC50831680
REMARK  4 active torsions:
REMARK  status: ('A' for Active; 'I' for Inactive)
REMARK    1  A    between atoms: C_1  and  C_2
REMARK    2  A    between atoms: C_8  and  O_10
REMARK    3  A    between atoms: O_10  and  C_11
REMARK    4  A    between atoms: C_11  and  C_12
REMARK                            x       y       z     vdW  Elec       q    Type
REMARK                         _______ _______ _______ _____ _____    ______ ____
ROOT
ATOM      1  C   UNL     1       0.131   0.633   4.715  0.00  0.00    +0.158 A 
ATOM      2  N   UNL     1      -0.045   1.931   4.888  0.00  0.00    -0.215 NA
ATOM      3  C   UNL     1      -0.743   2.418   5.901  0.00  0.00    +0.128 A 
ATOM      4  C   UNL     1      -1.325   1.520   6.838  0.00  0.00    +0.047 A 
ATOM      5  C   UNL     1      -2.124   1.798   8.018  0.00  0.00    +0.021 A 
ATOM      6  C   UNL     1      -2.572   0.775   8.762  0.00  0.00    +0.048 A 
ATOM      7  S   UNL     1      -1.941  -0.662   7.916  0.00  0.00    -0.077 S 
ATOM      8  C   UNL     1      -1.093   0.149   6.587  0.00  0.00    +0.114 A 
ATOM      9  N   UNL     1      -0.388  -0.249   5.547  0.00  0.00    -0.222 NA
ATOM     10  N   UNL     1      -0.904   3.784   6.048  0.00  0.00    -0.343 N 
ATOM     11  H   UNL     1      -0.504   4.391   5.406  0.00  0.00    +0.144 HD
ATOM     12  H   UNL     1      -1.416   4.134   6.793  0.00  0.00    +0.144 HD
ENDROOT
BRANCH   1  13
ATOM     13  C   UNL     1       0.938   0.149   3.537  0.00  0.00    +0.236 C 
BRANCH  13  14
ATOM     14  O   UNL     1       0.073  -0.050   2.417  0.00  0.00    -0.369 OA
BRANCH  14  21
ATOM     15  C   UNL     1      -0.019   1.526   0.010  0.00  0.00    +0.010 C 
ATOM     16  C   UNL     1       0.002  -0.004   0.002  0.00  0.00    +0.015 C 
ATOM     17  C   UNL     1       0.718  -0.497  -1.257  0.00  0.00    +0.006 C 
ATOM     18  C   UNL     1       0.739  -2.027  -1.265  0.00  0.00    +0.000 C 
ATOM     19  C   UNL     1       1.479  -2.534  -0.026  0.00  0.00    +0.003 C 
ATOM     20  C   UNL     1       0.763  -2.041   1.233  0.00  0.00    +0.032 C 
ATOM     21  C   UNL     1       0.742  -0.511   1.242  0.00  0.00    +0.122 C 
ENDBRANCH  14  21
ENDBRANCH  13  14
ENDBRANCH   1  13
TORSDOF 3
