REMARK  Name = ZINC16097252
REMARK  7 active torsions:
REMARK  status: ('A' for Active; 'I' for Inactive)
REMARK    1  A    between atoms: C_1  and  C_2
REMARK    2  A    between atoms: C_7  and  N_8
REMARK    3  A    between atoms: C_11  and  C_16
REMARK    4  A    between atoms: C_16  and  N_17
REMARK    5  A    between atoms: C_22  and  C_29
REMARK    6  A    between atoms: C_25  and  C_27
REMARK    7  A    between atoms: C_25  and  C_28
REMARK                            x       y       z     vdW  Elec       q    Type
REMARK                         _______ _______ _______ _____ _____    ______ ____
ROOT
ATOM      1  N   UNL     1      -0.734   2.250   5.669  0.00  0.00    -0.283 N 
ATOM      2  C   UNL     1      -1.413   2.056   4.482  0.00  0.00    +0.224 A 
ATOM      3  N   UNL     1      -0.747   2.027   3.330  0.00  0.00    -0.198 NA
ATOM      4  C   UNL     1      -1.396   1.841   2.194  0.00  0.00    +0.154 A 
ATOM      5  N   UNL     1      -2.708   1.688   2.196  0.00  0.00    -0.198 NA
ATOM      6  C   UNL     1      -3.381   1.710   3.344  0.00  0.00    +0.217 A 
ATOM      7  N   UNL     1      -2.732   1.897   4.488  0.00  0.00    -0.181 NA
ATOM      8  N   UNL     1      -4.751   1.545   3.345  0.00  0.00    -0.327 N 
ATOM      9  H   UNL     1       0.365   2.282   5.675  0.00  0.00    +0.155 HD
ATOM     10  H   UNL     1      -5.306   1.564   4.295  0.00  0.00    +0.145 HD
ATOM     11  H   UNL     1      -5.288   1.395   2.397  0.00  0.00    +0.145 HD
ENDROOT
BRANCH   1  18
ATOM     12  C   UNL     1       0.516   1.436   8.091  0.00  0.00    +0.045 C 
ATOM     13  C   UNL     1      -0.872   2.022   8.069  0.00  0.00    -0.029 A 
ATOM     14  C   UNL     1      -1.575   2.182   9.247  0.00  0.00    +0.005 A 
ATOM     15  C   UNL     1      -2.850   2.715   9.226  0.00  0.00    +0.000 A 
ATOM     16  C   UNL     1      -3.425   3.093   8.027  0.00  0.00    +0.002 A 
ATOM     17  C   UNL     1      -2.727   2.941   6.846  0.00  0.00    +0.023 A 
ATOM     18  C   UNL     1      -1.445   2.406   6.863  0.00  0.00    +0.036 A 
ENDBRANCH   1  18
BRANCH   4  19
ATOM     19  C   UNL     1      -0.637   1.810   0.892  0.00  0.00    +0.194 C 
BRANCH  19  20
ATOM     20  N   UNL     1      -0.226   0.434   0.599  0.00  0.00    -0.217 N 
ATOM     21  C   UNL     1       0.944  -0.108   0.995  0.00  0.00    +0.247 C 
ATOM     22  O   UNL     1       1.821   0.428   1.637  0.00  0.00    -0.273 OA
ATOM     23  C   UNL     1       0.929  -1.526   0.473  0.00  0.00    +0.113 C 
ATOM     24  C   UNL     1       0.995  -2.523   1.625  0.00  0.00    +0.038 C 
ATOM     25  C   UNL     1       0.946  -3.949   1.071  0.00  0.00    -0.011 C 
ATOM     26  C   UNL     1       2.123  -4.166   0.117  0.00  0.00    +0.009 C 
ATOM     27  C   UNL     1       2.031  -3.173  -1.044  0.00  0.00    -0.032 C 
ATOM     28  C   UNL     1       2.085  -1.744  -0.497  0.00  0.00    +0.041 C 
ATOM     29  C   UNL     1       0.714  -3.384  -1.792  0.00  0.00    +0.011 C 
ATOM     30  C   UNL     1       3.204  -3.398  -2.000  0.00  0.00    +0.011 C 
ATOM     31  C   UNL     1       1.034  -4.949   2.225  0.00  0.00    +0.007 C 
ATOM     32  N   UNL     1      -0.357  -1.635  -0.228  0.00  0.00    -0.285 N 
ATOM     33  C   UNL     1      -0.963  -0.439  -0.100  0.00  0.00    +0.310 C 
ATOM     34  O   UNL     1      -2.055  -0.181  -0.566  0.00  0.00    -0.252 OA
ATOM     35  H   UNL     1      -0.638  -2.579  -0.718  0.00  0.00    +0.151 HD
ENDBRANCH  19  20
ENDBRANCH   4  19
TORSDOF 3
