REMARK  Name = ZINC09012098
REMARK  1 active torsions:
REMARK  status: ('A' for Active; 'I' for Inactive)
REMARK    1  A    between atoms: C_6  and  N_11
REMARK                            x       y       z     vdW  Elec       q    Type
REMARK                         _______ _______ _______ _____ _____    ______ ____
ROOT
ATOM      1  N   UNL     1      -2.228   0.920   0.193  0.00  0.00    -0.210 N 
ATOM      2  C   UNL     1      -1.733   0.655   1.444  0.00  0.00    +0.228 C 
ATOM      3  O   UNL     1      -2.239  -0.025   2.311  0.00  0.00    -0.275 OA
ATOM      4  C   UNL     1      -0.419   1.396   1.504  0.00  0.00    +0.074 C 
ATOM      5  C   UNL     1       0.771   0.771   2.226  0.00  0.00    -0.054 C 
ATOM      6  C   UNL     1       0.440  -0.644   2.725  0.00  0.00    -0.016 C 
ATOM      7  C   UNL     1       1.552  -1.546   2.145  0.00  0.00    -0.020 C 
ATOM      8  C   UNL     1       1.967  -0.786   0.858  0.00  0.00    -0.076 C 
ATOM      9  C   UNL     1       1.418   1.383  -0.004  0.00  0.00    +0.053 C 
ATOM     10  C   UNL     1      -0.013   1.086   0.008  0.00  0.00    +0.089 C 
ATOM     11  C   UNL     1      -1.257   1.344  -0.670  0.00  0.00    +0.229 C 
ATOM     12  O   UNL     1      -1.414   1.829  -1.770  0.00  0.00    -0.275 OA
ATOM     13  C   UNL     1       1.793   2.833   0.090  0.00  0.00    -0.027 A 
ATOM     14  C   UNL     1       1.448   3.852   0.949  0.00  0.00    +0.004 A 
ATOM     15  C   UNL     1       1.972   5.120   0.771  0.00  0.00    +0.000 A 
ATOM     16  C   UNL     1       2.844   5.364  -0.274  0.00  0.00    +0.002 A 
ATOM     17  C   UNL     1       3.194   4.348  -1.137  0.00  0.00    +0.023 A 
ATOM     18  C   UNL     1       2.670   3.069  -0.966  0.00  0.00    +0.036 A 
ATOM     19  N   UNL     1       2.869   1.898  -1.701  0.00  0.00    -0.286 N 
ATOM     20  C   UNL     1       2.170   0.862  -1.202  0.00  0.00    +0.212 C 
ATOM     21  O   UNL     1       2.150  -0.272  -1.632  0.00  0.00    -0.277 OA
ATOM     22  H   UNL     1       3.445   1.838  -2.480  0.00  0.00    +0.155 HD
ATOM     23  N   UNL     1       1.834   0.633   1.205  0.00  0.00    +0.395 N 
ATOM     24  H   UNL     1       2.724   0.998   1.563  0.00  0.00    -0.079 HD
ENDROOT
BRANCH   1  30
ATOM     25  C   UNL     1      -8.488  -0.070  -0.312  0.00  0.00    +0.001 A 
ATOM     26  C   UNL     1      -8.083  -0.366   0.988  0.00  0.00    +0.001 A 
ATOM     27  C   UNL     1      -6.781  -0.237   1.363  0.00  0.00    +0.008 A 
ATOM     28  C   UNL     1      -5.828   0.202   0.427  0.00  0.00    -0.016 A 
ATOM     29  C   UNL     1      -4.475   0.342   0.776  0.00  0.00    +0.032 A 
ATOM     30  C   UNL     1      -3.577   0.776  -0.158  0.00  0.00    +0.044 A 
ATOM     31  C   UNL     1      -3.987   1.073  -1.463  0.00  0.00    +0.024 A 
ATOM     32  C   UNL     1      -5.289   0.943  -1.833  0.00  0.00    +0.010 A 
ATOM     33  C   UNL     1      -6.240   0.503  -0.895  0.00  0.00    -0.018 A 
ATOM     34  C   UNL     1      -7.593   0.357  -1.245  0.00  0.00    +0.008 A 
ENDBRANCH   1  30
TORSDOF 1
