REMARK  Name = ZINC45928249
REMARK  11 active torsions:
REMARK  status: ('A' for Active; 'I' for Inactive)
REMARK    1  A    between atoms: C_1  and  O_2
REMARK    2  A    between atoms: O_2  and  C_3
REMARK    3  A    between atoms: C_6  and  C_9
REMARK    4  A    between atoms: C_10  and  O_34
REMARK    5  A    between atoms: N_13  and  C_23
REMARK    6  A    between atoms: C_14  and  C_16
REMARK    7  A    between atoms: C_23  and  C_24
REMARK    8  A    between atoms: C_27  and  O_32
REMARK    9  A    between atoms: C_29  and  O_30
REMARK   10  A    between atoms: O_30  and  C_31
REMARK   11  A    between atoms: O_32  and  C_33
REMARK                            x       y       z     vdW  Elec       q    Type
REMARK                         _______ _______ _______ _____ _____    ______ ____
ROOT
ATOM      1  C   UNL     1      -5.183  -2.486  -0.272  0.00  0.00    +0.031 C 
ATOM      2  C   UNL     1      -6.178  -2.566  -1.183  0.00  0.00    +0.185 C 
ATOM      3  C   UNL     1      -7.222  -3.463  -0.687  0.00  0.00    +0.282 C 
ATOM      4  O   UNL     1      -8.247  -3.736  -1.283  0.00  0.00    -0.267 OA
ATOM      5  N   UNL     1      -6.886  -3.943   0.525  0.00  0.00    -0.279 N 
ATOM      6  C   UNL     1      -5.580  -3.376   0.883  0.00  0.00    +0.142 C 
ENDROOT
BRANCH   6   7
ATOM      7  C   UNL     1      -4.565  -4.476   1.063  0.00  0.00    -0.021 A 
ATOM      8  C   UNL     1      -4.517  -5.526   0.166  0.00  0.00    +0.006 A 
ATOM      9  C   UNL     1      -3.587  -6.535   0.330  0.00  0.00    +0.001 A 
ATOM     10  C   UNL     1      -2.704  -6.495   1.393  0.00  0.00    +0.015 A 
ATOM     11  C   UNL     1      -2.752  -5.445   2.292  0.00  0.00    +0.018 A 
ATOM     12  C   UNL     1      -3.679  -4.432   2.123  0.00  0.00    +0.021 A 
ATOM     13 BR   UNL     1      -1.545  -5.389   3.746  0.00  0.00    -0.050 Br
ENDBRANCH   6   7
BRANCH   1  17
ATOM     14  C   UNL     1      -1.627  -0.196  -0.599  0.00  0.00    +0.120 A 
ATOM     15  C   UNL     1      -2.858   0.444  -0.522  0.00  0.00    +0.046 A 
ATOM     16  C   UNL     1      -4.016  -0.295  -0.416  0.00  0.00    +0.012 A 
ATOM     17  C   UNL     1      -3.950  -1.692  -0.386  0.00  0.00    -0.016 A 
ATOM     18  C   UNL     1      -2.708  -2.332  -0.463  0.00  0.00    +0.012 A 
ATOM     19  C   UNL     1      -1.557  -1.584  -0.575  0.00  0.00    +0.046 A 
BRANCH  14  21
ATOM     20  C   UNL     1      -0.632   1.959  -0.723  0.00  0.00    +0.277 C 
ATOM     21  O   UNL     1      -0.489   0.537  -0.704  0.00  0.00    -0.495 OA
ENDBRANCH  14  21
ENDBRANCH   1  17
BRANCH   2  22
ATOM     22  O   UNL     1      -6.206  -1.913  -2.376  0.00  0.00    -0.502 OA
ATOM     23  H   UNL     1      -6.998  -2.088  -2.902  0.00  0.00    +0.292 HD
ENDBRANCH   2  22
BRANCH   5  24
ATOM     24  C   UNL     1      -7.679  -4.868   1.338  0.00  0.00    +0.148 C 
BRANCH  24  25
ATOM     25  C   UNL     1      -8.497  -4.087   2.333  0.00  0.00    +0.012 A 
ATOM     26  C   UNL     1      -8.070  -3.976   3.643  0.00  0.00    +0.012 A 
ATOM     27  C   UNL     1      -8.818  -3.261   4.558  0.00  0.00    +0.046 A 
ATOM     28  C   UNL     1     -10.001  -2.651   4.163  0.00  0.00    +0.124 A 
ATOM     29  C   UNL     1     -10.432  -2.761   2.850  0.00  0.00    +0.091 A 
ATOM     30  C   UNL     1      -9.676  -3.475   1.933  0.00  0.00    +0.128 A 
BRANCH  30  31
ATOM     31  O   UNL     1     -10.093  -3.579   0.643  0.00  0.00    -0.495 OA
ATOM     32  C   UNL     1     -11.372  -3.025   0.328  0.00  0.00    +0.277 C 
ENDBRANCH  30  31
BRANCH  28  33
ATOM     33  O   UNL     1     -10.737  -1.948   5.064  0.00  0.00    -0.495 OA
ATOM     34  C   UNL     1     -10.233  -1.877   6.399  0.00  0.00    +0.277 C 
ENDBRANCH  28  33
ENDBRANCH  24  25
ENDBRANCH   5  24
TORSDOF 8
