REMARK  Name = ZINC36760988
REMARK  8 active torsions:
REMARK  status: ('A' for Active; 'I' for Inactive)
REMARK    1  A    between atoms: C_1  and  C_2
REMARK    2  A    between atoms: C_2  and  C_3
REMARK    3  A    between atoms: C_3  and  C_5
REMARK    4  A    between atoms: C_3  and  N_15
REMARK    5  A    between atoms: C_16  and  C_18
REMARK    6  A    between atoms: C_21  and  C_24
REMARK    7  A    between atoms: C_24  and  N_25
REMARK    8  A    between atoms: C_26  and  C_28
REMARK                            x       y       z     vdW  Elec       q    Type
REMARK                         _______ _______ _______ _____ _____    ______ ____
ROOT
ATOM      1  N   UNL     1      -0.055  -0.114  -2.441  0.00  0.00    -0.308 N 
ATOM      2  C   UNL     1       0.107   1.109  -2.984  0.00  0.00    +0.244 C 
ATOM      3  O   UNL     1       0.895   1.893  -2.492  0.00  0.00    -0.270 OA
ATOM      4  H   UNL     1      -0.683  -0.740  -2.833  0.00  0.00    +0.149 HD
ENDROOT
BRANCH   2   5
ATOM      5  C   UNL     1      -0.673   1.496  -4.179  0.00  0.00    +0.037 A 
ATOM      6  C   UNL     1      -1.583   0.600  -4.743  0.00  0.00    +0.013 A 
ATOM      7  C   UNL     1      -2.308   0.967  -5.857  0.00  0.00    +0.006 A 
ATOM      8  C   UNL     1      -2.135   2.221  -6.416  0.00  0.00    -0.030 A 
ATOM      9  C   UNL     1      -1.235   3.114  -5.862  0.00  0.00    +0.006 A 
ATOM     10  C   UNL     1      -0.508   2.761  -4.744  0.00  0.00    +0.013 A 
BRANCH   8  11
ATOM     11  C   UNL     1      -2.930   2.616  -7.634  0.00  0.00    +0.139 C 
BRANCH  11  12
ATOM     12  N   UNL     1      -4.186   3.244  -7.215  0.00  0.00    -0.311 N 
ATOM     13  C   UNL     1      -5.063   3.680  -8.140  0.00  0.00    +0.210 C 
ATOM     14  O   UNL     1      -4.813   3.553  -9.320  0.00  0.00    -0.276 OA
ATOM     15  C   UNL     1      -6.354   4.326  -7.709  0.00  0.00    +0.109 C 
ATOM     16  H   UNL     1      -4.386   3.346  -6.271  0.00  0.00    +0.149 HD
ENDBRANCH  11  12
ENDBRANCH   8  11
ENDBRANCH   2   5
BRANCH   1  17
ATOM     17  C   UNL     1       0.718  -0.497  -1.257  0.00  0.00    +0.079 C 
BRANCH  17  18
ATOM     18  C   UNL     1       0.849  -2.021  -1.205  0.00  0.00    -0.010 C 
ATOM     19  C   UNL     1      -0.543  -2.650  -1.131  0.00  0.00    +0.012 C 
ATOM     20  C   UNL     1      -0.412  -4.174  -1.079  0.00  0.00    -0.010 C 
ATOM     21  C   UNL     1       0.304  -4.667  -2.337  0.00  0.00    +0.007 C 
ATOM     22  C   UNL     1       1.696  -4.038  -2.412  0.00  0.00    -0.010 C 
ATOM     23  C   UNL     1       1.565  -2.514  -2.464  0.00  0.00    +0.012 C 
ATOM     24  C   UNL     1       2.504  -4.439  -1.176  0.00  0.00    +0.007 C 
ATOM     25  C   UNL     1       1.788  -3.945   0.083  0.00  0.00    -0.010 C 
ATOM     26  C   UNL     1       0.395  -4.575   0.158  0.00  0.00    +0.007 C 
ATOM     27  C   UNL     1       1.657  -2.422   0.031  0.00  0.00    +0.012 C 
ENDBRANCH  17  18
BRANCH  17  29
ATOM     28  C   UNL     1      -0.019   1.526   0.010  0.00  0.00    +0.006 C 
ATOM     29  C   UNL     1       0.002  -0.004   0.002  0.00  0.00    +0.019 C 
ENDBRANCH  17  29
ENDBRANCH   1  17
TORSDOF 6
