REMARK  Name = ZINC03843771
REMARK  6 active torsions:
REMARK  status: ('A' for Active; 'I' for Inactive)
REMARK    1  A    between atoms: C_1  and  C_2
REMARK    2  A    between atoms: C_2  and  C_3
REMARK    3  A    between atoms: C_3  and  O_4
REMARK    4  A    between atoms: O_4  and  C_5
REMARK    5  A    between atoms: C_11  and  C_31
REMARK    6  A    between atoms: C_21  and  C_30
REMARK                            x       y       z     vdW  Elec       q    Type
REMARK                         _______ _______ _______ _____ _____    ______ ____
ROOT
ATOM      1  C   UNL     1      -4.090   3.936   5.968  0.00  0.00    +0.124 C 
ATOM      2  C   UNL     1      -2.642   4.393   6.298  0.00  0.00    +0.032 C 
ATOM      3  C   UNL     1      -1.813   4.125   5.013  0.00  0.00    +0.007 C 
ATOM      4  C   UNL     1      -2.844   3.613   4.002  0.00  0.00    +0.001 C 
ATOM      5  C   UNL     1      -3.837   2.838   4.896  0.00  0.00    -0.003 C 
ATOM      6  C   UNL     1      -5.080   2.465   4.124  0.00  0.00    +0.010 C 
ATOM      7  C   UNL     1      -4.739   2.123   2.666  0.00  0.00    +0.005 C 
ATOM      8  C   UNL     1      -3.298   1.647   2.542  0.00  0.00    +0.003 C 
ATOM      9  C   UNL     1      -2.345   2.815   2.841  0.00  0.00    +0.000 C 
ATOM     10  C   UNL     1      -0.949   2.220   3.026  0.00  0.00    +0.031 C 
ATOM     11  C   UNL     1      -0.601   1.509   1.743  0.00  0.00    -0.027 C 
ATOM     12  C   UNL     1      -1.491   1.031   0.928  0.00  0.00    -0.062 C 
ATOM     13  C   UNL     1      -2.981   1.089   1.161  0.00  0.00    -0.008 C 
ATOM     14  C   UNL     1      -3.627   1.901   0.047  0.00  0.00    +0.016 C 
ATOM     15  C   UNL     1      -2.627   2.143  -1.085  0.00  0.00    +0.066 C 
ATOM     16  C   UNL     1      -1.916   0.857  -1.495  0.00  0.00    +0.174 C 
ATOM     17  C   UNL     1      -1.028   0.352  -0.350  0.00  0.00    +0.096 C 
ATOM     18  O   UNL     1      -2.882  -0.151  -1.827  0.00  0.00    -0.346 OA
ATOM     19  C   UNL     1      -2.914  -0.213  -3.271  0.00  0.00    +0.191 C 
ATOM     20  C   UNL     1      -1.447   0.126  -3.638  0.00  0.00    +0.191 C 
ATOM     21  O   UNL     1      -1.094   1.110  -2.644  0.00  0.00    -0.346 OA
ATOM     22  C   UNL     1      -3.532  -0.343   1.111  0.00  0.00    +0.016 C 
ATOM     23  C   UNL     1      -3.212   1.629   5.598  0.00  0.00    +0.014 C 
ENDROOT
BRANCH   1  24
ATOM     24  O   UNL     1      -4.724   3.370   7.114  0.00  0.00    -0.376 OA
BRANCH  24  25
ATOM     25  C   UNL     1      -5.458   4.313   7.897  0.00  0.00    +0.160 C 
BRANCH  25  27
ATOM     26  C   UNL     1      -6.877   4.609   9.932  0.00  0.00    +0.006 C 
ATOM     27  C   UNL     1      -6.092   3.599   9.093  0.00  0.00    +0.025 C 
ENDBRANCH  25  27
ENDBRANCH  24  25
ENDBRANCH   1  24
TORSDOF 3
