REMARK  Name = ZINC15226678
REMARK  17 active torsions:
REMARK  status: ('A' for Active; 'I' for Inactive)
REMARK    1  A    between atoms: C_1  and  C_2
REMARK    2  A    between atoms: C_2  and  O_40
REMARK    3  A    between atoms: N_4  and  C_32
REMARK    4  A    between atoms: C_5  and  C_22
REMARK    5  A    between atoms: N_9  and  C_10
REMARK    6  A    between atoms: C_10  and  C_11
REMARK    7  A    between atoms: C_11  and  C_12
REMARK    8  A    between atoms: C_15  and  O_20
REMARK    9  A    between atoms: C_16  and  O_18
REMARK   10  A    between atoms: O_18  and  C_19
REMARK   11  A    between atoms: O_20  and  C_21
REMARK   12  A    between atoms: C_25  and  O_30
REMARK   13  A    between atoms: C_26  and  O_28
REMARK   14  A    between atoms: O_28  and  C_29
REMARK   15  A    between atoms: O_30  and  C_31
REMARK   16  A    between atoms: C_32  and  C_33
REMARK   17  A    between atoms: C_33  and  C_34
REMARK                            x       y       z     vdW  Elec       q    Type
REMARK                         _______ _______ _______ _____ _____    ______ ____
ROOT
ATOM      1  C   UNL     1      -0.135   1.506   0.058  0.00  0.00    +0.046 C 
ATOM      2  C   UNL     1       0.066  -0.009  -0.026  0.00  0.00    +0.086 C 
ATOM      3  C   UNL     1       0.877  -0.354  -1.280  0.00  0.00    -0.037 C 
ATOM      4  N   UNL     1       1.184  -1.789  -1.284  0.00  0.00    +0.387 N 
ATOM      5  C   UNL     1       2.098  -2.115  -0.182  0.00  0.00    -0.032 C 
ATOM      6  C   UNL     1       1.380  -1.904   1.156  0.00  0.00    +0.042 C 
ATOM      7  C   UNL     1       0.838  -0.490   1.185  0.00  0.00    +0.041 C 
ATOM      8  N   UNL     1       1.027   0.271   2.196  0.00  0.00    -0.289 NA
ATOM      9  H   UNL     1       0.330  -2.314  -1.176  0.00  0.00    -0.081 HD
ENDROOT
BRANCH   5  10
ATOM     10  C   UNL     1       2.532  -3.553  -0.298  0.00  0.00    -0.057 A 
ATOM     11  C   UNL     1       1.621  -4.520  -0.680  0.00  0.00    +0.006 A 
ATOM     12  C   UNL     1       2.015  -5.841  -0.788  0.00  0.00    +0.049 A 
ATOM     13  C   UNL     1       3.325  -6.198  -0.514  0.00  0.00    +0.161 A 
ATOM     14  C   UNL     1       4.242  -5.224  -0.130  0.00  0.00    +0.162 A 
ATOM     15  C   UNL     1       3.842  -3.902  -0.029  0.00  0.00    +0.051 A 
BRANCH  14  16
ATOM     16  O   UNL     1       5.530  -5.570   0.140  0.00  0.00    -0.491 OA
ATOM     17  C   UNL     1       6.416  -4.518   0.528  0.00  0.00    +0.277 C 
ENDBRANCH  14  16
BRANCH  13  18
ATOM     18  O   UNL     1       3.714  -7.497  -0.619  0.00  0.00    -0.491 OA
ATOM     19  C   UNL     1       2.719  -8.442  -1.018  0.00  0.00    +0.277 C 
ENDBRANCH  13  18
ENDBRANCH   5  10
BRANCH   2  20
ATOM     20  O   UNL     1      -1.205  -0.661  -0.078  0.00  0.00    -0.385 OA
ATOM     21  H   UNL     1      -1.765  -0.492   0.692  0.00  0.00    +0.211 HD
ENDBRANCH   2  20
BRANCH   8  22
ATOM     22  C   UNL     1       1.636  -0.267   3.414  0.00  0.00    +0.146 C 
BRANCH  22  23
ATOM     23  C   UNL     1       3.002   0.387   3.633  0.00  0.00    +0.058 C 
BRANCH  23  24
ATOM     24  C   UNL     1       3.629  -0.167   4.887  0.00  0.00    -0.042 A 
ATOM     25  C   UNL     1       3.392   0.444   6.104  0.00  0.00    +0.007 A 
ATOM     26  C   UNL     1       3.965  -0.060   7.257  0.00  0.00    +0.049 A 
ATOM     27  C   UNL     1       4.778  -1.181   7.194  0.00  0.00    +0.161 A 
ATOM     28  C   UNL     1       5.015  -1.796   5.969  0.00  0.00    +0.162 A 
ATOM     29  C   UNL     1       4.434  -1.288   4.818  0.00  0.00    +0.053 A 
BRANCH  28  30
ATOM     30  O   UNL     1       5.812  -2.896   5.902  0.00  0.00    -0.491 OA
ATOM     31  C   UNL     1       6.012  -3.475   4.611  0.00  0.00    +0.277 C 
ENDBRANCH  28  30
BRANCH  27  32
ATOM     32  O   UNL     1       5.342  -1.678   8.327  0.00  0.00    -0.491 OA
ATOM     33  C   UNL     1       5.054  -0.994   9.549  0.00  0.00    +0.277 C 
ENDBRANCH  27  32
ENDBRANCH  23  24
ENDBRANCH  22  23
ENDBRANCH   8  22
BRANCH   4  34
ATOM     34  C   UNL     1       1.815  -2.148  -2.561  0.00  0.00    -0.073 C 
BRANCH  34  35
ATOM     35  C   UNL     1       0.813  -1.944  -3.700  0.00  0.00    +0.016 C 
BRANCH  35  36
ATOM     36  C   UNL     1       1.460  -2.312  -5.010  0.00  0.00    -0.049 A 
ATOM     37  C   UNL     1       2.140  -1.354  -5.739  0.00  0.00    +0.003 A 
ATOM     38  C   UNL     1       2.733  -1.692  -6.941  0.00  0.00    +0.000 A 
ATOM     39  C   UNL     1       2.647  -2.988  -7.414  0.00  0.00    +0.000 A 
ATOM     40  C   UNL     1       1.968  -3.947  -6.684  0.00  0.00    +0.000 A 
ATOM     41  C   UNL     1       1.379  -3.610  -5.481  0.00  0.00    +0.003 A 
ENDBRANCH  35  36
ENDBRANCH  34  35
ENDBRANCH   4  34
TORSDOF 12
