REMARK  Name = ZINC05210940
REMARK  8 active torsions:
REMARK  status: ('A' for Active; 'I' for Inactive)
REMARK    1  A    between atoms: C_1  and  C_2
REMARK    2  A    between atoms: C_5  and  C_8
REMARK    3  A    between atoms: C_11  and  S_14
REMARK    4  A    between atoms: S_14  and  C_15
REMARK    5  A    between atoms: C_15  and  C_16
REMARK    6  A    between atoms: C_15  and  C_17
REMARK    7  A    between atoms: N_19  and  C_20
REMARK    8  A    between atoms: C_25  and  C_26
REMARK                            x       y       z     vdW  Elec       q    Type
REMARK                         _______ _______ _______ _____ _____    ______ ____
ROOT
ATOM      1  C   UNL     1       0.099  -6.967   3.433  0.00  0.00    +0.137 C 
ATOM      2  C   UNL     1       1.393  -6.177   3.640  0.00  0.00    +0.029 C 
ENDROOT
BRANCH   1   3
ATOM      3  C   UNL     1       0.006  -8.059   4.468  0.00  0.00    +0.230 C 
ATOM      4  O   UNL     1       0.391  -9.179   4.205  0.00  0.00    -0.274 OA
ATOM      5  N   UNL     1      -0.505  -7.791   5.686  0.00  0.00    -0.284 N 
ATOM      6  H   UNL     1      -0.739  -6.880   5.924  0.00  0.00    +0.155 HD
BRANCH   5   7
ATOM      7  C   UNL     1      -0.698  -8.825   6.605  0.00  0.00    +0.041 A 
ATOM      8  C   UNL     1      -0.871 -10.128   6.162  0.00  0.00    +0.024 A 
ATOM      9  C   UNL     1      -1.062 -11.149   7.072  0.00  0.00    +0.002 A 
ATOM     10  C   UNL     1      -1.083 -10.880   8.430  0.00  0.00    +0.001 A 
ATOM     11  C   UNL     1      -0.912  -9.588   8.886  0.00  0.00    +0.010 A 
ATOM     12  C   UNL     1      -0.713  -8.551   7.977  0.00  0.00    +0.003 A 
BRANCH  12  13
ATOM     13  C   UNL     1      -0.523  -7.162   8.462  0.00  0.00    -0.016 A 
ATOM     14  C   UNL     1       0.543  -6.397   7.992  0.00  0.00    +0.008 A 
ATOM     15  C   UNL     1       0.714  -5.105   8.446  0.00  0.00    +0.001 A 
ATOM     16  C   UNL     1      -0.169  -4.570   9.366  0.00  0.00    +0.000 A 
ATOM     17  C   UNL     1      -1.228  -5.325   9.837  0.00  0.00    +0.001 A 
ATOM     18  C   UNL     1      -1.413  -6.616   9.386  0.00  0.00    +0.008 A 
ENDBRANCH  12  13
ENDBRANCH   5   7
ENDBRANCH   1   3
BRANCH   1  19
ATOM     19  S   UNL     1       0.099  -7.704   1.775  0.00  0.00    -0.074 S 
BRANCH  19  23
ATOM     20  C   UNL     1       0.016  -4.270  -0.034  0.00  0.00    +0.182 A 
ATOM     21  N   UNL     1       0.041  -5.052   1.055  0.00  0.00    -0.201 NA
ATOM     22  H   UNL     1       0.063  -7.160  -1.213  0.00  0.00    +0.191 HD
ATOM     23  C   UNL     1       0.062  -6.316   0.691  0.00  0.00    +0.185 A 
ATOM     24  N   UNL     1       0.052  -6.363  -0.660  0.00  0.00    -0.253 N 
ATOM     25  N   UNL     1       0.017  -5.032  -1.105  0.00  0.00    -0.152 NA
BRANCH  20  30
ATOM     26  C   UNL     1      -0.099   1.488  -0.020  0.00  0.00    +0.044 C 
ATOM     27  C   UNL     1      -0.069  -0.018  -0.024  0.00  0.00    -0.050 A 
ATOM     28  C   UNL     1      -0.065  -0.705  -1.225  0.00  0.00    +0.004 A 
ATOM     29  C   UNL     1      -0.037  -2.084  -1.234  0.00  0.00    +0.012 A 
ATOM     30  C   UNL     1      -0.013  -2.786  -0.030  0.00  0.00    +0.021 A 
ATOM     31  C   UNL     1      -0.017  -2.090   1.177  0.00  0.00    +0.012 A 
ATOM     32  C   UNL     1      -0.039  -0.710   1.174  0.00  0.00    +0.004 A 
ENDBRANCH  20  30
ENDBRANCH  19  23
ENDBRANCH   1  19
TORSDOF 6
