REMARK  Name = ZINC39960832
REMARK  9 active torsions:
REMARK  status: ('A' for Active; 'I' for Inactive)
REMARK    1  A    between atoms: C_1  and  C_2
REMARK    2  A    between atoms: C_3  and  O_28
REMARK    3  A    between atoms: C_6  and  C_9
REMARK    4  A    between atoms: C_7  and  O_8
REMARK    5  A    between atoms: C_12  and  C_24
REMARK    6  A    between atoms: C_13  and  O_15
REMARK    7  A    between atoms: O_15  and  C_16
REMARK    8  A    between atoms: C_19  and  O_22
REMARK    9  A    between atoms: O_22  and  C_23
REMARK                            x       y       z     vdW  Elec       q    Type
REMARK                         _______ _______ _______ _____ _____    ______ ____
ROOT
ATOM      1  C   UNL     1      -0.009  -2.845   2.550  0.00  0.00    +0.120 C 
ATOM      2  N   UNL     1       0.022  -2.442   3.792  0.00  0.00    -0.149 NA
ATOM      3  N   UNL     1       0.124  -3.503   4.686  0.00  0.00    -0.145 NA
ATOM      4  C   UNL     1       0.166  -4.650   4.090  0.00  0.00    +0.189 C 
ATOM      5  C   UNL     1       0.077  -4.357   2.606  0.00  0.00    +0.279 C 
ENDROOT
BRANCH   1  11
ATOM      6  C   UNL     1      -0.358   1.672   0.452  0.00  0.00    +0.051 C 
ATOM      7  C   UNL     1      -0.281   0.172   0.330  0.00  0.00    +0.033 A 
ATOM      8  C   UNL     1      -0.307  -0.424  -0.922  0.00  0.00    +0.123 A 
ATOM      9  C   UNL     1      -0.236  -1.808  -1.043  0.00  0.00    +0.046 A 
ATOM     10  C   UNL     1      -0.140  -2.598   0.080  0.00  0.00    +0.017 A 
ATOM     11  C   UNL     1      -0.112  -2.008   1.349  0.00  0.00    +0.044 A 
ATOM     12  C   UNL     1      -0.179  -0.609   1.468  0.00  0.00    +0.132 A 
BRANCH  12  13
ATOM     13  O   UNL     1      -0.148  -0.027   2.693  0.00  0.00    -0.506 OA
ATOM     14  H   UNL     1      -1.020   0.093   3.094  0.00  0.00    +0.292 HD
ENDBRANCH  12  13
BRANCH   8  15
ATOM     15  O   UNL     1      -0.402   0.346  -2.036  0.00  0.00    -0.506 OA
ATOM     16  H   UNL     1       0.452   0.619  -2.400  0.00  0.00    +0.292 HD
ENDBRANCH   8  15
ENDBRANCH   1  11
BRANCH   4  17
ATOM     17  C   UNL     1       0.275  -6.004   4.742  0.00  0.00    +0.436 C 
ATOM     18  F   UNL     1       0.327  -5.851   6.131  0.00  0.00    -0.165 F 
ATOM     19  F   UNL     1      -0.839  -6.778   4.399  0.00  0.00    -0.165 F 
ATOM     20  F   UNL     1       1.439  -6.642   4.299  0.00  0.00    -0.165 F 
ENDBRANCH   4  17
BRANCH   5  21
ATOM     21  O   UNL     1      -1.095  -4.950   2.043  0.00  0.00    -0.476 OA
BRANCH  21  22
ATOM     22  C   UNL     1      -0.951  -6.168   1.455  0.00  0.00    +0.122 A 
ATOM     23  C   UNL     1      -2.018  -6.746   0.785  0.00  0.00    +0.049 A 
ATOM     24  C   UNL     1      -1.871  -7.983   0.189  0.00  0.00    +0.049 A 
ATOM     25  C   UNL     1      -0.655  -8.647   0.259  0.00  0.00    +0.120 A 
ATOM     26  C   UNL     1       0.413  -8.068   0.928  0.00  0.00    +0.049 A 
ATOM     27  C   UNL     1       0.267  -6.829   1.521  0.00  0.00    +0.049 A 
BRANCH  25  28
ATOM     28  O   UNL     1      -0.511  -9.865  -0.328  0.00  0.00    -0.495 OA
ATOM     29  C   UNL     1       0.769 -10.491  -0.216  0.00  0.00    +0.277 C 
ENDBRANCH  25  28
ENDBRANCH  21  22
ENDBRANCH   5  21
TORSDOF 7
