REMARK  Name = ZINC07582604
REMARK  6 active torsions:
REMARK  status: ('A' for Active; 'I' for Inactive)
REMARK    1  A    between atoms: C_7  and  C_11
REMARK    2  A    between atoms: C_11  and  C_12
REMARK    3  A    between atoms: C_12  and  N_13
REMARK    4  A    between atoms: C_14  and  C_16
REMARK    5  A    between atoms: C_16  and  N_56
REMARK    6  A    between atoms: C_20  and  C_23
REMARK                            x       y       z     vdW  Elec       q    Type
REMARK                         _______ _______ _______ _____ _____    ______ ____
ROOT
ATOM      1  C   UNL     1      -1.082   9.989  -2.423  0.00  0.00    +0.019 C 
ENDROOT
BRANCH   1   7
ATOM      2  C   UNL     1      -0.898  10.002  -0.009  0.00  0.00    -0.078 C 
ATOM      3  C   UNL     1      -1.462   9.390   1.275  0.00  0.00    -0.018 C 
ATOM      4  C   UNL     1      -1.148   7.892   1.303  0.00  0.00    +0.006 C 
ATOM      5  C   UNL     1      -1.740   7.231   0.055  0.00  0.00    +0.028 C 
ATOM      6  C   UNL     1      -1.168   7.905  -1.194  0.00  0.00    -0.068 C 
ATOM      7  N   UNL     1      -1.526   9.339  -1.172  0.00  0.00    +0.386 N 
ATOM      8  H   UNL     1      -2.546   9.426  -1.095  0.00  0.00    -0.081 HD
BRANCH   5   9
ATOM      9  C   UNL     1      -1.385   5.767   0.045  0.00  0.00    +0.081 A 
ATOM     10  N   UNL     1      -0.201   5.223   0.031  0.00  0.00    -0.244 NA
ATOM     11  C   UNL     1      -0.017   3.886   0.022  0.00  0.00    +0.078 A 
ATOM     12  C   UNL     1       1.190   3.152   0.007  0.00  0.00    +0.029 A 
ATOM     13  C   UNL     1       1.176   1.792   0.001  0.00  0.00    +0.002 A 
ATOM     14  C   UNL     1      -0.013   1.076   0.008  0.00  0.00    +0.001 A 
ATOM     15  C   UNL     1      -1.215   1.757   0.017  0.00  0.00    +0.017 A 
ATOM     16  C   UNL     1      -1.212   3.130   0.030  0.00  0.00    +0.039 A 
ATOM     17  S   UNL     1      -2.454   4.399   0.048  0.00  0.00    -0.072 S 
ENDBRANCH   5   9
ENDBRANCH   1   7
BRANCH   1  19
ATOM     18  N   UNL     1      -1.404  12.174  -3.536  0.00  0.00    -0.317 N 
ATOM     19  C   UNL     1      -1.653  11.383  -2.474  0.00  0.00    +0.196 C 
ATOM     20  O   UNL     1      -2.337  11.792  -1.560  0.00  0.00    -0.278 OA
ATOM     21  H   UNL     1      -0.857  11.847  -4.267  0.00  0.00    +0.149 HD
BRANCH  18  22
ATOM     22  C   UNL     1      -1.958  13.529  -3.586  0.00  0.00    +0.109 C 
BRANCH  22  23
ATOM     23  C   UNL     1      -1.528  14.209  -4.888  0.00  0.00    +0.056 C 
BRANCH  23  30
ATOM     24  C   UNL     1      -0.084  18.330  -3.184  0.00  0.00    +0.001 A 
ATOM     25  C   UNL     1      -0.951  19.373  -3.483  0.00  0.00    +0.002 A 
ATOM     26  C   UNL     1      -2.099  19.145  -4.210  0.00  0.00    +0.026 A 
ATOM     27  C   UNL     1      -2.395  17.859  -4.650  0.00  0.00    +0.047 A 
ATOM     28  C   UNL     1      -1.513  16.806  -4.344  0.00  0.00    +0.003 A 
ATOM     29  C   UNL     1      -0.355  17.059  -3.606  0.00  0.00    +0.010 A 
ATOM     30  C   UNL     1      -2.099  15.603  -4.939  0.00  0.00    -0.021 A 
ATOM     31  C   UNL     1      -3.237  15.977  -5.544  0.00  0.00    +0.087 A 
ATOM     32  N   UNL     1      -3.433  17.321  -5.377  0.00  0.00    -0.360 N 
ATOM     33  H   UNL     1      -4.189  17.821  -5.722  0.00  0.00    +0.165 HD
ENDBRANCH  23  30
ENDBRANCH  22  23
ENDBRANCH  18  22
ENDBRANCH   1  19
TORSDOF 6
