REMARK  Name = ZINC39935055
REMARK  5 active torsions:
REMARK  status: ('A' for Active; 'I' for Inactive)
REMARK    1  A    between atoms: C_1  and  N_2
REMARK    2  A    between atoms: C_3  and  C_27
REMARK    3  A    between atoms: C_7  and  S_8
REMARK    4  A    between atoms: S_8  and  C_9
REMARK    5  A    between atoms: C_11  and  C_21
REMARK                            x       y       z     vdW  Elec       q    Type
REMARK                         _______ _______ _______ _____ _____    ______ ____
ROOT
ATOM      1  C   UNL     1       3.797  -1.730  -0.052  0.00  0.00    +0.171 C 
ATOM      2  C   UNL     1       5.236  -1.306  -0.280  0.00  0.00    -0.009 C 
ATOM      3  C   UNL     1       6.167  -1.671   0.697  0.00  0.00    +0.001 A 
ATOM      4  C   UNL     1       7.526  -1.317   0.565  0.00  0.00    +0.010 A 
ATOM      5  C   UNL     1       8.411  -1.684   1.530  0.00  0.00    +0.001 A 
ATOM      6  C   UNL     1       8.003  -2.404   2.651  0.00  0.00    +0.002 A 
ATOM      7  C   UNL     1       6.706  -2.774   2.834  0.00  0.00    +0.024 A 
ATOM      8  C   UNL     1       5.735  -2.429   1.877  0.00  0.00    +0.041 A 
ATOM      9  N   UNL     1       4.462  -2.793   2.058  0.00  0.00    -0.284 N 
ATOM     10  C   UNL     1       3.495  -2.507   1.209  0.00  0.00    +0.235 C 
ATOM     11  O   UNL     1       2.357  -2.871   1.441  0.00  0.00    -0.274 OA
ATOM     12  H   UNL     1       4.237  -3.294   2.858  0.00  0.00    +0.155 HD
ENDROOT
BRANCH   2  13
ATOM     13  C   UNL     1       5.618  -0.574  -1.431  0.00  0.00    -0.020 A 
ATOM     14  C   UNL     1       6.119   0.732  -1.305  0.00  0.00    +0.008 A 
ATOM     15  C   UNL     1       6.488   1.435  -2.430  0.00  0.00    +0.001 A 
ATOM     16  C   UNL     1       6.367   0.858  -3.684  0.00  0.00    +0.000 A 
ATOM     17  C   UNL     1       5.874  -0.430  -3.820  0.00  0.00    +0.001 A 
ATOM     18  C   UNL     1       5.505  -1.152  -2.707  0.00  0.00    +0.008 A 
ENDBRANCH   2  13
BRANCH   1  19
ATOM     19  S   UNL     1       2.771  -0.234  -0.043  0.00  0.00    -0.071 S 
BRANCH  19  25
ATOM     20  C   UNL     1      -0.041   1.420  -0.023  0.00  0.00    +0.133 C 
ATOM     21  N   UNL     1      -0.009  -0.044  -0.028  0.00  0.00    -0.286 N 
ATOM     22  C   UNL     1      -1.171  -0.950  -0.031  0.00  0.00    +0.244 C 
ATOM     23  N   UNL     1      -0.571  -2.295  -0.034  0.00  0.00    -0.239 N 
ATOM     24  N   UNL     1       0.816  -2.103  -0.033  0.00  0.00    -0.162 NA
ATOM     25  C   UNL     1       1.120  -0.850  -0.035  0.00  0.00    +0.176 C 
ATOM     26  H   UNL     1      -1.042  -3.143  -0.037  0.00  0.00    +0.171 HD
BRANCH  22  27
ATOM     27  C   UNL     1      -2.005  -0.736  -1.268  0.00  0.00    +0.146 A 
ATOM     28  C   UNL     1      -2.741  -1.681  -1.869  0.00  0.00    +0.057 A 
ATOM     29  C   UNL     1      -3.377  -1.032  -3.022  0.00  0.00    +0.021 A 
ATOM     30  C   UNL     1      -4.243  -1.460  -4.026  0.00  0.00    +0.011 A 
ATOM     31  C   UNL     1      -4.661  -0.577  -4.983  0.00  0.00    +0.001 A 
ATOM     32  C   UNL     1      -4.228   0.741  -4.960  0.00  0.00    +0.004 A 
ATOM     33  C   UNL     1      -3.371   1.183  -3.974  0.00  0.00    +0.047 A 
ATOM     34  C   UNL     1      -2.934   0.301  -2.993  0.00  0.00    +0.135 A 
ATOM     35  O   UNL     1      -2.122   0.431  -1.925  0.00  0.00    -0.456 OA
ENDBRANCH  22  27
ENDBRANCH  19  25
ENDBRANCH   1  19
TORSDOF 4
