REMARK  Name = ZINC39863183
REMARK  3 active torsions:
REMARK  status: ('A' for Active; 'I' for Inactive)
REMARK    1  A    between atoms: C_3  and  C_7
REMARK    2  A    between atoms: N_11  and  C_21
REMARK    3  A    between atoms: N_13  and  C_14
REMARK                            x       y       z     vdW  Elec       q    Type
REMARK                         _______ _______ _______ _____ _____    ______ ____
ROOT
ATOM      1  C   UNL     1       3.773   1.860  -1.027  0.00  0.00    +0.029 C 
ATOM      2  C   UNL     1       4.890   1.138  -0.762  0.00  0.00    +0.078 C 
ATOM      3  C   UNL     1       6.304   1.462  -1.040  0.00  0.00    +0.259 C 
ATOM      4  O   UNL     1       6.624   2.505  -1.581  0.00  0.00    -0.269 OA
ATOM      5  N   UNL     1       7.207   0.569  -0.672  0.00  0.00    -0.243 N 
ATOM      6  C   UNL     1       6.825  -0.606  -0.061  0.00  0.00    +0.169 C 
ATOM      7  N   UNL     1       7.584  -1.590   0.363  0.00  0.00    -0.224 NA
ATOM      8  S   UNL     1       5.047  -0.460   0.023  0.00  0.00    -0.049 S 
ENDROOT
BRANCH   1  11
ATOM      9  C   UNL     1       1.117  -0.108   0.738  0.00  0.00    +0.020 A 
ATOM     10  C   UNL     1       2.373   0.289   0.314  0.00  0.00    +0.011 A 
ATOM     11  C   UNL     1       2.465   1.394  -0.546  0.00  0.00    -0.006 A 
ATOM     12  C   UNL     1       1.289   2.044  -0.937  0.00  0.00    +0.118 A 
ATOM     13  N   UNL     1       0.118   1.626  -0.504  0.00  0.00    -0.263 NA
ATOM     14  C   UNL     1       0.004   0.589   0.305  0.00  0.00    +0.111 A 
ENDBRANCH   1  11
BRANCH   7  15
ATOM     15  C   UNL     1       8.944  -1.441   0.394  0.00  0.00    +0.085 A 
ATOM     16  C   UNL     1       9.756  -2.109  -0.532  0.00  0.00    +0.031 A 
ATOM     17  C   UNL     1      11.124  -1.924  -0.458  0.00  0.00    +0.022 A 
ATOM     18  C   UNL     1      11.644  -1.093   0.519  0.00  0.00    +0.111 A 
ATOM     19  N   UNL     1      10.856  -0.476   1.378  0.00  0.00    -0.261 NA
ATOM     20  C   UNL     1       9.547  -0.615   1.346  0.00  0.00    +0.138 A 
ENDBRANCH   7  15
BRANCH   5  21
ATOM     21  C   UNL     1       8.627   0.829  -0.919  0.00  0.00    +0.084 C 
ATOM     22  C   UNL     1       9.083   2.016  -0.067  0.00  0.00    +0.023 C 
ATOM     23  C   UNL     1      10.567   2.288  -0.324  0.00  0.00    +0.002 C 
ATOM     24  C   UNL     1      10.777   2.612  -1.804  0.00  0.00    +0.000 C 
ATOM     25  C   UNL     1      10.321   1.426  -2.656  0.00  0.00    +0.002 C 
ATOM     26  C   UNL     1       8.837   1.154  -2.399  0.00  0.00    +0.023 C 
ENDBRANCH   5  21
TORSDOF 3
