REMARK  Name = ZINC04029208
REMARK  11 active torsions:
REMARK  status: ('A' for Active; 'I' for Inactive)
REMARK    1  A    between atoms: C_1  and  C_2
REMARK    2  A    between atoms: C_2  and  C_28
REMARK    3  A    between atoms: C_4  and  C_9
REMARK    4  A    between atoms: C_9  and  C_11
REMARK    5  A    between atoms: C_9  and  C_20
REMARK    6  A    between atoms: C_11  and  C_12
REMARK    7  A    between atoms: C_12  and  N_59
REMARK    8  A    between atoms: C_13  and  C_14
REMARK    9  A    between atoms: C_13  and  N_59
REMARK   10  A    between atoms: C_23  and  O_26
REMARK   11  A    between atoms: O_26  and  C_27
REMARK                            x       y       z     vdW  Elec       q    Type
REMARK                         _______ _______ _______ _____ _____    ______ ____
ROOT
ATOM      1  C   UNL     1       7.117  -2.660  -2.883  0.00  0.00    +0.021 C 
ENDROOT
BRANCH   1   5
ATOM      2  C   UNL     1       8.521  -0.659   1.477  0.00  0.00    +0.041 C 
ATOM      3  C   UNL     1       8.887  -0.824   0.001  0.00  0.00    +0.064 C 
ATOM      4  C   UNL     1       7.780  -1.602  -0.715  0.00  0.00    +0.038 C 
ATOM      5  C   UNL     1       8.181  -1.815  -2.178  0.00  0.00    +0.001 C 
ATOM      6  C   UNL     1       9.528  -2.544  -2.226  0.00  0.00    +0.032 C 
ATOM      7  C   UNL     1      10.567  -1.730  -1.451  0.00  0.00    +0.161 C 
ATOM      8  O   UNL     1      10.118  -1.542  -0.108  0.00  0.00    -0.374 OA
ATOM      9  C   UNL     1       9.041   0.555  -0.644  0.00  0.00    +0.041 C 
ENDBRANCH   1   5
BRANCH   1  10
ATOM     10  C   UNL     1       7.570  -2.969  -4.287  0.00  0.00    -0.044 A 
ATOM     11  C   UNL     1       7.816  -1.939  -5.175  0.00  0.00    +0.007 A 
ATOM     12  C   UNL     1       8.236  -2.219  -6.461  0.00  0.00    +0.046 A 
ATOM     13  C   UNL     1       8.400  -3.537  -6.864  0.00  0.00    +0.120 A 
ATOM     14  C   UNL     1       8.148  -4.569  -5.972  0.00  0.00    +0.046 A 
ATOM     15  C   UNL     1       7.734  -4.283  -4.685  0.00  0.00    +0.007 A 
BRANCH  13  16
ATOM     16  O   UNL     1       8.808  -3.816  -8.130  0.00  0.00    -0.495 OA
ATOM     17  C   UNL     1       9.049  -2.703  -8.993  0.00  0.00    +0.277 C 
ENDBRANCH  13  16
ENDBRANCH   1  10
BRANCH   1  18
ATOM     18  C   UNL     1       5.800  -1.883  -2.931  0.00  0.00    -0.011 C 
BRANCH  18  19
ATOM     19  C   UNL     1       4.702  -2.777  -3.513  0.00  0.00    -0.082 C 
BRANCH  19  20
ATOM     20  N   UNL     1       3.412  -2.067  -3.440  0.00  0.00    +0.382 N 
ATOM     21  H   UNL     1       3.473  -1.195  -3.978  0.00  0.00    -0.085 HD
ATOM     22  H   UNL     1       3.200  -1.849  -2.459  0.00  0.00    -0.085 HD
BRANCH  20  23
ATOM     23  C   UNL     1       2.333  -2.906  -3.995  0.00  0.00    -0.047 C 
BRANCH  23  24
ATOM     24  C   UNL     1       1.029  -2.157  -3.907  0.00  0.00    -0.064 A 
ATOM     25  C   UNL     1       0.626  -1.346  -4.951  0.00  0.00    +0.002 A 
ATOM     26  C   UNL     1      -0.571  -0.659  -4.870  0.00  0.00    +0.000 A 
ATOM     27  C   UNL     1      -1.364  -0.782  -3.745  0.00  0.00    +0.000 A 
ATOM     28  C   UNL     1      -0.961  -1.593  -2.701  0.00  0.00    +0.000 A 
ATOM     29  C   UNL     1       0.236  -2.280  -2.781  0.00  0.00    +0.002 A 
ENDBRANCH  23  24
ENDBRANCH  20  23
ENDBRANCH  19  20
ENDBRANCH  18  19
ENDBRANCH   1  18
TORSDOF 8
