REMARK  Name = ZINC21564607
REMARK  12 active torsions:
REMARK  status: ('A' for Active; 'I' for Inactive)
REMARK    1  A    between atoms: C_1  and  C_2
REMARK    2  A    between atoms: C_2  and  C_3
REMARK    3  A    between atoms: C_2  and  C_4
REMARK    4  A    between atoms: C_2  and  C_5
REMARK    5  A    between atoms: C_8  and  C_11
REMARK    6  A    between atoms: C_14  and  S_17
REMARK    7  A    between atoms: N_15  and  N_16
REMARK    8  A    between atoms: S_17  and  C_18
REMARK    9  A    between atoms: C_18  and  C_19
REMARK   10  A    between atoms: N_21  and  C_22
REMARK   11  A    between atoms: C_22  and  C_24
REMARK   12  A    between atoms: C_22  and  C_30
REMARK                            x       y       z     vdW  Elec       q    Type
REMARK                         _______ _______ _______ _____ _____    ______ ____
ROOT
ATOM      1  C   UNL     1       2.696  -1.861  -4.732  0.00  0.00    +0.182 A 
ATOM      2  N   UNL     1       2.293  -2.820  -5.533  0.00  0.00    -0.127 NA
ATOM      3  N   UNL     1       3.135  -2.973  -6.492  0.00  0.00    -0.121 NA
ATOM      4  C   UNL     1       4.128  -2.121  -6.361  0.00  0.00    +0.209 A 
ATOM      5  N   UNL     1       3.881  -1.381  -5.240  0.00  0.00    -0.224 N 
ENDROOT
BRANCH   1   9
ATOM      6  C   UNL     1       0.707  -0.490  -1.238  0.00  0.00    -0.042 A 
ATOM      7  C   UNL     1       0.033  -1.285  -2.147  0.00  0.00    +0.005 A 
ATOM      8  C   UNL     1       0.673  -1.734  -3.284  0.00  0.00    +0.012 A 
ATOM      9  C   UNL     1       2.004  -1.383  -3.516  0.00  0.00    +0.021 A 
ATOM     10  C   UNL     1       2.679  -0.581  -2.595  0.00  0.00    +0.012 A 
ATOM     11  C   UNL     1       2.025  -0.135  -1.464  0.00  0.00    +0.005 A 
BRANCH   6  13
ATOM     12  C   UNL     1      -0.019   1.526   0.010  0.00  0.00    +0.015 C 
ATOM     13  C   UNL     1       0.002  -0.004   0.002  0.00  0.00    -0.013 C 
ATOM     14  C   UNL     1       0.742  -0.511   1.242  0.00  0.00    +0.015 C 
ATOM     15  C   UNL     1      -1.433  -0.534   0.013  0.00  0.00    +0.015 C 
ENDBRANCH   6  13
ENDBRANCH   1   9
BRANCH   5  16
ATOM     16  N   UNL     1       4.651  -0.375  -4.729  0.00  0.00    -0.295 N 
ATOM     17  H   UNL     1       5.331  -0.736  -4.077  0.00  0.00    +0.163 HD
ATOM     18  H   UNL     1       5.099   0.148  -5.466  0.00  0.00    +0.163 HD
ENDBRANCH   5  16
BRANCH   4  19
ATOM     19  S   UNL     1       5.516  -1.960  -7.435  0.00  0.00    -0.075 S 
BRANCH  19  20
ATOM     20  C   UNL     1       5.231  -3.218  -8.710  0.00  0.00    +0.173 C 
BRANCH  20  21
ATOM     21  C   UNL     1       6.362  -3.187  -9.707  0.00  0.00    +0.224 C 
ATOM     22  O   UNL     1       7.269  -2.394  -9.570  0.00  0.00    -0.275 OA
ATOM     23  N   UNL     1       6.364  -4.040 -10.751  0.00  0.00    -0.308 N 
ATOM     24  H   UNL     1       5.638  -4.674 -10.860  0.00  0.00    +0.149 HD
BRANCH  23  25
ATOM     25  C   UNL     1       7.462  -4.010 -11.719  0.00  0.00    +0.106 C 
BRANCH  25  26
ATOM     26  C   UNL     1       7.585  -5.358 -12.382  0.00  0.00    -0.027 A 
ATOM     27  C   UNL     1       6.448  -6.058 -12.739  0.00  0.00    +0.005 A 
ATOM     28  C   UNL     1       6.560  -7.295 -13.347  0.00  0.00    +0.000 A 
ATOM     29  C   UNL     1       7.809  -7.830 -13.598  0.00  0.00    +0.000 A 
ATOM     30  C   UNL     1       8.946  -7.130 -13.242  0.00  0.00    +0.000 A 
ATOM     31  C   UNL     1       8.834  -5.891 -12.638  0.00  0.00    +0.005 A 
ENDBRANCH  25  26
BRANCH  25  32
ATOM     32  C   UNL     1       7.178  -2.944 -12.780  0.00  0.00    +0.014 C 
ATOM     33  C   UNL     1       8.278  -1.920 -13.064  0.00  0.00    +0.006 C 
ATOM     34  C   UNL     1       7.019  -1.499 -12.304  0.00  0.00    +0.006 C 
ENDBRANCH  25  32
ENDBRANCH  23  25
ENDBRANCH  20  21
ENDBRANCH  19  20
ENDBRANCH   4  19
TORSDOF 9
