REMARK  Name = ZINC08447608
REMARK  6 active torsions:
REMARK  status: ('A' for Active; 'I' for Inactive)
REMARK    1  A    between atoms: C_4  and  C_7
REMARK    2  A    between atoms: C_18  and  C_20
REMARK    3  A    between atoms: C_20  and  O_21
REMARK    4  A    between atoms: O_21  and  C_22
REMARK    5  A    between atoms: C_22  and  C_24
REMARK    6  A    between atoms: C_29  and  O_30
REMARK                            x       y       z     vdW  Elec       q    Type
REMARK                         _______ _______ _______ _____ _____    ______ ____
ROOT
ATOM      1  C   UNL     1      -0.070   5.356   0.028  0.00  0.00    +0.149 C 
ATOM      2  C   UNL     1      -0.355   5.877  -1.388  0.00  0.00    +0.256 C 
ATOM      3  O   UNL     1      -1.632   5.392  -1.810  0.00  0.00    -0.488 OA
ATOM      4  C   UNL     1      -2.681   5.548  -0.960  0.00  0.00    +0.142 A 
ATOM      5  C   UNL     1      -3.977   5.494  -1.452  0.00  0.00    +0.047 A 
ATOM      6  C   UNL     1      -5.049   5.649  -0.595  0.00  0.00    +0.004 A 
ATOM      7  C   UNL     1      -4.839   5.858   0.755  0.00  0.00    +0.002 A 
ATOM      8  C   UNL     1      -3.550   5.916   1.255  0.00  0.00    +0.027 A 
ATOM      9  C   UNL     1      -2.471   5.762   0.399  0.00  0.00    +0.079 A 
ATOM     10  N   UNL     1      -1.160   5.824   0.901  0.00  0.00    -0.255 N 
ATOM     11  C   UNL     1      -0.908   6.294   2.139  0.00  0.00    +0.258 C 
ATOM     12  O   UNL     1      -1.806   6.772   2.800  0.00  0.00    -0.271 OA
ENDROOT
BRANCH   1  16
ATOM     13  C   UNL     1       0.037   1.085   0.006  0.00  0.00    +0.000 A 
ATOM     14  C   UNL     1      -1.177   1.746   0.021  0.00  0.00    +0.000 A 
ATOM     15  C   UNL     1      -1.212   3.128   0.033  0.00  0.00    +0.005 A 
ATOM     16  C   UNL     1      -0.032   3.849   0.020  0.00  0.00    -0.023 A 
ATOM     17  C   UNL     1       1.182   3.188  -0.001  0.00  0.00    +0.005 A 
ATOM     18  C   UNL     1       1.216   1.806  -0.007  0.00  0.00    +0.000 A 
ENDBRANCH   1  16
BRANCH  11  19
ATOM     19  C   UNL     1       0.488   6.227   2.701  0.00  0.00    +0.328 C 
BRANCH  19  20
ATOM     20  O   UNL     1       0.477   6.679   4.081  0.00  0.00    -0.452 OA
BRANCH  20  21
ATOM     21  C   UNL     1       1.656   6.680   4.734  0.00  0.00    +0.343 C 
ATOM     22  O   UNL     1       2.666   6.315   4.165  0.00  0.00    -0.245 OA
BRANCH  21  23
ATOM     23  C   UNL     1       1.720   7.126   6.137  0.00  0.00    +0.100 A 
ATOM     24  C   UNL     1       0.562   7.552   6.793  0.00  0.00    +0.018 A 
ATOM     25  C   UNL     1       0.628   7.962   8.107  0.00  0.00    +0.001 A 
ATOM     26  C   UNL     1       1.840   7.964   8.779  0.00  0.00    +0.004 A 
ATOM     27  C   UNL     1       2.993   7.550   8.141  0.00  0.00    +0.046 A 
ATOM     28  C   UNL     1       2.945   7.129   6.821  0.00  0.00    +0.131 A 
BRANCH  28  29
ATOM     29  O   UNL     1       4.076   6.723   6.193  0.00  0.00    -0.506 OA
ATOM     30  H   UNL     1       4.552   7.433   5.742  0.00  0.00    +0.292 HD
ENDBRANCH  28  29
ENDBRANCH  21  23
ENDBRANCH  20  21
ENDBRANCH  19  20
ENDBRANCH  11  19
TORSDOF 6
