REMARK  Name = ZINC00223347
REMARK  6 active torsions:
REMARK  status: ('A' for Active; 'I' for Inactive)
REMARK    1  A    between atoms: C_1  and  C_2
REMARK    2  A    between atoms: C_6  and  N_8
REMARK    3  A    between atoms: N_8  and  C_9
REMARK    4  A    between atoms: C_9  and  C_10
REMARK    5  A    between atoms: N_12  and  N_13
REMARK    6  A    between atoms: C_14  and  C_15
REMARK                            x       y       z     vdW  Elec       q    Type
REMARK                         _______ _______ _______ _____ _____    ______ ____
ROOT
ATOM      1  C   UNL     1      -3.525   1.651   0.028  0.00  0.00    +0.249 C 
ATOM      2  O   UNL     1      -3.542   2.864   0.034  0.00  0.00    -0.272 OA
ATOM      3  N   UNL     1      -2.349   0.993   0.019  0.00  0.00    -0.206 N 
ATOM      4  H   UNL     1      -2.336   0.023   0.013  0.00  0.00    +0.177 HD
ENDROOT
BRANCH   3   5
ATOM      5  N   UNL     1      -1.145   1.710   0.017  0.00  0.00    -0.188 NA
ATOM      6  C   UNL     1      -0.013   1.076   0.008  0.00  0.00    +0.139 C 
BRANCH   6   7
ATOM      7  C   UNL     1       1.254   1.830  -0.000  0.00  0.00    +0.017 A 
ATOM      8  C   UNL     1       2.475   1.150  -0.010  0.00  0.00    +0.060 A 
ATOM      9  C   UNL     1       3.659   1.861  -0.023  0.00  0.00    +0.167 A 
ATOM     10  C   UNL     1       3.636   3.256  -0.015  0.00  0.00    +0.168 A 
ATOM     11  C   UNL     1       2.425   3.931   0.000  0.00  0.00    +0.070 A 
ATOM     12  C   UNL     1       1.237   3.228   0.008  0.00  0.00    +0.053 A 
ATOM     13 CL   UNL     1      -0.276   4.079   0.027  0.00  0.00    -0.083 Cl
ATOM     14  O   UNL     1       4.923   3.712  -0.025  0.00  0.00    -0.453 OA
ATOM     15  C   UNL     1       5.724   2.595  -0.452  0.00  0.00    +0.466 C 
ATOM     16  O   UNL     1       4.961   1.447  -0.038  0.00  0.00    -0.453 OA
ENDBRANCH   6   7
ENDBRANCH   3   5
BRANCH   1  17
ATOM     17  C   UNL     1      -4.820   0.879   0.030  0.00  0.00    +0.199 C 
BRANCH  17  18
ATOM     18  N   UNL     1      -5.946   1.816   0.040  0.00  0.00    -0.335 N 
ATOM     19  H   UNL     1      -5.782   2.772   0.044  0.00  0.00    +0.147 HD
BRANCH  18  25
ATOM     20  C   UNL     1     -10.781   2.700   0.067  0.00  0.00    +0.044 C 
ATOM     21  C   UNL     1      -9.620   1.738   0.057  0.00  0.00    -0.049 A 
ATOM     22  C   UNL     1      -9.853   0.375   0.049  0.00  0.00    +0.003 A 
ATOM     23  C   UNL     1      -8.791  -0.510   0.040  0.00  0.00    +0.002 A 
ATOM     24  C   UNL     1      -7.494  -0.036   0.032  0.00  0.00    +0.023 A 
ATOM     25  C   UNL     1      -7.257   1.333   0.044  0.00  0.00    +0.028 A 
ATOM     26  C   UNL     1      -8.326   2.220   0.054  0.00  0.00    +0.026 A 
ENDBRANCH  18  25
ENDBRANCH  17  18
ENDBRANCH   1  17
TORSDOF 5
