REMARK  Name = ZINC06348537
REMARK  5 active torsions:
REMARK  status: ('A' for Active; 'I' for Inactive)
REMARK    1  A    between atoms: N_7  and  S_8
REMARK    2  A    between atoms: S_8  and  C_11
REMARK    3  A    between atoms: C_14  and  N_17
REMARK    4  A    between atoms: C_18  and  C_20
REMARK    5  A    between atoms: C_21  and  N_34
REMARK                            x       y       z     vdW  Elec       q    Type
REMARK                         _______ _______ _______ _____ _____    ______ ____
ROOT
ATOM      1  N   UNL     1       5.883   4.141   3.852  0.00  0.00    -0.281 N 
ATOM      2  C   UNL     1       5.473   5.414   3.689  0.00  0.00    +0.257 C 
ATOM      3  O   UNL     1       4.823   5.724   2.706  0.00  0.00    -0.269 OA
ATOM      4  H   UNL     1       6.334   3.877   4.669  0.00  0.00    +0.155 HD
ENDROOT
BRANCH   2   5
ATOM      5  C   UNL     1       5.798   6.393   4.660  0.00  0.00    +0.097 A 
ATOM      6  C   UNL     1       5.471   7.731   4.667  0.00  0.00    +0.053 A 
ATOM      7  C   UNL     1       5.921   8.546   5.785  0.00  0.00    +0.029 A 
ATOM      8  C   UNL     1       5.711   9.930   6.012  0.00  0.00    +0.017 A 
ATOM      9  C   UNL     1       6.232  10.499   7.152  0.00  0.00    -0.025 A 
ATOM     10  C   UNL     1       6.943   9.741   8.053  0.00  0.00    +0.046 A 
ATOM     11  N   UNL     1       7.142   8.452   7.842  0.00  0.00    -0.244 NA
ATOM     12  C   UNL     1       6.665   7.857   6.769  0.00  0.00    +0.111 A 
ATOM     13  S   UNL     1       6.721   6.186   6.170  0.00  0.00    -0.062 S 
ATOM     14  C   UNL     1       7.510  10.381   9.304  0.00  0.00    +0.056 C 
ATOM     15  C   UNL     1       6.349  10.720  10.243  0.00  0.00    +0.006 C 
ATOM     16  C   UNL     1       5.755  12.073   9.905  0.00  0.00    +0.001 C 
ATOM     17  C   UNL     1       5.030  12.124   8.575  0.00  0.00    +0.005 C 
ATOM     18  C   UNL     1       6.012  11.976   7.410  0.00  0.00    +0.037 C 
BRANCH   6  19
ATOM     19  N   UNL     1       4.731   8.288   3.633  0.00  0.00    -0.356 N 
ATOM     20  H   UNL     1       4.437   7.733   2.894  0.00  0.00    +0.142 HD
ATOM     21  H   UNL     1       4.507   9.232   3.650  0.00  0.00    +0.142 HD
ENDBRANCH   6  19
ENDBRANCH   2   5
BRANCH   1  25
ATOM     22  C   UNL     1       5.213   1.337   0.846  0.00  0.00    +0.109 A 
ATOM     23  C   UNL     1       5.465   2.655   0.515  0.00  0.00    +0.030 A 
ATOM     24  C   UNL     1       5.683   3.589   1.510  0.00  0.00    +0.025 A 
ATOM     25  C   UNL     1       5.658   3.199   2.843  0.00  0.00    +0.034 A 
ATOM     26  C   UNL     1       5.410   1.873   3.171  0.00  0.00    +0.025 A 
ATOM     27  C   UNL     1       5.188   0.946   2.172  0.00  0.00    +0.030 A 
BRANCH  22  28
ATOM     28  S   UNL     1       4.929   0.150  -0.426  0.00  0.00    +0.075 S 
ATOM     29  O   UNL     1       5.263  -1.118   0.120  0.00  0.00    -0.150 OA
ATOM     30  O   UNL     1       5.545   0.660  -1.601  0.00  0.00    -0.150 OA
BRANCH  28  37
ATOM     31  C   UNL     1       1.460   3.413  -2.238  0.00  0.00    +0.039 A 
ATOM     32  C   UNL     1       2.735   3.500  -1.701  0.00  0.00    +0.116 A 
ATOM     33  N   UNL     1       3.306   2.410  -1.215  0.00  0.00    -0.222 NA
ATOM     34  C   UNL     1       2.672   1.246  -1.236  0.00  0.00    +0.235 A 
ATOM     35  N   UNL     1       1.454   1.129  -1.742  0.00  0.00    -0.222 NA
ATOM     36  C   UNL     1       0.827   2.180  -2.245  0.00  0.00    +0.116 A 
ATOM     37  N   UNL     1       3.299   0.126  -0.719  0.00  0.00    -0.184 N 
ATOM     38  H   UNL     1       2.784  -0.673  -0.527  0.00  0.00    +0.177 HD
ENDBRANCH  28  37
ENDBRANCH  22  28
ENDBRANCH   1  25
TORSDOF 5
