REMARK  Name = ZINC12652951
REMARK  3 active torsions:
REMARK  status: ('A' for Active; 'I' for Inactive)
REMARK    1  A    between atoms: C_1  and  C_2
REMARK    2  A    between atoms: C_12  and  C_14
REMARK    3  A    between atoms: N_20  and  C_21
REMARK                            x       y       z     vdW  Elec       q    Type
REMARK                         _______ _______ _______ _____ _____    ______ ____
ROOT
ATOM      1  C   UNL     1      -0.105   1.498   0.064  0.00  0.00    +0.066 C 
ATOM      2  C   UNL     1      -0.061  -0.008   0.041  0.00  0.00    +0.047 C 
ATOM      3  C   UNL     1      -1.230  -0.716   0.044  0.00  0.00    +0.091 C 
ATOM      4  C   UNL     1      -1.169  -2.121   0.023  0.00  0.00    +0.249 C 
ATOM      5  O   UNL     1      -2.189  -2.792   0.025  0.00  0.00    -0.270 OA
ATOM      6  N   UNL     1       0.062  -2.717   0.000  0.00  0.00    -0.211 N 
ATOM      7  C   UNL     1       1.201  -1.954  -0.002  0.00  0.00    +0.229 C 
ATOM      8  N   UNL     1       1.110  -0.628   0.014  0.00  0.00    -0.219 NA
ATOM      9  N   UNL     1       2.407  -2.534  -0.024  0.00  0.00    -0.183 NA
ATOM     10  C   UNL     1       2.599  -3.832  -0.044  0.00  0.00    +0.194 C 
ATOM     11  N   UNL     1       1.562  -4.721  -0.046  0.00  0.00    -0.335 N 
ATOM     12  C   UNL     1       0.191  -4.180  -0.022  0.00  0.00    +0.213 C 
ATOM     13  N   UNL     1       3.878  -4.309  -0.066  0.00  0.00    -0.312 N 
ATOM     14  H   UNL     1       4.039  -5.266  -0.081  0.00  0.00    +0.149 HD
ATOM     15  H   UNL     1       1.723  -5.678  -0.062  0.00  0.00    +0.164 HD
ENDROOT
BRANCH  12  16
ATOM     16  C   UNL     1      -0.534  -4.693  -1.240  0.00  0.00    +0.011 A 
ATOM     17  C   UNL     1      -0.199  -4.230  -2.504  0.00  0.00    +0.010 A 
ATOM     18  C   UNL     1      -0.893  -4.730  -3.595  0.00  0.00    +0.020 A 
ATOM     19  C   UNL     1      -1.888  -5.667  -3.389  0.00  0.00    +0.111 A 
ATOM     20  N   UNL     1      -2.180  -6.084  -2.172  0.00  0.00    -0.263 NA
ATOM     21  C   UNL     1      -1.537  -5.635  -1.112  0.00  0.00    +0.118 A 
ENDBRANCH  12  16
BRANCH  13  22
ATOM     22  C   UNL     1       5.008  -3.377  -0.065  0.00  0.00    +0.073 C 
ATOM     23  C   UNL     1       5.305  -2.935  -1.500  0.00  0.00    +0.022 C 
ATOM     24  C   UNL     1       6.486  -1.961  -1.499  0.00  0.00    +0.002 C 
ATOM     25  C   UNL     1       7.718  -2.653  -0.913  0.00  0.00    +0.000 C 
ATOM     26  C   UNL     1       7.421  -3.095   0.521  0.00  0.00    +0.002 C 
ATOM     27  C   UNL     1       6.241  -4.069   0.521  0.00  0.00    +0.022 C 
ENDBRANCH  13  22
TORSDOF 2
