REMARK  Name = ZINC64515357
REMARK  5 active torsions:
REMARK  status: ('A' for Active; 'I' for Inactive)
REMARK    1  A    between atoms: C_1  and  C_2
REMARK    2  A    between atoms: N_11  and  C_12
REMARK    3  A    between atoms: C_12  and  C_13
REMARK    4  A    between atoms: C_13  and  C_14
REMARK    5  A    between atoms: C_14  and  N_15
REMARK                            x       y       z     vdW  Elec       q    Type
REMARK                         _______ _______ _______ _____ _____    ______ ____
ROOT
ATOM      1  C   UNL     1      -0.019   1.526   0.010  0.00  0.00    +0.007 C 
ATOM      2  C   UNL     1       0.002  -0.004   0.002  0.00  0.00    -0.014 C 
ATOM      3  C   UNL     1      -1.433  -0.534   0.013  0.00  0.00    +0.002 C 
ATOM      4  C   UNL     1      -1.413  -2.063   0.005  0.00  0.00    -0.015 C 
ATOM      5  C   UNL     1      -0.673  -2.570   1.245  0.00  0.00    -0.065 C 
ATOM      6  C   UNL     1       0.763  -2.041   1.233  0.00  0.00    -0.024 C 
ATOM      7  C   UNL     1       0.742  -0.511   1.242  0.00  0.00    +0.005 C 
ATOM      8  C   UNL     1       1.498  -2.547   2.477  0.00  0.00    +0.000 C 
ATOM      9  C   UNL     1       1.444  -4.077   2.502  0.00  0.00    -0.018 C 
ATOM     10  C   UNL     1      -0.017  -4.532   2.466  0.00  0.00    -0.078 C 
ATOM     11  N   UNL     1      -0.657  -4.038   1.241  0.00  0.00    +0.382 N 
ATOM     12  H   UNL     1      -0.141  -4.366   0.438  0.00  0.00    -0.081 HD
ENDROOT
BRANCH  11  13
ATOM     13  C   UNL     1      -2.035  -4.541   1.174  0.00  0.00    -0.077 C 
BRANCH  13  14
ATOM     14  C   UNL     1      -2.016  -6.066   1.045  0.00  0.00    +0.000 C 
BRANCH  14  15
ATOM     15  C   UNL     1      -3.452  -6.590   0.974  0.00  0.00    +0.106 C 
BRANCH  15  16
ATOM     16  N   UNL     1      -3.433  -8.049   0.851  0.00  0.00    -0.302 N 
ATOM     17  C   UNL     1      -3.395  -8.772  -0.426  0.00  0.00    +0.108 C 
ATOM     18  C   UNL     1      -2.952 -10.209  -0.073  0.00  0.00    +0.028 C 
ATOM     19  C   UNL     1      -3.412 -10.328   1.398  0.00  0.00    +0.097 C 
ATOM     20  C   UNL     1      -3.443  -8.899   1.892  0.00  0.00    +0.216 C 
ATOM     21  O   UNL     1      -3.475  -8.568   3.059  0.00  0.00    -0.276 OA
ENDBRANCH  15  16
ENDBRANCH  14  15
ENDBRANCH  13  14
ENDBRANCH  11  13
TORSDOF 4
