REMARK  Name = ZINC09691423
REMARK  8 active torsions:
REMARK  status: ('A' for Active; 'I' for Inactive)
REMARK    1  A    between atoms: C_1  and  C_2
REMARK    2  A    between atoms: C_2  and  C_25
REMARK    3  A    between atoms: N_5  and  C_9
REMARK    4  A    between atoms: C_9  and  C_10
REMARK    5  A    between atoms: C_10  and  C_12
REMARK    6  A    between atoms: C_14  and  C_18
REMARK    7  A    between atoms: C_30  and  O_35
REMARK    8  A    between atoms: O_35  and  C_36
REMARK                            x       y       z     vdW  Elec       q    Type
REMARK                         _______ _______ _______ _____ _____    ______ ____
ROOT
ATOM      1  C   UNL     1      -0.019   1.526   0.010  0.00  0.00    +0.047 C 
ATOM      2  C   UNL     1       0.002  -0.004   0.002  0.00  0.00    +0.135 C 
ATOM      3  C   UNL     1      -1.403  -0.557   0.139  0.00  0.00    +0.251 C 
ATOM      4  O   UNL     1      -2.332  -0.392  -0.621  0.00  0.00    -0.272 OA
ATOM      5  N   UNL     1      -1.403  -1.272   1.282  0.00  0.00    -0.216 N 
ATOM      6  C   UNL     1      -0.206  -1.247   1.879  0.00  0.00    +0.310 C 
ATOM      7  O   UNL     1       0.040  -1.819   2.924  0.00  0.00    -0.252 OA
ATOM      8  N   UNL     1       0.695  -0.520   1.195  0.00  0.00    -0.281 N 
ATOM      9  H   UNL     1       1.621  -0.365   1.440  0.00  0.00    +0.152 HD
ENDROOT
BRANCH   2  10
ATOM     10  C   UNL     1       0.657  -0.517  -1.255  0.00  0.00    -0.015 A 
ATOM     11  C   UNL     1      -0.124  -0.771  -2.381  0.00  0.00    +0.007 A 
ATOM     12  C   UNL     1       0.436  -1.234  -3.531  0.00  0.00    +0.009 A 
ATOM     13  C   UNL     1       1.823  -1.461  -3.588  0.00  0.00    -0.014 A 
ATOM     14  C   UNL     1       2.435  -1.939  -4.758  0.00  0.00    +0.054 A 
ATOM     15  C   UNL     1       3.785  -2.147  -4.777  0.00  0.00    +0.121 A 
ATOM     16  C   UNL     1       4.566  -1.892  -3.645  0.00  0.00    +0.046 A 
ATOM     17  C   UNL     1       4.003  -1.430  -2.497  0.00  0.00    +0.012 A 
ATOM     18  C   UNL     1       2.616  -1.203  -2.443  0.00  0.00    -0.017 A 
ATOM     19  C   UNL     1       2.003  -0.720  -1.274  0.00  0.00    +0.014 A 
BRANCH  15  20
ATOM     20  O   UNL     1       4.376  -2.609  -5.910  0.00  0.00    -0.495 OA
ATOM     21  C   UNL     1       5.791  -2.808  -5.868  0.00  0.00    +0.277 C 
ENDBRANCH  15  20
ENDBRANCH   2  10
BRANCH   5  22
ATOM     22  C   UNL     1      -2.569  -1.986   1.805  0.00  0.00    +0.197 C 
BRANCH  22  23
ATOM     23  C   UNL     1      -2.585  -3.391   1.260  0.00  0.00    +0.182 C 
ATOM     24  O   UNL     1      -1.707  -3.759   0.507  0.00  0.00    -0.290 OA
BRANCH  23  25
ATOM     25  C   UNL     1      -3.660  -4.313   1.638  0.00  0.00    +0.037 A 
ATOM     26  C   UNL     1      -3.806  -5.656   1.215  0.00  0.00    +0.043 A 
ATOM     27  C   UNL     1      -4.937  -6.138   1.803  0.00  0.00    +0.103 A 
ATOM     28  N   UNL     1      -5.488  -5.136   2.572  0.00  0.00    -0.356 N 
ATOM     29  H   UNL     1      -6.299  -5.214   3.098  0.00  0.00    +0.165 HD
ATOM     30  C   UNL     1      -4.724  -4.037   2.483  0.00  0.00    +0.094 A 
BRANCH  27  31
ATOM     31  C   UNL     1      -5.477  -7.494   1.644  0.00  0.00    +0.263 C 
ATOM     32  O   UNL     1      -4.901  -8.299   0.936  0.00  0.00    -0.268 OA
ATOM     33  N   UNL     1      -6.609  -7.848   2.283  0.00  0.00    -0.296 N 
ATOM     34  C   UNL     1      -7.405  -6.977   3.161  0.00  0.00    +0.108 C 
ATOM     35  C   UNL     1      -8.591  -7.816   3.684  0.00  0.00    +0.020 C 
ATOM     36  C   UNL     1      -8.084  -9.273   3.523  0.00  0.00    +0.020 C 
ATOM     37  C   UNL     1      -7.258  -9.170   2.213  0.00  0.00    +0.108 C 
ENDBRANCH  27  31
ENDBRANCH  23  25
ENDBRANCH  22  23
ENDBRANCH   5  22
TORSDOF 6
