REMARK  Name = ZINC64057235
REMARK  9 active torsions:
REMARK  status: ('A' for Active; 'I' for Inactive)
REMARK    1  A    between atoms: C_7  and  C_10
REMARK    2  A    between atoms: C_10  and  C_11
REMARK    3  A    between atoms: C_11  and  N_12
REMARK    4  A    between atoms: C_13  and  C_15
REMARK    5  A    between atoms: C_15  and  C_16
REMARK    6  A    between atoms: C_16  and  N_17
REMARK    7  A    between atoms: N_17  and  S_18
REMARK    8  A    between atoms: S_18  and  C_21
REMARK    9  A    between atoms: C_26  and  C_27
REMARK                            x       y       z     vdW  Elec       q    Type
REMARK                         _______ _______ _______ _____ _____    ______ ____
ROOT
ATOM      1  C   UNL     1      -0.650  -7.153  -2.492  0.00  0.00    +0.112 C 
ENDROOT
BRANCH   1   3
ATOM      2  N   UNL     1       1.208  -5.935  -1.404  0.00  0.00    -0.315 N 
ATOM      3  C   UNL     1       0.599  -6.311  -2.546  0.00  0.00    +0.214 C 
ATOM      4  O   UNL     1       1.056  -5.972  -3.617  0.00  0.00    -0.276 OA
ATOM      5  H   UNL     1       0.843  -6.206  -0.548  0.00  0.00    +0.149 HD
BRANCH   2   6
ATOM      6  C   UNL     1       2.423  -5.117  -1.457  0.00  0.00    +0.108 C 
BRANCH   6   7
ATOM      7  C   UNL     1       2.908  -4.832  -0.034  0.00  0.00    +0.052 C 
BRANCH   7  14
ATOM      8  C   UNL     1       3.609  -0.305   0.229  0.00  0.00    +0.001 A 
ATOM      9  C   UNL     1       4.958   0.062   0.130  0.00  0.00    +0.002 A 
ATOM     10  C   UNL     1       5.950  -0.841  -0.027  0.00  0.00    +0.026 A 
ATOM     11  C   UNL     1       5.652  -2.230  -0.100  0.00  0.00    +0.043 A 
ATOM     12  N   UNL     1       6.421  -3.281  -0.248  0.00  0.00    -0.380 N 
ATOM     13  C   UNL     1       5.577  -4.481  -0.257  0.00  0.00    +0.144 C 
ATOM     14  C   UNL     1       4.157  -3.990  -0.089  0.00  0.00    -0.040 C 
ATOM     15  C   UNL     1       4.234  -2.643   0.002  0.00  0.00    -0.001 A 
ATOM     16  C   UNL     1       3.217  -1.598   0.172  0.00  0.00    +0.010 A 
ATOM     17  H   UNL     1       7.387  -3.267  -0.337  0.00  0.00    +0.160 HD
ENDBRANCH   7  14
ENDBRANCH   6   7
ENDBRANCH   2   6
ENDBRANCH   1   3
BRANCH   1  18
ATOM     18  C   UNL     1      -1.135  -7.437  -3.915  0.00  0.00    +0.115 C 
BRANCH  18  19
ATOM     19  N   UNL     1      -2.349  -8.255  -3.862  0.00  0.00    -0.189 NA
ATOM     20  H   UNL     1      -2.583  -8.724  -3.045  0.00  0.00    +0.148 HD
BRANCH  19  21
ATOM     21  S   UNL     1      -3.322  -8.381  -5.196  0.00  0.00    +0.059 S 
ATOM     22  O   UNL     1      -4.350  -9.304  -4.864  0.00  0.00    -0.153 OA
ATOM     23  O   UNL     1      -3.598  -7.054  -5.624  0.00  0.00    -0.153 OA
BRANCH  21  24
ATOM     24  C   UNL     1      -2.364  -9.132  -6.470  0.00  0.00    +0.117 A 
ATOM     25  C   UNL     1      -2.026  -8.408  -7.599  0.00  0.00    +0.029 A 
ATOM     26  C   UNL     1      -1.274  -8.997  -8.598  0.00  0.00    +0.002 A 
ATOM     27  C   UNL     1      -0.860 -10.309  -8.469  0.00  0.00    +0.001 A 
ATOM     28  C   UNL     1      -1.196 -11.033  -7.341  0.00  0.00    +0.014 A 
ATOM     29  C   UNL     1      -1.944 -10.442  -6.339  0.00  0.00    +0.081 A 
BRANCH  29  30
ATOM     30  C   UNL     1      -2.307 -11.229  -5.106  0.00  0.00    +0.419 C 
ATOM     31  F   UNL     1      -1.669 -12.473  -5.142  0.00  0.00    -0.166 F 
ATOM     32  F   UNL     1      -1.897 -10.527  -3.967  0.00  0.00    -0.166 F 
ATOM     33  F   UNL     1      -3.693 -11.417  -5.064  0.00  0.00    -0.166 F 
ENDBRANCH  29  30
ENDBRANCH  21  24
ENDBRANCH  19  21
ENDBRANCH  18  19
ENDBRANCH   1  18
TORSDOF 9
