REMARK  Name = ZINC38596965
REMARK  7 active torsions:
REMARK  status: ('A' for Active; 'I' for Inactive)
REMARK    1  A    between atoms: C_1  and  C_2
REMARK    2  A    between atoms: N_5  and  C_8
REMARK    3  A    between atoms: C_8  and  C_9
REMARK    4  A    between atoms: N_11  and  C_12
REMARK    5  A    between atoms: C_20  and  C_22
REMARK    6  A    between atoms: C_22  and  O_24
REMARK    7  A    between atoms: O_24  and  C_25
REMARK                            x       y       z     vdW  Elec       q    Type
REMARK                         _______ _______ _______ _____ _____    ______ ____
ROOT
ATOM      1  C   UNL     1       3.804  -6.090   2.318  0.00  0.00    +0.053 C 
ATOM      2  C   UNL     1       4.294  -7.335   2.674  0.00  0.00    +0.019 A 
ATOM      3  C   UNL     1       4.128  -8.623   2.111  0.00  0.00    +0.026 A 
ATOM      4  C   UNL     1       4.740  -9.690   2.683  0.00  0.00    +0.019 A 
ATOM      5  C   UNL     1       5.539  -9.553   3.822  0.00  0.00    +0.017 A 
ATOM      6  C   UNL     1       5.743  -8.351   4.413  0.00  0.00    +0.027 A 
ATOM      7  C   UNL     1       5.136  -7.187   3.874  0.00  0.00    +0.045 A 
ATOM      8  N   UNL     1       5.175  -5.926   4.255  0.00  0.00    -0.367 N 
ATOM      9  C   UNL     1       4.366  -5.121   3.334  0.00  0.00    +0.234 C 
ATOM     10 BR   UNL     1       4.508 -11.405   1.921  0.00  0.00    -0.050 Br
ATOM     11  H   UNL     1       5.665  -5.584   5.019  0.00  0.00    +0.161 HD
ENDROOT
BRANCH   1  14
ATOM     12  C   UNL     1       2.477  -4.558   1.135  0.00  0.00    +0.200 C 
ATOM     13  O   UNL     1       2.662  -3.730   2.001  0.00  0.00    -0.278 OA
ATOM     14  N   UNL     1       2.988  -5.798   1.266  0.00  0.00    -0.288 N 
ATOM     15  H   UNL     1       2.775  -6.482   0.613  0.00  0.00    +0.155 HD
BRANCH  12  16
ATOM     16  C   UNL     1       1.675  -4.199  -0.090  0.00  0.00    +0.019 C 
BRANCH  16  21
ATOM     17  C   UNL     1      -1.108   0.774   0.126  0.00  0.00    +0.007 C 
ATOM     18  C   UNL     1      -0.776  -0.715   0.010  0.00  0.00    -0.018 C 
ATOM     19  C   UNL     1       0.166  -0.940  -1.177  0.00  0.00    -0.016 C 
ATOM     20  C   UNL     1       0.556  -2.418  -1.239  0.00  0.00    -0.078 C 
ATOM     21  N   UNL     1       1.233  -2.801   0.006  0.00  0.00    +0.385 N 
ATOM     22  C   UNL     1       0.312  -2.657   1.139  0.00  0.00    -0.078 C 
ATOM     23  C   UNL     1      -0.087  -1.188   1.293  0.00  0.00    -0.016 C 
ATOM     24  H   UNL     1       2.036  -2.207   0.148  0.00  0.00    -0.081 HD
ENDBRANCH  16  21
ENDBRANCH  12  16
ENDBRANCH   1  14
BRANCH   9  25
ATOM     25  C   UNL     1       5.225  -4.091   2.648  0.00  0.00    +0.335 C 
ATOM     26  O   UNL     1       6.407  -4.293   2.497  0.00  0.00    -0.248 OA
BRANCH  25  27
ATOM     27  O   UNL     1       4.678  -2.948   2.204  0.00  0.00    -0.466 OA
ATOM     28  C   UNL     1       5.551  -2.016   1.564  0.00  0.00    +0.280 C 
ENDBRANCH  25  27
ENDBRANCH   9  25
TORSDOF 5
