REMARK  Name = ZINC16852235
REMARK  7 active torsions:
REMARK  status: ('A' for Active; 'I' for Inactive)
REMARK    1  A    between atoms: C_1  and  C_2
REMARK    2  A    between atoms: C_2  and  C_3
REMARK    3  A    between atoms: C_3  and  C_4
REMARK    4  A    between atoms: C_7  and  C_14
REMARK    5  A    between atoms: C_14  and  C_16
REMARK    6  A    between atoms: C_14  and  N_19
REMARK    7  A    between atoms: N_19  and  C_20
REMARK                            x       y       z     vdW  Elec       q    Type
REMARK                         _______ _______ _______ _____ _____    ______ ____
ROOT
ATOM      1  C   UNL     1       2.950   5.115   0.002  0.00  0.00    +0.188 C 
ENDROOT
BRANCH   1   4
ATOM      2  C   UNL     1       2.619   1.364  -0.016  0.00  0.00    +0.043 C 
ATOM      3  C   UNL     1       3.408   2.653  -0.016  0.00  0.00    -0.012 C 
ATOM      4  C   UNL     1       2.553   3.662  -0.003  0.00  0.00    -0.014 C 
ATOM      5  C   UNL     1       1.161   3.176   0.008  0.00  0.00    -0.016 A 
ATOM      6  C   UNL     1       1.169   1.780   0.001  0.00  0.00    -0.033 A 
ATOM      7  C   UNL     1      -0.013   1.076   0.008  0.00  0.00    +0.005 A 
ATOM      8  C   UNL     1      -1.221   1.752   0.017  0.00  0.00    +0.000 A 
ATOM      9  C   UNL     1      -1.242   3.136   0.031  0.00  0.00    +0.001 A 
ATOM     10  C   UNL     1      -0.062   3.851   0.023  0.00  0.00    +0.008 A 
BRANCH   2  11
ATOM     11  C   UNL     1       2.949   0.543   1.232  0.00  0.00    +0.012 C 
BRANCH  11  13
ATOM     12  C   UNL     1       4.715  -0.795   2.386  0.00  0.00    +0.004 C 
ATOM     13  C   UNL     1       4.386   0.026   1.138  0.00  0.00    -0.002 C 
ENDBRANCH  11  13
ENDBRANCH   2  11
ENDBRANCH   1   4
BRANCH   1  14
ATOM     14  C   UNL     1       2.491   5.765  -1.278  0.00  0.00    +0.235 C 
ATOM     15  O   UNL     1       1.717   6.699  -1.240  0.00  0.00    -0.274 OA
ATOM     16  N   UNL     1       2.939   5.309  -2.464  0.00  0.00    -0.328 N 
ATOM     17  H   UNL     1       3.557   4.563  -2.494  0.00  0.00    +0.145 HD
ATOM     18  H   UNL     1       2.643   5.728  -3.288  0.00  0.00    +0.145 HD
ENDBRANCH   1  14
BRANCH   1  19
ATOM     19  N   UNL     1       2.325   5.788   1.143  0.00  0.00    -0.329 N 
ATOM     20  H   UNL     1       1.509   5.434   1.528  0.00  0.00    +0.147 HD
BRANCH  19  21
ATOM     21  C   UNL     1       2.906   6.941   1.678  0.00  0.00    +0.028 A 
ATOM     22  C   UNL     1       4.079   7.447   1.131  0.00  0.00    +0.024 A 
ATOM     23  C   UNL     1       4.647   8.590   1.659  0.00  0.00    +0.017 A 
ATOM     24  C   UNL     1       4.056   9.225   2.736  0.00  0.00    +0.018 A 
ATOM     25  C   UNL     1       2.891   8.720   3.286  0.00  0.00    +0.017 A 
ATOM     26  C   UNL     1       2.315   7.581   2.760  0.00  0.00    +0.024 A 
ATOM     27 BR   UNL     1       4.841  10.786   3.460  0.00  0.00    -0.050 Br
ENDBRANCH  19  21
ENDBRANCH   1  19
TORSDOF 6
