REMARK  Name = ZINC36742782
REMARK  6 active torsions:
REMARK  status: ('A' for Active; 'I' for Inactive)
REMARK    1  A    between atoms: C_3  and  S_8
REMARK    2  A    between atoms: S_8  and  N_11
REMARK    3  A    between atoms: N_11  and  C_12
REMARK    4  A    between atoms: C_12  and  C_13
REMARK    5  A    between atoms: C_15  and  N_20
REMARK    6  A    between atoms: C_18  and  O_19
REMARK                            x       y       z     vdW  Elec       q    Type
REMARK                         _______ _______ _______ _____ _____    ______ ____
ROOT
ATOM      1  N   UNL     1       4.327   2.556   1.555  0.00  0.00    -0.186 NA
ATOM      2  H   UNL     1       4.355   3.455   1.918  0.00  0.00    +0.148 HD
ENDROOT
BRANCH   1   3
ATOM      3  S   UNL     1       3.891   2.314  -0.024  0.00  0.00    +0.059 S 
ATOM      4  O   UNL     1       4.872   1.456  -0.589  0.00  0.00    -0.153 OA
ATOM      5  O   UNL     1       3.596   3.595  -0.565  0.00  0.00    -0.153 OA
BRANCH   3   8
ATOM      6  C   UNL     1      -0.017   1.378   0.010  0.00  0.00    +0.003 A 
ATOM      7  C   UNL     1       1.171   2.086   0.002  0.00  0.00    +0.028 A 
ATOM      8  C   UNL     1       2.378   1.411  -0.013  0.00  0.00    +0.106 A 
ATOM      9  C   UNL     1       2.397   0.029  -0.022  0.00  0.00    +0.043 A 
ATOM     10  C   UNL     1       1.210  -0.679  -0.014  0.00  0.00    +0.020 A 
ATOM     11  C   UNL     1       0.002  -0.004   0.002  0.00  0.00    +0.015 A 
ATOM     12 BR   UNL     1       1.236  -2.570  -0.025  0.00  0.00    -0.050 Br
ENDBRANCH   3   8
ENDBRANCH   1   3
BRANCH   1  13
ATOM     13  C   UNL     1       4.671   1.413   2.404  0.00  0.00    +0.144 C 
BRANCH  13  14
ATOM     14  C   UNL     1       5.372   1.901   3.645  0.00  0.00    +0.011 A 
ATOM     15  C   UNL     1       4.703   1.921   4.854  0.00  0.00    +0.031 A 
ATOM     16  C   UNL     1       5.350   2.371   5.997  0.00  0.00    +0.025 A 
ATOM     17  C   UNL     1       6.669   2.800   5.925  0.00  0.00    +0.026 A 
ATOM     18  C   UNL     1       7.336   2.779   4.716  0.00  0.00    +0.047 A 
ATOM     19  C   UNL     1       6.691   2.325   3.575  0.00  0.00    +0.121 A 
BRANCH  16  20
ATOM     20  N   UNL     1       4.673   2.393   7.222  0.00  0.00    -0.358 N 
ATOM     21  H   UNL     1       3.752   2.093   7.272  0.00  0.00    +0.142 HD
ATOM     22  H   UNL     1       5.125   2.707   8.020  0.00  0.00    +0.142 HD
ENDBRANCH  16  20
BRANCH  19  23
ATOM     23  O   UNL     1       7.350   2.300   2.386  0.00  0.00    -0.506 OA
ATOM     24  H   UNL     1       7.268   3.115   1.873  0.00  0.00    +0.292 HD
ENDBRANCH  19  23
ENDBRANCH  13  14
ENDBRANCH   1  13
TORSDOF 6
