REMARK  Name = ZINC10264561
REMARK  10 active torsions:
REMARK  status: ('A' for Active; 'I' for Inactive)
REMARK    1  A    between atoms: C_1  and  C_2
REMARK    2  A    between atoms: C_5  and  C_8
REMARK    3  A    between atoms: C_11  and  S_14
REMARK    4  A    between atoms: N_12  and  C_13
REMARK    5  A    between atoms: S_14  and  C_15
REMARK    6  A    between atoms: C_15  and  C_17
REMARK    7  A    between atoms: C_15  and  C_18
REMARK    8  A    between atoms: N_20  and  C_21
REMARK    9  A    between atoms: C_21  and  C_22
REMARK   10  A    between atoms: N_24  and  C_25
REMARK                            x       y       z     vdW  Elec       q    Type
REMARK                         _______ _______ _______ _____ _____    ______ ____
ROOT
ATOM      1  C   UNL     1       2.820   1.615   5.275  0.00  0.00    +0.227 C 
ATOM      2  O   UNL     1       3.834   1.580   4.611  0.00  0.00    -0.275 OA
ATOM      3  N   UNL     1       2.879   1.405   6.605  0.00  0.00    -0.306 N 
ATOM      4  H   UNL     1       2.068   1.433   7.137  0.00  0.00    +0.149 HD
ENDROOT
BRANCH   1   5
ATOM      5  C   UNL     1       1.495   1.892   4.613  0.00  0.00    +0.137 C 
ATOM      6  C   UNL     1       1.177   3.385   4.714  0.00  0.00    +0.029 C 
BRANCH   5   7
ATOM      7  S   UNL     1       1.578   1.409   2.871  0.00  0.00    -0.074 S 
BRANCH   7  11
ATOM      8  C   UNL     1      -1.955   1.843   1.260  0.00  0.00    +0.165 A 
ATOM      9  N   UNL     1      -2.157   2.216   2.502  0.00  0.00    -0.128 NA
ATOM     10  N   UNL     1      -1.063   2.128   3.170  0.00  0.00    -0.122 NA
ATOM     11  C   UNL     1      -0.096   1.688   2.396  0.00  0.00    +0.192 A 
ATOM     12  N   UNL     1      -0.630   1.488   1.155  0.00  0.00    -0.305 N 
ATOM     13  C   UNL     1       0.065   1.003  -0.040  0.00  0.00    +0.153 C 
BRANCH   8  18
ATOM     14  C   UNL     1      -5.875   1.707  -2.951  0.00  0.00    +0.044 C 
ATOM     15  C   UNL     1      -4.849   1.743  -1.848  0.00  0.00    -0.050 A 
ATOM     16  C   UNL     1      -3.693   0.990  -1.958  0.00  0.00    +0.004 A 
ATOM     17  C   UNL     1      -2.749   1.018  -0.953  0.00  0.00    +0.012 A 
ATOM     18  C   UNL     1      -2.962   1.808   0.178  0.00  0.00    +0.019 A 
ATOM     19  C   UNL     1      -4.133   2.561   0.286  0.00  0.00    +0.012 A 
ATOM     20  C   UNL     1      -5.066   2.528  -0.730  0.00  0.00    +0.004 A 
ENDBRANCH   8  18
ENDBRANCH   7  11
ENDBRANCH   5   7
ENDBRANCH   1   5
BRANCH   3  21
ATOM     21  C   UNL     1       4.167   1.136   7.248  0.00  0.00    +0.200 C 
BRANCH  21  22
ATOM     22  C   UNL     1       3.959   0.940   8.728  0.00  0.00    +0.234 C 
ATOM     23  O   UNL     1       2.844   1.017   9.199  0.00  0.00    -0.274 OA
ATOM     24  N   UNL     1       5.011   0.678   9.528  0.00  0.00    -0.282 N 
ATOM     25  H   UNL     1       5.911   0.697   9.167  0.00  0.00    +0.155 HD
BRANCH  24  26
ATOM     26  C   UNL     1       4.805   0.378  10.881  0.00  0.00    +0.072 A 
ATOM     27  C   UNL     1       3.591  -0.149  11.299  0.00  0.00    +0.029 A 
ATOM     28  C   UNL     1       3.390  -0.449  12.633  0.00  0.00    +0.043 A 
ATOM     29  C   UNL     1       4.395  -0.214  13.556  0.00  0.00    +0.161 A 
ATOM     30  C   UNL     1       5.607   0.318  13.144  0.00  0.00    +0.195 A 
ATOM     31  C   UNL     1       5.814   0.614  11.808  0.00  0.00    +0.182 A 
ATOM     32  F   UNL     1       6.995   1.132  11.405  0.00  0.00    -0.200 F 
ATOM     33  F   UNL     1       6.586   0.547  14.047  0.00  0.00    -0.199 F 
ATOM     34  F   UNL     1       4.194  -0.503  14.861  0.00  0.00    -0.202 F 
ENDBRANCH  24  26
ENDBRANCH  21  22
ENDBRANCH   3  21
TORSDOF 7
