REMARK  Name = ZINC24738400
REMARK  4 active torsions:
REMARK  status: ('A' for Active; 'I' for Inactive)
REMARK    1  A    between atoms: C_2  and  C_9
REMARK    2  A    between atoms: C_9  and  C_11
REMARK    3  A    between atoms: C_9  and  N_21
REMARK    4  A    between atoms: C_16  and  O_17
REMARK                            x       y       z     vdW  Elec       q    Type
REMARK                         _______ _______ _______ _____ _____    ______ ____
ROOT
ATOM      1  C   UNL     1       1.230  -2.188  -0.022  0.00  0.00    +0.121 C 
ENDROOT
BRANCH   1   2
ATOM      2  C   UNL     1       1.507  -0.708   0.020  0.00  0.00    +0.019 A 
ATOM      3  C   UNL     1       2.805  -0.244  -0.085  0.00  0.00    +0.058 A 
ATOM      4  C   UNL     1       3.062   1.116  -0.047  0.00  0.00    +0.167 A 
ATOM      5  C   UNL     1       2.011   2.018   0.096  0.00  0.00    +0.170 A 
ATOM      6  C   UNL     1       0.711   1.552   0.201  0.00  0.00    +0.095 A 
ATOM      7  C   UNL     1       0.459   0.189   0.163  0.00  0.00    +0.126 A 
ATOM      8  O   UNL     1       2.521   3.284   0.106  0.00  0.00    -0.452 OA
ATOM      9  C   UNL     1       3.926   3.131   0.377  0.00  0.00    +0.466 C 
ATOM     10  O   UNL     1       4.231   1.818  -0.128  0.00  0.00    -0.453 OA
BRANCH   7  11
ATOM     11  O   UNL     1      -0.818  -0.269   0.267  0.00  0.00    -0.506 OA
ATOM     12  H   UNL     1      -1.649   0.442   0.381  0.00  0.00    +0.292 HD
ENDBRANCH   7  11
ENDBRANCH   1   2
BRANCH   1  14
ATOM     13  C   UNL     1      -0.378  -2.913  -1.797  0.00  0.00    +0.044 A 
ATOM     14  C   UNL     1       0.920  -2.602  -1.438  0.00  0.00    -0.020 A 
ATOM     15  C   UNL     1       1.932  -2.664  -2.377  0.00  0.00    +0.044 A 
ATOM     16  C   UNL     1       1.649  -3.048  -3.676  0.00  0.00    +0.126 A 
ATOM     17  C   UNL     1       0.350  -3.360  -4.038  0.00  0.00    +0.076 A 
ATOM     18  C   UNL     1      -0.664  -3.292  -3.098  0.00  0.00    +0.126 A 
ATOM     19  F   UNL     1      -1.933  -3.596  -3.449  0.00  0.00    -0.205 F 
ATOM     20  F   UNL     1       2.639  -3.113  -4.593  0.00  0.00    -0.205 F 
ENDBRANCH   1  14
BRANCH   1  21
ATOM     21  N   UNL     1       2.412  -2.921   0.454  0.00  0.00    -0.287 NA
ATOM     22  C   UNL     1       2.235  -4.370   0.288  0.00  0.00    +0.113 C 
ATOM     23  C   UNL     1       3.509  -5.089   0.739  0.00  0.00    +0.175 C 
ATOM     24  O   UNL     1       3.798  -4.731   2.093  0.00  0.00    -0.377 OA
ATOM     25  C   UNL     1       3.977  -3.326   2.292  0.00  0.00    +0.175 C 
ATOM     26  C   UNL     1       2.707  -2.589   1.856  0.00  0.00    +0.113 C 
ENDBRANCH   1  21
TORSDOF 4
