REMARK  Name = ZINC26889967
REMARK  16 active torsions:
REMARK  status: ('A' for Active; 'I' for Inactive)
REMARK    1  A    between atoms: C_1  and  C_2
REMARK    2  A    between atoms: C_2  and  C_3
REMARK    3  A    between atoms: C_3  and  O_4
REMARK    4  A    between atoms: O_4  and  C_5
REMARK    5  A    between atoms: C_6  and  O_32
REMARK    6  A    between atoms: C_8  and  C_12
REMARK    7  A    between atoms: C_13  and  C_14
REMARK    8  A    between atoms: N_16  and  C_17
REMARK    9  A    between atoms: C_18  and  C_27
REMARK   10  A    between atoms: C_19  and  C_26
REMARK   11  A    between atoms: C_20  and  C_22
REMARK   12  A    between atoms: N_24  and  C_25
REMARK   13  A    between atoms: C_27  and  O_29
REMARK   14  A    between atoms: O_29  and  C_30
REMARK   15  A    between atoms: C_30  and  C_31
REMARK   16  A    between atoms: O_32  and  C_33
REMARK                            x       y       z     vdW  Elec       q    Type
REMARK                         _______ _______ _______ _____ _____    ______ ____
ROOT
ATOM      1  C   UNL     1      -1.240  -3.223   3.525  0.00  0.00    +0.241 C 
ATOM      2  O   UNL     1      -1.289  -4.421   3.314  0.00  0.00    -0.270 OA
ATOM      3  N   UNL     1      -1.221  -2.357   2.493  0.00  0.00    -0.276 N 
ATOM      4  H   UNL     1      -1.176  -1.275   2.683  0.00  0.00    +0.156 HD
ENDROOT
BRANCH   3   5
ATOM      5  C   UNL     1      -1.259  -2.828   1.197  0.00  0.00    +0.087 A 
ATOM      6  C   UNL     1      -1.248  -2.098   0.003  0.00  0.00    +0.091 A 
ATOM      7  C   UNL     1      -1.287  -2.809  -1.188  0.00  0.00    -0.015 A 
ATOM      8  C   UNL     1      -1.339  -4.174  -1.112  0.00  0.00    +0.079 A 
ATOM      9  S   UNL     1      -1.333  -4.470   0.646  0.00  0.00    -0.068 S 
ATOM     10  C   UNL     1      -1.274  -2.102  -2.518  0.00  0.00    +0.046 C 
BRANCH   8  11
ATOM     11  C   UNL     1      -1.387  -5.149  -2.203  0.00  0.00    +0.251 C 
ATOM     12  O   UNL     1      -1.383  -4.769  -3.360  0.00  0.00    -0.270 OA
ATOM     13  N   UNL     1      -1.435  -6.467  -1.927  0.00  0.00    -0.314 N 
ATOM     14  C   UNL     1      -1.482  -7.443  -3.019  0.00  0.00    +0.128 C 
ATOM     15  H   UNL     1      -1.438  -6.811  -0.882  0.00  0.00    +0.149 HD
ENDBRANCH   8  11
BRANCH   6  16
ATOM     16  C   UNL     1      -1.191  -0.632   0.010  0.00  0.00    +0.342 C 
ATOM     17  O   UNL     1      -2.220   0.016   0.023  0.00  0.00    -0.245 OA
BRANCH  16  18
ATOM     18  O   UNL     1       0.002  -0.004   0.002  0.00  0.00    -0.461 OA
BRANCH  18  19
ATOM     19  C   UNL     1      -0.018   1.448   0.010  0.00  0.00    +0.229 C 
ATOM     20  C   UNL     1       1.418   1.977  -0.001  0.00  0.00    +0.048 C 
ENDBRANCH  18  19
ENDBRANCH  16  18
ENDBRANCH   6  16
ENDBRANCH   3   5
BRANCH   1  22
ATOM     21  C   UNL     1      -1.218  -3.592   5.933  0.00  0.00    +0.013 C 
ATOM     22  C   UNL     1      -1.200  -2.724   4.898  0.00  0.00    +0.068 C 
BRANCH  21  26
ATOM     23  C   UNL     1      -1.103  -2.137   9.920  0.00  0.00    +0.180 A 
ATOM     24  C   UNL     1      -1.159  -3.510   9.683  0.00  0.00    +0.164 A 
ATOM     25  C   UNL     1      -1.203  -3.987   8.388  0.00  0.00    +0.057 A 
ATOM     26  C   UNL     1      -1.178  -3.090   7.314  0.00  0.00    -0.020 A 
ATOM     27  C   UNL     1      -1.121  -1.713   7.559  0.00  0.00    +0.031 A 
ATOM     28  C   UNL     1      -1.084  -1.245   8.855  0.00  0.00    +0.087 A 
ATOM     29 CL   UNL     1      -1.012   0.463   9.157  0.00  0.00    -0.080 Cl
BRANCH  24  30
ATOM     30  O   UNL     1      -1.177  -4.380  10.729  0.00  0.00    -0.491 OA
ATOM     31  C   UNL     1      -1.235  -5.772  10.413  0.00  0.00    +0.277 C 
ENDBRANCH  24  30
BRANCH  23  32
ATOM     32  O   UNL     1      -1.065  -1.671  11.195  0.00  0.00    -0.487 OA
BRANCH  32  33
ATOM     33  C   UNL     1      -2.320  -1.399  11.823  0.00  0.00    +0.229 C 
BRANCH  33  35
ATOM     34  C   UNL     1      -3.421  -0.594  13.916  0.00  0.00    +0.007 C 
ATOM     35  C   UNL     1      -2.078  -0.885  13.244  0.00  0.00    +0.038 C 
ENDBRANCH  33  35
ENDBRANCH  32  33
ENDBRANCH  23  32
ENDBRANCH  21  26
ENDBRANCH   1  22
TORSDOF 11
