REMARK  Name = ZINC42817779
REMARK  3 active torsions:
REMARK  status: ('A' for Active; 'I' for Inactive)
REMARK    1  A    between atoms: C_11  and  N_13
REMARK    2  A    between atoms: N_13  and  C_14
REMARK    3  A    between atoms: C_14  and  C_15
REMARK                            x       y       z     vdW  Elec       q    Type
REMARK                         _______ _______ _______ _____ _____    ______ ____
ROOT
ATOM      1  C   UNL     1      -0.017   1.378   0.010  0.00  0.00    +0.001 A 
ATOM      2  C   UNL     1       1.175   2.083   0.002  0.00  0.00    +0.004 A 
ATOM      3  C   UNL     1       2.373   1.407  -0.013  0.00  0.00    -0.030 A 
ATOM      4  C   UNL     1       2.406   0.018  -0.021  0.00  0.00    +0.049 A 
ATOM      5  C   UNL     1       1.203  -0.686  -0.013  0.00  0.00    +0.039 A 
ATOM      6  C   UNL     1       0.002  -0.004   0.002  0.00  0.00    +0.017 A 
ATOM      7 BR   UNL     1       1.214  -2.576  -0.023  0.00  0.00    -0.048 Br
ATOM      8  N   UNL     1       3.727  -0.433  -0.036  0.00  0.00    -0.285 N 
ATOM      9  C   UNL     1       4.610   0.579  -0.039  0.00  0.00    +0.208 C 
ATOM     10  O   UNL     1       5.819   0.480  -0.051  0.00  0.00    -0.277 OA
ATOM     11  C   UNL     1       3.813   1.866  -0.024  0.00  0.00    +0.049 C 
ATOM     12  H   UNL     1       3.978  -1.370  -0.043  0.00  0.00    +0.155 HD
ENDROOT
BRANCH  11  13
ATOM     13  N   UNL     1       4.091   2.657  -1.230  0.00  0.00    +0.391 N 
ATOM     14  H   UNL     1       4.001   2.071  -2.046  0.00  0.00    -0.084 HD
ATOM     15  H   UNL     1       3.434   3.421  -1.290  0.00  0.00    -0.084 HD
BRANCH  13  16
ATOM     16  C   UNL     1       5.458   3.192  -1.161  0.00  0.00    -0.049 C 
BRANCH  16  17
ATOM     17  C   UNL     1       5.748   4.016  -2.417  0.00  0.00    +0.101 C 
ATOM     18  C   UNL     1       7.210   4.469  -2.404  0.00  0.00    +0.030 C 
ATOM     19  C   UNL     1       7.476   5.343  -3.633  0.00  0.00    +0.005 C 
ATOM     20  C   UNL     1       6.502   6.525  -3.627  0.00  0.00    +0.028 C 
ATOM     21  C   UNL     1       5.067   5.992  -3.592  0.00  0.00    +0.160 C 
ATOM     22  O   UNL     1       4.895   5.162  -2.442  0.00  0.00    -0.378 OA
ENDBRANCH  16  17
ENDBRANCH  13  16
ENDBRANCH  11  13
TORSDOF 3
