REMARK  Name = ZINC18145964
REMARK  6 active torsions:
REMARK  status: ('A' for Active; 'I' for Inactive)
REMARK    1  A    between atoms: C_1  and  C_2
REMARK    2  A    between atoms: C_2  and  O_3
REMARK    3  A    between atoms: O_3  and  C_4
REMARK    4  A    between atoms: C_14  and  C_16
REMARK    5  A    between atoms: C_25  and  N_28
REMARK    6  A    between atoms: C_29  and  C_31
REMARK                            x       y       z     vdW  Elec       q    Type
REMARK                         _______ _______ _______ _____ _____    ______ ____
ROOT
ATOM      1  C   UNL     1      -1.498  -1.849   0.006  0.00  0.00    +0.122 A 
ATOM      2  C   UNL     1      -0.389  -2.689  -0.003  0.00  0.00    +0.048 A 
ATOM      3  C   UNL     1      -0.525  -4.053  -0.009  0.00  0.00    +0.032 A 
ATOM      4  C   UNL     1      -1.806  -4.653  -0.006  0.00  0.00    +0.081 A 
ATOM      5  C   UNL     1      -2.910  -3.771   0.003  0.00  0.00    +0.044 A 
ATOM      6  C   UNL     1      -2.769  -2.405   0.016  0.00  0.00    +0.063 A 
ATOM      7  S   UNL     1      -4.289  -4.891   0.004  0.00  0.00    -0.052 S 
ATOM      8  C   UNL     1      -3.345  -6.409  -0.007  0.00  0.00    +0.165 A 
ATOM      9  N   UNL     1      -2.109  -5.970  -0.011  0.00  0.00    -0.225 NA
ATOM     10  N   UNL     1      -3.803  -7.717  -0.012  0.00  0.00    -0.264 N 
ATOM     11  C   UNL     1      -2.924  -8.739  -0.021  0.00  0.00    +0.225 C 
ATOM     12  O   UNL     1      -1.733  -8.513  -0.025  0.00  0.00    -0.275 OA
ATOM     13  H   UNL     1      -4.756  -7.897  -0.008  0.00  0.00    +0.157 HD
ENDROOT
BRANCH  11  14
ATOM     14  C   UNL     1      -3.422 -10.161  -0.025  0.00  0.00    +0.050 C 
ATOM     15  C   UNL     1      -4.265 -10.410   1.227  0.00  0.00    +0.020 C 
ATOM     16  C   UNL     1      -4.771 -11.854   1.222  0.00  0.00    -0.008 C 
ATOM     17  C   UNL     1      -5.626 -12.091  -0.024  0.00  0.00    +0.007 C 
ATOM     18  C   UNL     1      -4.783 -11.842  -1.276  0.00  0.00    -0.008 C 
ATOM     19  C   UNL     1      -4.277 -10.398  -1.272  0.00  0.00    +0.020 C 
ATOM     20  C   UNL     1      -3.590 -12.800  -1.287  0.00  0.00    +0.029 C 
ATOM     21  C   UNL     1      -2.735 -12.563  -0.040  0.00  0.00    +0.036 C 
ATOM     22  C   UNL     1      -3.578 -12.812   1.212  0.00  0.00    +0.029 C 
ATOM     23  C   UNL     1      -2.229 -11.119  -0.036  0.00  0.00    +0.042 C 
BRANCH  21  24
ATOM     24  N   UNL     1      -1.592 -13.480  -0.050  0.00  0.00    -0.310 N 
ATOM     25  C   UNL     1      -1.798 -14.812  -0.056  0.00  0.00    +0.210 C 
ATOM     26  O   UNL     1      -2.928 -15.252  -0.052  0.00  0.00    -0.276 OA
ATOM     27  C   UNL     1      -0.623 -15.756  -0.066  0.00  0.00    +0.109 C 
ATOM     28  H   UNL     1      -0.688 -13.129  -0.053  0.00  0.00    +0.149 HD
ENDBRANCH  21  24
ENDBRANCH  11  14
BRANCH   1  29
ATOM     29  O   UNL     1      -1.339  -0.499   0.012  0.00  0.00    -0.492 OA
BRANCH  29  31
ATOM     30  C   UNL     1      -0.019   1.526   0.010  0.00  0.00    +0.048 C 
ATOM     31  C   UNL     1       0.002  -0.004   0.002  0.00  0.00    +0.225 C 
ENDBRANCH  29  31
ENDBRANCH   1  29
TORSDOF 4
