REMARK  Name = ZINC44846994
REMARK  7 active torsions:
REMARK  status: ('A' for Active; 'I' for Inactive)
REMARK    1  A    between atoms: C_1  and  C_2
REMARK    2  A    between atoms: C_2  and  C_3
REMARK    3  A    between atoms: C_2  and  C_4
REMARK    4  A    between atoms: C_4  and  C_6
REMARK    5  A    between atoms: C_4  and  C_9
REMARK    6  A    between atoms: C_6  and  N_8
REMARK    7  A    between atoms: N_11  and  C_12
REMARK                            x       y       z     vdW  Elec       q    Type
REMARK                         _______ _______ _______ _____ _____    ______ ____
ROOT
ATOM      1  C   UNL     1      -2.379   0.251  -0.812  0.00  0.00    +0.227 C 
ATOM      2  O   UNL     1      -1.994   0.714  -1.865  0.00  0.00    -0.275 OA
ATOM      3  N   UNL     1      -3.697   0.212  -0.533  0.00  0.00    -0.283 N 
ATOM      4  H   UNL     1      -4.000  -0.091   0.337  0.00  0.00    +0.155 HD
ENDROOT
BRANCH   3   5
ATOM      5  C   UNL     1      -4.629   0.612  -1.500  0.00  0.00    +0.069 A 
ATOM      6  C   UNL     1      -4.256   0.691  -2.835  0.00  0.00    +0.027 A 
ATOM      7  C   UNL     1      -5.177   1.084  -3.786  0.00  0.00    +0.022 A 
ATOM      8  C   UNL     1      -6.471   1.400  -3.411  0.00  0.00    +0.044 A 
ATOM      9  C   UNL     1      -6.847   1.323  -2.082  0.00  0.00    +0.060 A 
ATOM     10  C   UNL     1      -5.931   0.924  -1.125  0.00  0.00    +0.146 A 
ATOM     11  F   UNL     1      -6.299   0.843   0.172  0.00  0.00    -0.203 F 
ATOM     12 CL   UNL     1      -7.624   1.895  -4.610  0.00  0.00    -0.083 Cl
ENDBRANCH   3   5
BRANCH   1  13
ATOM     13  C   UNL     1      -1.382  -0.282   0.185  0.00  0.00    +0.129 C 
BRANCH  13  15
ATOM     14  C   UNL     1      -0.267   1.949   0.339  0.00  0.00    +0.008 C 
ATOM     15  C   UNL     1      -0.056   0.465   0.030  0.00  0.00    +0.001 C 
ATOM     16  C   UNL     1       0.974  -0.116   1.001  0.00  0.00    +0.008 C 
ENDBRANCH  13  15
BRANCH  13  17
ATOM     17  C   UNL     1      -1.162  -1.752  -0.060  0.00  0.00    +0.058 C 
ATOM     18  S   UNL     1      -1.408  -2.365  -1.517  0.00  0.00    -0.040 S 
BRANCH  17  19
ATOM     19  N   UNL     1      -0.758  -2.551   0.947  0.00  0.00    -0.355 N 
ATOM     20  H   UNL     1      -0.608  -2.179   1.831  0.00  0.00    +0.143 HD
ATOM     21  H   UNL     1      -0.616  -3.498   0.789  0.00  0.00    +0.143 HD
ENDBRANCH  17  19
ENDBRANCH  13  17
ENDBRANCH   1  13
TORSDOF 5
