REMARK  Name = ZINC47145477
REMARK  2 active torsions:
REMARK  status: ('A' for Active; 'I' for Inactive)
REMARK    1  A    between atoms: C_6  and  C_7
REMARK    2  A    between atoms: N_23  and  C_26
REMARK                            x       y       z     vdW  Elec       q    Type
REMARK                         _______ _______ _______ _____ _____    ______ ____
ROOT
ATOM      1  C   UNL     1      -1.293  -0.775   0.011  0.00  0.00    +0.072 C 
ATOM      2  C   UNL     1      -1.434  -1.461  -1.299  0.00  0.00    +0.033 A 
ATOM      3  C   UNL     1      -1.773  -2.740  -1.548  0.00  0.00    +0.088 A 
ATOM      4  N   UNL     1      -1.852  -3.069  -2.882  0.00  0.00    -0.311 N 
ATOM      5  H   UNL     1      -2.109  -3.967  -3.145  0.00  0.00    +0.170 HD
ATOM      6  C   UNL     1      -1.572  -2.148  -3.822  0.00  0.00    +0.289 A 
ATOM      7  O   UNL     1      -1.587  -2.275  -5.034  0.00  0.00    -0.260 OA
ATOM      8  S   UNL     1      -1.197  -0.778  -2.921  0.00  0.00    -0.030 S 
ATOM      9  S   UNL     1      -2.063  -3.889  -0.228  0.00  0.00    -0.093 S 
ATOM     10  C   UNL     1      -2.294  -2.825   1.232  0.00  0.00    +0.152 C 
ATOM     11  C   UNL     1      -1.298  -1.661   1.198  0.00  0.00    +0.110 C 
ATOM     12  C   UNL     1      -0.015  -2.283   1.652  0.00  0.00    +0.232 C 
ATOM     13  O   UNL     1       1.110  -1.923   1.377  0.00  0.00    -0.274 OA
ATOM     14  N   UNL     1      -0.366  -3.331   2.434  0.00  0.00    -0.209 N 
ATOM     15  C   UNL     1      -1.687  -3.611   2.408  0.00  0.00    +0.240 C 
ATOM     16  O   UNL     1      -2.282  -4.350   3.163  0.00  0.00    -0.274 OA
ENDROOT
BRANCH   1  22
ATOM     17  C   UNL     1       1.090  -0.489  -0.699  0.00  0.00    +0.006 A 
ATOM     18  C   UNL     1       2.278   0.217  -0.708  0.00  0.00    +0.020 A 
ATOM     19  C   UNL     1       2.378   1.411  -0.015  0.00  0.00    +0.041 A 
ATOM     20  C   UNL     1       1.288   1.896   0.687  0.00  0.00    +0.020 A 
ATOM     21  C   UNL     1       0.101   1.188   0.695  0.00  0.00    +0.006 A 
ATOM     22  C   UNL     1       0.002  -0.004   0.002  0.00  0.00    -0.039 A 
ATOM     23 CL   UNL     1       3.869   2.299  -0.025  0.00  0.00    -0.084 Cl
ENDBRANCH   1  22
BRANCH  14  24
ATOM     24  C   UNL     1       0.555  -4.052   3.208  0.00  0.00    +0.044 A 
ATOM     25  C   UNL     1       1.897  -3.698   3.200  0.00  0.00    +0.025 A 
ATOM     26  C   UNL     1       2.802  -4.410   3.962  0.00  0.00    +0.017 A 
ATOM     27  C   UNL     1       2.372  -5.474   4.735  0.00  0.00    +0.018 A 
ATOM     28  C   UNL     1       1.034  -5.828   4.745  0.00  0.00    +0.017 A 
ATOM     29  C   UNL     1       0.124  -5.116   3.988  0.00  0.00    +0.025 A 
ATOM     30 BR   UNL     1       3.614  -6.447   5.777  0.00  0.00    -0.050 Br
ENDBRANCH  14  24
TORSDOF 2
