REMARK  Name = ZINC15504597
REMARK  7 active torsions:
REMARK  status: ('A' for Active; 'I' for Inactive)
REMARK    1  A    between atoms: C_1  and  C_2
REMARK    2  A    between atoms: C_2  and  C_3
REMARK    3  A    between atoms: C_3  and  C_4
REMARK    4  A    between atoms: C_4  and  C_5
REMARK    5  A    between atoms: C_8  and  N_11
REMARK    6  A    between atoms: C_12  and  C_14
REMARK    7  A    between atoms: C_14  and  C_15
REMARK                            x       y       z     vdW  Elec       q    Type
REMARK                         _______ _______ _______ _____ _____    ______ ____
ROOT
ATOM      1  N   UNL     1       1.162   3.485   0.009  0.00  0.00    -0.285 N 
ATOM      2  C   UNL     1       2.318   4.171   0.104  0.00  0.00    +0.223 C 
ATOM      3  O   UNL     1       3.377   3.580   0.091  0.00  0.00    -0.275 OA
ATOM      4  H   UNL     1       0.319   3.961  -0.058  0.00  0.00    +0.155 HD
ENDROOT
BRANCH   1   8
ATOM      5  C   UNL     1       1.206  -0.681   0.005  0.00  0.00    -0.047 A 
ATOM      6  C   UNL     1       2.145   0.019   0.741  0.00  0.00    +0.005 A 
ATOM      7  C   UNL     1       2.133   1.400   0.745  0.00  0.00    +0.023 A 
ATOM      8  C   UNL     1       1.177   2.086   0.008  0.00  0.00    +0.033 A 
ATOM      9  C   UNL     1       0.236   1.381  -0.731  0.00  0.00    +0.023 A 
ATOM     10  C   UNL     1       0.253  -0.000  -0.730  0.00  0.00    +0.005 A 
BRANCH   5  11
ATOM     11  C   UNL     1       1.223  -2.188   0.004  0.00  0.00    +0.035 C 
BRANCH  11  12
ATOM     12  C   UNL     1       0.343  -2.708   1.142  0.00  0.00    +0.004 C 
BRANCH  12  14
ATOM     13  C   UNL     1      -0.520  -4.759   2.279  0.00  0.00    +0.004 C 
ATOM     14  C   UNL     1       0.359  -4.238   1.141  0.00  0.00    -0.003 C 
ENDBRANCH  12  14
ENDBRANCH  11  12
ENDBRANCH   5  11
ENDBRANCH   1   8
BRANCH   2  15
ATOM     15  C   UNL     1       2.295   5.673   0.225  0.00  0.00    +0.153 C 
BRANCH  15  16
ATOM     16  C   UNL     1       3.707   6.192   0.314  0.00  0.00    +0.078 A 
ATOM     17  C   UNL     1       3.952   7.629   0.433  0.00  0.00    +0.011 A 
ATOM     18  C   UNL     1       2.907   8.554   0.479  0.00  0.00    +0.010 A 
ATOM     19  C   UNL     1       3.187   9.886   0.598  0.00  0.00    +0.001 A 
ATOM     20  C   UNL     1       4.499  10.335   0.679  0.00  0.00    +0.001 A 
ATOM     21  C   UNL     1       5.550   9.446   0.642  0.00  0.00    +0.014 A 
ATOM     22  C   UNL     1       5.289   8.082   0.521  0.00  0.00    +0.050 A 
ATOM     23  C   UNL     1       6.364   7.084   0.476  0.00  0.00    +0.272 A 
ATOM     24  O   UNL     1       7.532   7.426   0.543  0.00  0.00    -0.266 OA
ATOM     25  N   UNL     1       6.036   5.780   0.358  0.00  0.00    -0.242 N 
ATOM     26  H   UNL     1       6.742   5.116   0.328  0.00  0.00    +0.192 HD
ATOM     27  N   UNL     1       4.707   5.362   0.280  0.00  0.00    -0.175 NA
ENDBRANCH  15  16
ENDBRANCH   2  15
TORSDOF 6
