REMARK  Name = ZINC09584771
REMARK  10 active torsions:
REMARK  status: ('A' for Active; 'I' for Inactive)
REMARK    1  A    between atoms: C_1  and  C_2
REMARK    2  A    between atoms: C_2  and  C_3
REMARK    3  A    between atoms: C_3  and  N_4
REMARK    4  A    between atoms: C_14  and  S_15
REMARK    5  A    between atoms: S_15  and  C_16
REMARK    6  A    between atoms: C_16  and  C_18
REMARK    7  A    between atoms: C_16  and  C_19
REMARK    8  A    between atoms: N_21  and  C_22
REMARK    9  A    between atoms: C_25  and  S_28
REMARK   10  A    between atoms: S_28  and  N_31
REMARK                            x       y       z     vdW  Elec       q    Type
REMARK                         _______ _______ _______ _____ _____    ______ ____
ROOT
ATOM      1  C   UNL     1       2.610   4.616   3.206  0.00  0.00    +0.137 C 
ATOM      2  C   UNL     1       1.849   5.394   4.281  0.00  0.00    +0.029 C 
ENDROOT
BRANCH   1   3
ATOM      3  C   UNL     1       3.884   4.063   3.792  0.00  0.00    +0.230 C 
ATOM      4  O   UNL     1       3.938   2.902   4.138  0.00  0.00    -0.274 OA
ATOM      5  N   UNL     1       4.963   4.859   3.932  0.00  0.00    -0.285 N 
ATOM      6  H   UNL     1       4.941   5.768   3.594  0.00  0.00    +0.155 HD
BRANCH   5   7
ATOM      7  C   UNL     1       6.113   4.374   4.564  0.00  0.00    +0.034 A 
ATOM      8  C   UNL     1       6.888   5.222   5.343  0.00  0.00    +0.025 A 
ATOM      9  C   UNL     1       8.020   4.739   5.971  0.00  0.00    +0.030 A 
ATOM     10  C   UNL     1       8.387   3.415   5.814  0.00  0.00    +0.105 A 
ATOM     11  C   UNL     1       7.620   2.569   5.034  0.00  0.00    +0.030 A 
ATOM     12  C   UNL     1       6.484   3.045   4.408  0.00  0.00    +0.025 A 
BRANCH  10  13
ATOM     13  S   UNL     1       9.835   2.804   6.611  0.00  0.00    +0.056 S 
ATOM     14  O   UNL     1      10.077   3.655   7.723  0.00  0.00    -0.153 OA
ATOM     15  O   UNL     1       9.661   1.401   6.749  0.00  0.00    -0.153 OA
BRANCH  13  16
ATOM     16  N   UNL     1      11.099   3.023   5.564  0.00  0.00    -0.204 NA
ATOM     17  H   UNL     1      10.945   3.427   4.695  0.00  0.00    +0.144 HD
ATOM     18  H   UNL     1      11.994   2.748   5.819  0.00  0.00    +0.144 HD
ENDBRANCH  13  16
ENDBRANCH  10  13
ENDBRANCH   5   7
ENDBRANCH   1   3
BRANCH   1  19
ATOM     19  S   UNL     1       1.581   3.253   2.605  0.00  0.00    -0.075 S 
BRANCH  19  30
ATOM     20  N   UNL     1      -0.748   3.475   1.267  0.00  0.00    -0.287 N 
ATOM     21  C   UNL     1      -1.777   4.132   0.685  0.00  0.00    +0.262 A 
ATOM     22  O   UNL     1      -2.695   3.529   0.160  0.00  0.00    -0.267 OA
ATOM     23  C   UNL     1      -1.747   5.601   0.711  0.00  0.00    +0.065 A 
ATOM     24  C   UNL     1      -2.761   6.367   0.138  0.00  0.00    +0.017 A 
ATOM     25  C   UNL     1      -2.689   7.731   0.187  0.00  0.00    +0.021 A 
ATOM     26  C   UNL     1      -1.614   8.364   0.803  0.00  0.00    +0.043 A 
ATOM     27  C   UNL     1      -0.599   7.631   1.377  0.00  0.00    +0.048 A 
ATOM     28  C   UNL     1      -0.651   6.235   1.340  0.00  0.00    +0.080 A 
ATOM     29  N   UNL     1       0.324   5.474   1.890  0.00  0.00    -0.223 NA
ATOM     30  C   UNL     1       0.272   4.165   1.858  0.00  0.00    +0.173 A 
ATOM     31 CL   UNL     1      -1.552  10.098   0.849  0.00  0.00    -0.083 Cl
BRANCH  20  32
ATOM     32  C   UNL     1      -0.730   2.010   1.269  0.00  0.00    +0.127 C 
BRANCH  32  34
ATOM     33  C   UNL     1       0.009  -0.023   0.017  0.00  0.00    +0.005 C 
ATOM     34  C   UNL     1      -0.010   1.507   0.015  0.00  0.00    +0.018 C 
ENDBRANCH  32  34
ENDBRANCH  20  32
ENDBRANCH  19  30
ENDBRANCH   1  19
TORSDOF 8
