REMARK  Name = ZINC17534949
REMARK  5 active torsions:
REMARK  status: ('A' for Active; 'I' for Inactive)
REMARK    1  A    between atoms: C_1  and  C_2
REMARK    2  A    between atoms: N_13  and  C_26
REMARK    3  A    between atoms: C_14  and  S_16
REMARK    4  A    between atoms: S_16  and  C_17
REMARK    5  A    between atoms: C_17  and  C_18
REMARK                            x       y       z     vdW  Elec       q    Type
REMARK                         _______ _______ _______ _____ _____    ______ ____
ROOT
ATOM      1  C   UNL     1      -0.001   3.976  -1.535  0.00  0.00    +0.008 C 
ATOM      2  C   UNL     1       0.218   2.471  -1.367  0.00  0.00    -0.009 C 
ATOM      3  C   UNL     1      -1.089   1.727  -1.653  0.00  0.00    +0.008 C 
ATOM      4  C   UNL     1      -0.949   0.259  -1.250  0.00  0.00    +0.037 C 
ATOM      5  C   UNL     1       0.295  -0.322  -1.918  0.00  0.00    -0.023 A 
ATOM      6  C   UNL     1       1.261   0.495  -2.397  0.00  0.00    -0.004 A 
ATOM      7  S   UNL     1       2.493  -0.589  -3.075  0.00  0.00    -0.073 S 
ATOM      8  C   UNL     1       1.714  -2.131  -2.714  0.00  0.00    +0.117 A 
ATOM      9  C   UNL     1       0.512  -1.751  -2.074  0.00  0.00    +0.076 A 
ATOM     10  C   UNL     1      -0.364  -2.801  -1.647  0.00  0.00    +0.268 A 
ATOM     11  O   UNL     1      -1.422  -2.573  -1.087  0.00  0.00    -0.267 OA
ATOM     12  N   UNL     1       0.056  -4.062  -1.905  0.00  0.00    -0.255 N 
ATOM     13  C   UNL     1       1.236  -4.338  -2.530  0.00  0.00    +0.178 A 
ATOM     14  N   UNL     1       2.069  -3.390  -2.937  0.00  0.00    -0.215 NA
ATOM     15  C   UNL     1       1.284   1.992  -2.363  0.00  0.00    +0.046 C 
ENDROOT
BRANCH  12  16
ATOM     16  C   UNL     1      -0.758  -5.132  -1.510  0.00  0.00    +0.052 A 
ATOM     17  C   UNL     1      -1.722  -5.629  -2.378  0.00  0.00    +0.026 A 
ATOM     18  C   UNL     1      -2.519  -6.688  -1.989  0.00  0.00    +0.002 A 
ATOM     19  C   UNL     1      -2.367  -7.244  -0.732  0.00  0.00    +0.000 A 
ATOM     20  C   UNL     1      -1.413  -6.747   0.136  0.00  0.00    +0.002 A 
ATOM     21  C   UNL     1      -0.608  -5.693  -0.249  0.00  0.00    +0.026 A 
ENDBRANCH  12  16
BRANCH  13  22
ATOM     22  S   UNL     1       1.672  -6.023  -2.808  0.00  0.00    -0.079 S 
BRANCH  22  23
ATOM     23  C   UNL     1       3.267  -5.803  -3.635  0.00  0.00    +0.153 C 
BRANCH  23  24
ATOM     24  C   UNL     1       3.845  -7.152  -3.977  0.00  0.00    +0.146 A 
ATOM     25  N   UNL     1       4.633  -7.769  -3.115  0.00  0.00    -0.199 NA
ATOM     26  C   UNL     1       5.141  -8.963  -3.411  0.00  0.00    +0.217 A 
ATOM     27  N   UNL     1       4.865  -9.529  -4.581  0.00  0.00    -0.181 NA
ATOM     28  C   UNL     1       4.077  -8.902  -5.448  0.00  0.00    +0.217 A 
ATOM     29  N   UNL     1       3.568  -7.711  -5.142  0.00  0.00    -0.199 NA
ATOM     30  N   UNL     1       3.787  -9.485  -6.665  0.00  0.00    -0.327 N 
ATOM     31  N   UNL     1       5.959  -9.610  -2.507  0.00  0.00    -0.327 N 
ATOM     32  H   UNL     1       3.212  -9.027  -7.298  0.00  0.00    +0.145 HD
ATOM     33  H   UNL     1       4.159 -10.354  -6.887  0.00  0.00    +0.145 HD
ATOM     34  H   UNL     1       6.332 -10.478  -2.726  0.00  0.00    +0.145 HD
ATOM     35  H   UNL     1       6.161  -9.196  -1.653  0.00  0.00    +0.145 HD
ENDBRANCH  23  24
ENDBRANCH  22  23
ENDBRANCH  13  22
TORSDOF 4
