REMARK  Name = ZINC65566335
REMARK  11 active torsions:
REMARK  status: ('A' for Active; 'I' for Inactive)
REMARK    1  A    between atoms: C_1  and  O_2
REMARK    2  A    between atoms: O_2  and  C_3
REMARK    3  A    between atoms: C_5  and  C_14
REMARK    4  A    between atoms: C_8  and  O_9
REMARK    5  A    between atoms: O_9  and  C_10
REMARK    6  A    between atoms: C_10  and  C_11
REMARK    7  A    between atoms: C_14  and  N_16
REMARK    8  A    between atoms: N_25  and  C_26
REMARK    9  A    between atoms: C_26  and  C_27
REMARK   10  A    between atoms: C_27  and  C_28
REMARK   11  A    between atoms: C_28  and  C_29
REMARK                            x       y       z     vdW  Elec       q    Type
REMARK                         _______ _______ _______ _____ _____    ______ ____
ROOT
ATOM      1  N   UNL     1       3.069  -0.304   5.214  0.00  0.00    -0.142 NA
ATOM      2  C   UNL     1       3.707   0.415   6.129  0.00  0.00    +0.201 A 
ATOM      3  N   UNL     1       3.723   1.774   6.194  0.00  0.00    -0.326 N 
ATOM      4  C   UNL     1       4.496   2.150   7.288  0.00  0.00    +0.067 A 
ATOM      5  C   UNL     1       4.849   3.382   7.819  0.00  0.00    +0.047 A 
ATOM      6  C   UNL     1       5.651   3.443   8.942  0.00  0.00    +0.043 A 
ATOM      7  C   UNL     1       6.105   2.279   9.540  0.00  0.00    +0.022 A 
ATOM      8  C   UNL     1       5.759   1.048   9.019  0.00  0.00    +0.029 A 
ATOM      9  C   UNL     1       4.954   0.977   7.891  0.00  0.00    +0.068 A 
ATOM     10  N   UNL     1       4.445  -0.089   7.155  0.00  0.00    -0.312 N 
ATOM     11 CL   UNL     1       6.093   4.985   9.607  0.00  0.00    -0.083 Cl
ATOM     12  H   UNL     1       3.272   2.378   5.583  0.00  0.00    +0.169 HD
ENDROOT
BRANCH   1  13
ATOM     13  C   UNL     1       2.468   0.304   4.185  0.00  0.00    +0.270 C 
ATOM     14  O   UNL     1       2.424   1.522   4.137  0.00  0.00    -0.268 OA
BRANCH  13  17
ATOM     15  C   UNL     1       0.660  -0.623   1.023  0.00  0.00    +0.162 A 
ATOM     16  C   UNL     1       1.230   0.133   2.030  0.00  0.00    +0.062 A 
ATOM     17  C   UNL     1       1.857  -0.500   3.104  0.00  0.00    +0.043 A 
ATOM     18  C   UNL     1       1.907  -1.894   3.157  0.00  0.00    +0.017 A 
ATOM     19  C   UNL     1       1.338  -2.643   2.150  0.00  0.00    +0.050 A 
ATOM     20  C   UNL     1       0.709  -2.014   1.084  0.00  0.00    +0.163 A 
BRANCH  15  22
ATOM     21  C   UNL     1       0.036   1.420  -0.023  0.00  0.00    +0.277 C 
ATOM     22  O   UNL     1       0.048  -0.009  -0.025  0.00  0.00    -0.491 OA
ENDBRANCH  15  22
BRANCH  20  23
ATOM     23  O   UNL     1       0.144  -2.756   0.096  0.00  0.00    -0.479 OA
BRANCH  23  24
ATOM     24  C   UNL     1       0.230  -4.177   0.222  0.00  0.00    +0.324 C 
BRANCH  24  25
ATOM     25  C   UNL     1      -0.446  -4.828  -0.957  0.00  0.00    +0.248 C 
ATOM     26  O   UNL     1      -0.952  -4.143  -1.820  0.00  0.00    -0.272 OA
ATOM     27  N   UNL     1      -0.488  -6.172  -1.052  0.00  0.00    -0.327 N 
ATOM     28  H   UNL     1      -0.084  -6.720  -0.362  0.00  0.00    +0.145 HD
ATOM     29  H   UNL     1      -0.923  -6.591  -1.811  0.00  0.00    +0.145 HD
ENDBRANCH  24  25
ENDBRANCH  23  24
ENDBRANCH  20  23
ENDBRANCH  13  17
ENDBRANCH   1  13
BRANCH  10  30
ATOM     30  C   UNL     1       4.667  -1.510   7.435  0.00  0.00    +0.125 C 
BRANCH  30  31
ATOM     31  C   UNL     1       5.920  -1.985   6.697  0.00  0.00    +0.026 C 
BRANCH  31  32
ATOM     32  C   UNL     1       6.153  -3.469   6.989  0.00  0.00    +0.037 C 
BRANCH  32  33
ATOM     33  C   UNL     1       7.387  -3.936   6.262  0.00  0.00    -0.047 A 
ATOM     34  C   UNL     1       7.285  -4.437   4.978  0.00  0.00    +0.003 A 
ATOM     35  C   UNL     1       8.417  -4.866   4.311  0.00  0.00    +0.000 A 
ATOM     36  C   UNL     1       9.652  -4.794   4.928  0.00  0.00    +0.000 A 
ATOM     37  C   UNL     1       9.754  -4.293   6.212  0.00  0.00    +0.000 A 
ATOM     38  C   UNL     1       8.623  -3.859   6.877  0.00  0.00    +0.003 A 
ENDBRANCH  32  33
ENDBRANCH  31  32
ENDBRANCH  30  31
ENDBRANCH  10  30
TORSDOF 10
