REMARK  Name = ZINC36544559
REMARK  5 active torsions:
REMARK  status: ('A' for Active; 'I' for Inactive)
REMARK    1  A    between atoms: C_5  and  N_7
REMARK    2  A    between atoms: N_7  and  C_10
REMARK    3  A    between atoms: C_10  and  C_12
REMARK    4  A    between atoms: C_10  and  C_19
REMARK    5  A    between atoms: N_21  and  C_22
REMARK                            x       y       z     vdW  Elec       q    Type
REMARK                         _______ _______ _______ _____ _____    ______ ____
ROOT
ATOM      1  C   UNL     1       1.192  -2.751   1.287  0.00  0.00    +0.197 C 
ENDROOT
BRANCH   1   2
ATOM      2  C   UNL     1       2.285  -3.465   0.535  0.00  0.00    -0.018 A 
ATOM      3  C   UNL     1       2.205  -3.597  -0.839  0.00  0.00    +0.007 A 
ATOM      4  C   UNL     1       3.208  -4.252  -1.530  0.00  0.00    +0.020 A 
ATOM      5  C   UNL     1       4.290  -4.776  -0.846  0.00  0.00    +0.041 A 
ATOM      6  C   UNL     1       4.369  -4.644   0.529  0.00  0.00    +0.020 A 
ATOM      7  C   UNL     1       3.369  -3.983   1.218  0.00  0.00    +0.007 A 
ATOM      8 CL   UNL     1       5.549  -5.599  -1.713  0.00  0.00    -0.084 Cl
ENDBRANCH   1   2
BRANCH   1   9
ATOM      9  C   UNL     1      -0.041  -3.617   1.326  0.00  0.00    +0.239 C 
ATOM     10  O   UNL     1      -0.738  -3.725   0.339  0.00  0.00    -0.273 OA
ATOM     11  N   UNL     1      -0.368  -4.273   2.457  0.00  0.00    -0.311 N 
ATOM     12  H   UNL     1       0.189  -4.188   3.246  0.00  0.00    +0.149 HD
BRANCH  11  13
ATOM     13  C   UNL     1      -1.566  -5.116   2.494  0.00  0.00    +0.073 C 
ATOM     14  C   UNL     1      -2.787  -4.252   2.816  0.00  0.00    +0.022 C 
ATOM     15  C   UNL     1      -4.038  -5.131   2.855  0.00  0.00    +0.002 C 
ATOM     16  C   UNL     1      -3.874  -6.204   3.933  0.00  0.00    +0.000 C 
ATOM     17  C   UNL     1      -2.653  -7.068   3.612  0.00  0.00    +0.002 C 
ATOM     18  C   UNL     1      -1.402  -6.188   3.573  0.00  0.00    +0.022 C 
ENDBRANCH  11  13
ENDBRANCH   1   9
BRANCH   1  19
ATOM     19  N   UNL     1       0.880  -1.488   0.614  0.00  0.00    -0.256 N 
ATOM     20  C   UNL     1       1.773  -0.479   0.626  0.00  0.00    +0.333 C 
ATOM     21  O   UNL     1       2.873  -0.648   1.110  0.00  0.00    -0.279 OA
BRANCH  19  26
ATOM     22  C   UNL     1      -1.657  -1.437  -2.048  0.00  0.00    +0.002 A 
ATOM     23  C   UNL     1      -2.769  -1.014  -1.342  0.00  0.00    +0.002 A 
ATOM     24  C   UNL     1      -2.673  -0.748   0.011  0.00  0.00    +0.022 A 
ATOM     25  C   UNL     1      -1.464  -0.904   0.663  0.00  0.00    +0.062 A 
ATOM     26  C   UNL     1      -0.346  -1.329  -0.043  0.00  0.00    +0.055 A 
ATOM     27  C   UNL     1      -0.447  -1.595  -1.402  0.00  0.00    +0.025 A 
ATOM     28 CL   UNL     1      -1.344  -0.569   2.362  0.00  0.00    -0.082 Cl
ENDBRANCH  19  26
ENDBRANCH   1  19
TORSDOF 5
