REMARK  Name = ZINC39464032
REMARK  7 active torsions:
REMARK  status: ('A' for Active; 'I' for Inactive)
REMARK    1  A    between atoms: C_1  and  O_2
REMARK    2  A    between atoms: O_2  and  C_3
REMARK    3  A    between atoms: C_8  and  S_9
REMARK    4  A    between atoms: S_9  and  O_12
REMARK    5  A    between atoms: O_12  and  C_13
REMARK    6  A    between atoms: P_23  and  C_29
REMARK    7  A    between atoms: C_29  and  C_30
REMARK                            x       y       z     vdW  Elec       q    Type
REMARK                         _______ _______ _______ _____ _____    ______ ____
ROOT
ATOM      1  C   UNL     1      -1.097  -0.597   0.475  0.00  0.00    +0.149 A 
ATOM      2  C   UNL     1      -2.245   0.172   0.574  0.00  0.00    +0.051 A 
ATOM      3  C   UNL     1      -3.493  -0.428   0.542  0.00  0.00    -0.038 A 
ATOM      4  C   UNL     1      -3.597  -1.796   0.412  0.00  0.00    -0.021 A 
ATOM      5  C   UNL     1      -2.447  -2.567   0.313  0.00  0.00    +0.040 A 
ATOM      6  C   UNL     1      -1.203  -1.974   0.339  0.00  0.00    +0.170 A 
ATOM      7  C   UNL     1      -4.930  -2.497   0.375  0.00  0.00    +0.129 C 
ATOM      8  C   UNL     1      -4.896  -3.577  -0.711  0.00  0.00    +0.194 C 
ATOM      9  O   UNL     1      -6.130  -4.320  -0.661  0.00  0.00    -0.314 OA
ATOM     10  P   UNL     1      -7.529  -3.491  -0.647  0.00  0.00    +0.289 P 
ATOM     11  O   UNL     1      -8.606  -4.314  -0.052  0.00  0.00    -0.271 OA
ATOM     12  N   UNL     1      -7.247  -2.157   0.288  0.00  0.00    -0.179 NA
ATOM     13  N   UNL     1      -6.018  -1.553   0.121  0.00  0.00    -0.226 NA
ATOM     14  C   UNL     1      -5.925  -0.391   1.018  0.00  0.00    +0.108 C 
ATOM     15  C   UNL     1      -4.716   0.448   0.650  0.00  0.00    +0.052 C 
ATOM     16  H   UNL     1      -7.912  -1.819   0.908  0.00  0.00    +0.151 HD
ENDROOT
BRANCH   6  17
ATOM     17  S   UNL     1       0.250  -2.962   0.205  0.00  0.00    +0.154 S 
ATOM     18  O   UNL     1       0.477  -3.164  -1.183  0.00  0.00    -0.131 OA
ATOM     19  O   UNL     1       1.222  -2.373   1.058  0.00  0.00    -0.131 OA
BRANCH  17  20
ATOM     20  O   UNL     1      -0.078  -4.326   0.795  0.00  0.00    -0.342 OA
BRANCH  20  21
ATOM     21  C   UNL     1      -0.126  -4.344   2.153  0.00  0.00    +0.157 A 
ATOM     22  C   UNL     1       1.040  -4.505   2.887  0.00  0.00    +0.048 A 
ATOM     23  C   UNL     1       0.989  -4.523   4.268  0.00  0.00    +0.004 A 
ATOM     24  C   UNL     1      -0.223  -4.379   4.918  0.00  0.00    +0.000 A 
ATOM     25  C   UNL     1      -1.387  -4.219   4.188  0.00  0.00    +0.004 A 
ATOM     26  C   UNL     1      -1.340  -4.195   2.807  0.00  0.00    +0.048 A 
ENDBRANCH  20  21
ENDBRANCH  17  20
ENDBRANCH   6  17
BRANCH   1  28
ATOM     27  C   UNL     1       0.161   1.400   0.760  0.00  0.00    +0.277 C 
ATOM     28  O   UNL     1       0.126  -0.006   0.506  0.00  0.00    -0.493 OA
ENDBRANCH   1  28
BRANCH  10  29
ATOM     29  C   UNL     1      -7.982  -2.993  -2.341  0.00  0.00    +0.150 C 
BRANCH  29  30
ATOM     30  C   UNL     1      -8.145  -4.221  -3.200  0.00  0.00    -0.037 A 
ATOM     31  C   UNL     1      -7.059  -4.735  -3.884  0.00  0.00    +0.004 A 
ATOM     32  C   UNL     1      -7.208  -5.861  -4.671  0.00  0.00    +0.000 A 
ATOM     33  C   UNL     1      -8.443  -6.473  -4.774  0.00  0.00    +0.000 A 
ATOM     34  C   UNL     1      -9.529  -5.960  -4.090  0.00  0.00    +0.000 A 
ATOM     35  C   UNL     1      -9.379  -4.836  -3.299  0.00  0.00    +0.004 A 
ENDBRANCH  29  30
ENDBRANCH  10  29
TORSDOF 6
