REMARK  Name = ZINC19283850
REMARK  11 active torsions:
REMARK  status: ('A' for Active; 'I' for Inactive)
REMARK    1  A    between atoms: C_1  and  C_2
REMARK    2  A    between atoms: C_6  and  C_36
REMARK    3  A    between atoms: C_7  and  N_8
REMARK    4  A    between atoms: C_9  and  C_11
REMARK    5  A    between atoms: C_11  and  N_12
REMARK    6  A    between atoms: N_12  and  C_13
REMARK    7  A    between atoms: C_14  and  C_16
REMARK    8  A    between atoms: C_16  and  S_17
REMARK    9  A    between atoms: S_17  and  C_18
REMARK   10  A    between atoms: C_21  and  C_26
REMARK   11  A    between atoms: N_22  and  C_23
REMARK                            x       y       z     vdW  Elec       q    Type
REMARK                         _______ _______ _______ _____ _____    ______ ____
ROOT
ATOM      1  S   UNL     1      -5.484  -4.363  -2.155  0.00  0.00    -0.077 S 
ENDROOT
BRANCH   1   2
ATOM      2  C   UNL     1      -6.886  -4.870  -1.216  0.00  0.00    +0.193 A 
ATOM      3  N   UNL     1      -7.014  -4.807   0.088  0.00  0.00    -0.122 NA
ATOM      4  N   UNL     1      -8.163  -5.260   0.443  0.00  0.00    -0.128 NA
ATOM      5  C   UNL     1      -8.841  -5.641  -0.616  0.00  0.00    +0.167 A 
ATOM      6  N   UNL     1      -8.046  -5.398  -1.712  0.00  0.00    -0.299 N 
BRANCH   5   7
ATOM      7  C   UNL     1     -10.201  -6.216  -0.627  0.00  0.00    +0.044 A 
ATOM      8  C   UNL     1     -10.955  -6.495  -1.722  0.00  0.00    +0.095 A 
ATOM      9  N   UNL     1     -12.154  -7.018  -1.334  0.00  0.00    -0.360 N 
ATOM     10  H   UNL     1     -12.899  -7.305  -2.091  0.00  0.00    +0.165 HD
ATOM     11  C   UNL     1     -12.217  -7.096   0.041  0.00  0.00    +0.047 A 
ATOM     12  C   UNL     1     -11.002  -6.606   0.546  0.00  0.00    +0.010 A 
ATOM     13  C   UNL     1     -10.786  -6.560   1.922  0.00  0.00    +0.011 A 
ATOM     14  C   UNL     1     -11.765  -7.007   2.781  0.00  0.00    +0.001 A 
ATOM     15  C   UNL     1     -12.964  -7.496   2.283  0.00  0.00    +0.002 A 
ATOM     16  C   UNL     1     -13.194  -7.543   0.925  0.00  0.00    +0.026 A 
ENDBRANCH   5   7
BRANCH   6  17
ATOM     17  C   UNL     1      -8.373  -5.654  -3.117  0.00  0.00    +0.091 C 
ATOM     18  C   UNL     1      -7.280  -5.394  -4.156  0.00  0.00    +0.027 C 
ATOM     19  C   UNL     1      -8.477  -4.446  -4.050  0.00  0.00    +0.027 C 
ENDBRANCH   6  17
ENDBRANCH   1   2
BRANCH   1  20
ATOM     20  C   UNL     1      -4.404  -3.788  -0.821  0.00  0.00    +0.173 C 
BRANCH  20  23
ATOM     21  N   UNL     1      -2.142  -2.813  -0.592  0.00  0.00    -0.295 N 
ATOM     22  C   UNL     1      -2.357  -2.774   0.857  0.00  0.00    +0.132 C 
ATOM     23  C   UNL     1      -3.106  -3.292  -1.403  0.00  0.00    +0.226 C 
ATOM     24  O   UNL     1      -2.928  -3.325  -2.602  0.00  0.00    -0.275 OA
BRANCH  21  25
ATOM     25  C   UNL     1      -0.880  -2.331  -1.158  0.00  0.00    +0.203 C 
BRANCH  25  27
ATOM     26  N   UNL     1       0.049  -0.200  -2.002  0.00  0.00    -0.284 N 
ATOM     27  C   UNL     1      -0.997  -0.861  -1.469  0.00  0.00    +0.235 C 
ATOM     28  O   UNL     1      -2.034  -0.274  -1.240  0.00  0.00    -0.274 OA
ATOM     29  H   UNL     1       0.956  -0.749  -2.295  0.00  0.00    +0.155 HD
BRANCH  26  36
ATOM     30  C   UNL     1      -2.082   0.851  -3.568  0.00  0.00    +0.045 C 
ATOM     31  C   UNL     1      -1.042   1.741  -2.938  0.00  0.00    -0.029 A 
ATOM     32  C   UNL     1      -1.108   3.110  -3.109  0.00  0.00    +0.005 A 
ATOM     33  C   UNL     1      -0.151   3.927  -2.536  0.00  0.00    +0.001 A 
ATOM     34  C   UNL     1       0.873   3.377  -1.787  0.00  0.00    +0.005 A 
ATOM     35  C   UNL     1       0.942   2.010  -1.608  0.00  0.00    -0.029 A 
ATOM     36  C   UNL     1      -0.018   1.187  -2.181  0.00  0.00    +0.039 A 
ATOM     37  C   UNL     1       2.058   1.411  -0.790  0.00  0.00    +0.045 C 
ENDBRANCH  26  36
ENDBRANCH  25  27
ENDBRANCH  21  25
ENDBRANCH  20  23
ENDBRANCH   1  20
TORSDOF 8
