REMARK  Name = ZINC33271582
REMARK  8 active torsions:
REMARK  status: ('A' for Active; 'I' for Inactive)
REMARK    1  A    between atoms: C_1  and  C_2
REMARK    2  A    between atoms: C_2  and  C_3
REMARK    3  A    between atoms: C_3  and  O_4
REMARK    4  A    between atoms: O_4  and  C_5
REMARK    5  A    between atoms: C_8  and  C_11
REMARK    6  A    between atoms: C_19  and  C_33
REMARK    7  A    between atoms: C_27  and  O_31
REMARK    8  A    between atoms: O_31  and  C_32
REMARK                            x       y       z     vdW  Elec       q    Type
REMARK                         _______ _______ _______ _____ _____    ______ ____
ROOT
ATOM      1  C   UNL     1       3.575   0.680  -0.034  0.00  0.00    +0.063 C 
ATOM      2  C   UNL     1       4.019  -0.618   0.649  0.00  0.00    +0.109 C 
ATOM      3  C   UNL     1       3.184  -1.783   0.198  0.00  0.00    +0.219 C 
ATOM      4  O   UNL     1       3.720  -2.857   0.021  0.00  0.00    -0.275 OA
ATOM      5  N   UNL     1       1.856  -1.671  -0.016  0.00  0.00    -0.270 N 
ATOM      6  C   UNL     1       1.295  -0.396  -0.004  0.00  0.00    +0.135 A 
ATOM      7  C   UNL     1       2.068   0.734  -0.012  0.00  0.00    +0.023 A 
ATOM      8  C   UNL     1       1.222   1.834   0.000  0.00  0.00    +0.066 A 
ATOM      9  N   UNL     1      -0.017   1.400   0.010  0.00  0.00    -0.168 NA
ATOM     10  N   UNL     1       0.002  -0.004   0.002  0.00  0.00    -0.193 N 
ATOM     11  C   UNL     1      -1.109  -0.840   0.000  0.00  0.00    +0.196 A 
ATOM     12  N   UNL     1      -1.152  -2.151  -0.007  0.00  0.00    -0.221 NA
ATOM     13  C   UNL     1      -2.314  -2.840  -0.007  0.00  0.00    +0.081 A 
ATOM     14  C   UNL     1      -2.498  -4.242  -0.014  0.00  0.00    +0.032 A 
ATOM     15  C   UNL     1      -3.745  -4.784  -0.012  0.00  0.00    +0.048 A 
ATOM     16  C   UNL     1      -4.886  -3.987  -0.004  0.00  0.00    +0.121 A 
ATOM     17  C   UNL     1      -4.748  -2.607   0.002  0.00  0.00    +0.063 A 
ATOM     18  C   UNL     1      -3.490  -2.055   0.001  0.00  0.00    +0.044 A 
ATOM     19  S   UNL     1      -2.842  -0.402   0.015  0.00  0.00    -0.048 S 
ATOM     20  C   UNL     1       1.651   3.278   0.002  0.00  0.00    +0.068 C 
ATOM     21  H   UNL     1       1.250  -2.572  -0.194  0.00  0.00    +0.156 HD
ENDROOT
BRANCH   1  25
ATOM     22  C   UNL     1       4.961   0.728  -4.076  0.00  0.00    +0.121 A 
ATOM     23  C   UNL     1       5.360   1.720  -3.192  0.00  0.00    +0.046 A 
ATOM     24  C   UNL     1       4.911   1.702  -1.886  0.00  0.00    +0.008 A 
ATOM     25  C   UNL     1       4.064   0.697  -1.459  0.00  0.00    -0.039 A 
ATOM     26  C   UNL     1       3.668  -0.297  -2.336  0.00  0.00    +0.008 A 
ATOM     27  C   UNL     1       4.111  -0.280  -3.645  0.00  0.00    +0.046 A 
BRANCH  22  28
ATOM     28  O   UNL     1       5.401   0.744  -5.362  0.00  0.00    -0.492 OA
BRANCH  28  29
ATOM     29  C   UNL     1       4.949  -0.309  -6.215  0.00  0.00    +0.229 C 
BRANCH  29  31
ATOM     30  C   UNL     1       5.060  -1.253  -8.526  0.00  0.00    +0.007 C 
ATOM     31  C   UNL     1       5.544  -0.125  -7.612  0.00  0.00    +0.038 C 
ENDBRANCH  29  31
ENDBRANCH  28  29
ENDBRANCH  22  28
ENDBRANCH   1  25
BRANCH  16  32
ATOM     32  O   UNL     1      -6.122  -4.554  -0.004  0.00  0.00    -0.495 OA
ATOM     33  C   UNL     1      -6.179  -5.982  -0.011  0.00  0.00    +0.277 C 
ENDBRANCH  16  32
TORSDOF 5
