REMARK  Name = ZINC49973019
REMARK  11 active torsions:
REMARK  status: ('A' for Active; 'I' for Inactive)
REMARK    1  A    between atoms: C_1  and  C_2
REMARK    2  A    between atoms: C_7  and  N_12
REMARK    3  A    between atoms: C_9  and  C_11
REMARK    4  A    between atoms: C_13  and  C_15
REMARK    5  A    between atoms: C_15  and  C_17
REMARK    6  A    between atoms: C_15  and  N_18
REMARK    7  A    between atoms: N_21  and  C_24
REMARK    8  A    between atoms: C_24  and  C_25
REMARK    9  A    between atoms: N_27  and  C_28
REMARK   10  A    between atoms: C_28  and  C_29
REMARK   11  A    between atoms: C_28  and  C_30
REMARK                            x       y       z     vdW  Elec       q    Type
REMARK                         _______ _______ _______ _____ _____    ______ ____
ROOT
ATOM      1  N   UNL     1       1.191   0.626   7.173  0.00  0.00    +0.389 N 
ATOM      2  C   UNL     1       1.999   0.202   8.323  0.00  0.00    -0.062 C 
ATOM      3  C   UNL     1       1.835   1.211   9.462  0.00  0.00    +0.066 C 
ATOM      4  N   UNL     1       0.418   1.292   9.841  0.00  0.00    -0.298 NA
ATOM      5  C   UNL     1      -0.407   1.692   8.692  0.00  0.00    +0.066 C 
ATOM      6  C   UNL     1      -0.225   0.679   7.560  0.00  0.00    -0.062 C 
ATOM      7  H   UNL     1       1.491   1.541   6.871  0.00  0.00    -0.081 HD
ENDROOT
BRANCH   1   8
ATOM      8  C   UNL     1       1.363  -0.333   6.074  0.00  0.00    +0.016 C 
ATOM      9  C   UNL     1       2.846  -0.435   5.713  0.00  0.00    -0.004 C 
BRANCH   8  11
ATOM     10  N   UNL     1       0.128  -0.758   3.973  0.00  0.00    -0.314 N 
ATOM     11  C   UNL     1       0.585   0.136   4.871  0.00  0.00    +0.199 C 
ATOM     12  O   UNL     1       0.369   1.319   4.712  0.00  0.00    -0.278 OA
ATOM     13  H   UNL     1       0.301  -1.704   4.100  0.00  0.00    +0.149 HD
BRANCH  10  19
ATOM     14  C   UNL     1      -0.732   0.496  -0.013  0.00  0.00    +0.008 C 
ATOM     15  C   UNL     1      -1.283  -0.852   0.456  0.00  0.00    -0.009 C 
ATOM     16  C   UNL     1      -2.758  -0.697   0.832  0.00  0.00    +0.003 C 
ATOM     17  C   UNL     1      -2.893   0.329   1.958  0.00  0.00    +0.002 C 
ATOM     18  C   UNL     1      -2.103  -0.147   3.179  0.00  0.00    +0.022 C 
ATOM     19  C   UNL     1      -0.628  -0.302   2.804  0.00  0.00    +0.076 C 
ATOM     20  C   UNL     1      -0.493  -1.329   1.677  0.00  0.00    +0.009 C 
ATOM     21  C   UNL     1       0.982  -1.484   1.302  0.00  0.00    +0.009 C 
ENDBRANCH  10  19
ENDBRANCH   8  11
ENDBRANCH   1   8
BRANCH   4  22
ATOM     22  C   UNL     1       0.227   2.211  10.971  0.00  0.00    +0.180 C 
BRANCH  22  23
ATOM     23  C   UNL     1      -1.183   2.084  11.488  0.00  0.00    +0.227 C 
ATOM     24  O   UNL     1      -1.953   1.306  10.966  0.00  0.00    -0.274 OA
ATOM     25  N   UNL     1      -1.589   2.836  12.531  0.00  0.00    -0.312 N 
ATOM     26  H   UNL     1      -0.973   3.459  12.948  0.00  0.00    +0.149 HD
BRANCH  25  27
ATOM     27  C   UNL     1      -2.959   2.713  13.033  0.00  0.00    +0.067 C 
ATOM     28  C   UNL     1      -3.036   1.554  14.029  0.00  0.00    +0.027 C 
ATOM     29  C   UNL     1      -3.365   4.013  13.732  0.00  0.00    +0.027 C 
ENDBRANCH  25  27
ENDBRANCH  22  23
ENDBRANCH   4  22
TORSDOF 6
