REMARK  Name = ZINC09378853
REMARK  9 active torsions:
REMARK  status: ('A' for Active; 'I' for Inactive)
REMARK    1  A    between atoms: C_1  and  C_2
REMARK    2  A    between atoms: C_2  and  C_4
REMARK    3  A    between atoms: C_2  and  N_19
REMARK    4  A    between atoms: N_6  and  C_7
REMARK    5  A    between atoms: C_8  and  C_17
REMARK    6  A    between atoms: N_19  and  C_20
REMARK    7  A    between atoms: C_25  and  C_26
REMARK    8  A    between atoms: N_28  and  C_29
REMARK    9  A    between atoms: C_29  and  C_30
REMARK                            x       y       z     vdW  Elec       q    Type
REMARK                         _______ _______ _______ _____ _____    ______ ____
ROOT
ATOM      1  C   UNL     1      -9.684   0.456  -4.305  0.00  0.00    +0.038 C 
ATOM      2  C   UNL     1      -9.293  -0.571  -3.241  0.00  0.00    +0.154 C 
ENDROOT
BRANCH   2   3
ATOM      3  C   UNL     1      -9.015  -1.897  -3.901  0.00  0.00    +0.238 C 
ATOM      4  O   UNL     1      -7.921  -2.410  -3.796  0.00  0.00    -0.273 OA
ATOM      5  N   UNL     1      -9.983  -2.513  -4.609  0.00  0.00    -0.277 N 
ATOM      6  H   UNL     1     -10.858  -2.103  -4.693  0.00  0.00    +0.155 HD
BRANCH   5   7
ATOM      7  C   UNL     1      -9.727  -3.735  -5.217  0.00  0.00    +0.090 A 
ATOM      8  C   UNL     1     -10.585  -4.516  -5.972  0.00  0.00    +0.084 A 
ATOM      9  C   UNL     1     -10.067  -5.766  -6.511  0.00  0.00    -0.018 A 
ATOM     10  C   UNL     1      -8.782  -6.035  -6.190  0.00  0.00    -0.004 A 
ATOM     11  S   UNL     1      -8.260  -4.655  -5.209  0.00  0.00    -0.077 S 
ATOM     12  C   UNL     1      -7.978  -7.240  -6.567  0.00  0.00    +0.043 C 
ATOM     13  C   UNL     1      -8.126  -7.497  -8.072  0.00  0.00    +0.005 C 
ATOM     14  C   UNL     1      -9.327  -8.412  -8.290  0.00  0.00    +0.001 C 
ATOM     15  C   UNL     1     -10.399  -8.130  -7.240  0.00  0.00    +0.005 C 
ATOM     16  C   UNL     1     -10.910  -6.699  -7.371  0.00  0.00    +0.037 C 
BRANCH   8  17
ATOM     17  C   UNL     1     -11.935  -4.108  -6.218  0.00  0.00    +0.102 C 
ATOM     18  N   UNL     1     -13.007  -3.783  -6.414  0.00  0.00    -0.191 NA
ENDBRANCH   8  17
ENDBRANCH   5   7
ENDBRANCH   2   3
BRANCH   2  19
ATOM     19  N   UNL     1      -8.091  -0.114  -2.539  0.00  0.00    -0.333 N 
ATOM     20  H   UNL     1      -7.216  -0.420  -2.825  0.00  0.00    +0.147 HD
BRANCH  19  21
ATOM     21  C   UNL     1      -8.204   0.758  -1.465  0.00  0.00    +0.040 A 
ATOM     22  C   UNL     1      -9.457   1.114  -0.982  0.00  0.00    +0.024 A 
ATOM     23  C   UNL     1      -9.567   1.985   0.082  0.00  0.00    +0.002 A 
ATOM     24  C   UNL     1      -8.432   2.508   0.681  0.00  0.00    +0.001 A 
ATOM     25  C   UNL     1      -7.180   2.163   0.220  0.00  0.00    +0.015 A 
ATOM     26  C   UNL     1      -7.052   1.282  -0.857  0.00  0.00    +0.057 A 
BRANCH  26  27
ATOM     27  C   UNL     1      -5.716   0.909  -1.355  0.00  0.00    +0.246 C 
ATOM     28  O   UNL     1      -5.604   0.062  -2.220  0.00  0.00    -0.270 OA
ATOM     29  N   UNL     1      -4.618   1.507  -0.852  0.00  0.00    -0.309 N 
ATOM     30  H   UNL     1      -4.707   2.183  -0.162  0.00  0.00    +0.149 HD
BRANCH  29  31
ATOM     31  C   UNL     1      -3.290   1.137  -1.348  0.00  0.00    +0.136 C 
BRANCH  31  32
ATOM     32  C   UNL     1      -2.225   1.958  -0.617  0.00  0.00    +0.135 C 
ATOM     33  C   UNL     1      -0.836   1.667  -1.217  0.00  0.00    +0.035 C 
ATOM     34  C   UNL     1      -0.008   1.141  -0.019  0.00  0.00    +0.031 C 
ATOM     35  C   UNL     1      -0.804   1.688   1.193  0.00  0.00    +0.160 C 
ATOM     36  O   UNL     1      -2.181   1.577   0.769  0.00  0.00    -0.375 OA
ENDBRANCH  31  32
ENDBRANCH  29  31
ENDBRANCH  26  27
ENDBRANCH  19  21
ENDBRANCH   2  19
TORSDOF 8
