REMARK  Name = ZINC22291382
REMARK  10 active torsions:
REMARK  status: ('A' for Active; 'I' for Inactive)
REMARK    1  A    between atoms: C_1  and  C_2
REMARK    2  A    between atoms: C_2  and  C_3
REMARK    3  A    between atoms: C_3  and  C_5
REMARK    4  A    between atoms: C_3  and  C_6
REMARK    5  A    between atoms: C_6  and  C_8
REMARK    6  A    between atoms: C_6  and  N_24
REMARK    7  A    between atoms: C_13  and  C_16
REMARK    8  A    between atoms: C_16  and  N_17
REMARK    9  A    between atoms: C_20  and  C_23
REMARK   10  A    between atoms: C_25  and  C_27
REMARK                            x       y       z     vdW  Elec       q    Type
REMARK                         _______ _______ _______ _____ _____    ______ ____
ROOT
ATOM      1  C   UNL     1      -0.600  -2.582  -1.434  0.00  0.00    +0.239 C 
ATOM      2  O   UNL     1      -1.111  -3.223  -0.540  0.00  0.00    -0.273 OA
ATOM      3  N   UNL     1      -1.276  -2.366  -2.579  0.00  0.00    -0.263 N 
ATOM      4  C   UNL     1      -2.515  -2.964  -2.779  0.00  0.00    +0.165 A 
ATOM      5  N   UNL     1      -3.308  -2.873  -3.824  0.00  0.00    -0.231 NA
ATOM      6  C   UNL     1      -4.464  -3.509  -3.861  0.00  0.00    +0.034 A 
ATOM      7  C   UNL     1      -4.792  -4.255  -2.777  0.00  0.00    +0.070 A 
ATOM      8  S   UNL     1      -3.361  -3.988  -1.744  0.00  0.00    -0.060 S 
ATOM      9  H   UNL     1      -0.899  -1.792  -3.264  0.00  0.00    +0.157 HD
ENDROOT
BRANCH   1  10
ATOM     10  C   UNL     1       0.791  -2.029  -1.264  0.00  0.00    +0.162 C 
BRANCH  10  11
ATOM     11  N   UNL     1       1.531  -2.852  -0.304  0.00  0.00    -0.300 N 
ATOM     12  C   UNL     1       2.877  -2.895  -0.350  0.00  0.00    +0.245 C 
ATOM     13  O   UNL     1       3.478  -2.251  -1.188  0.00  0.00    -0.270 OA
ATOM     14  H   UNL     1       1.052  -3.366   0.364  0.00  0.00    +0.150 HD
BRANCH  12  15
ATOM     15  C   UNL     1       3.624  -3.726   0.618  0.00  0.00    +0.037 A 
ATOM     16  C   UNL     1       2.937  -4.472   1.578  0.00  0.00    +0.013 A 
ATOM     17  C   UNL     1       3.639  -5.246   2.478  0.00  0.00    +0.001 A 
ATOM     18  C   UNL     1       5.022  -5.283   2.432  0.00  0.00    +0.000 A 
ATOM     19  C   UNL     1       5.709  -4.546   1.484  0.00  0.00    +0.001 A 
ATOM     20  C   UNL     1       5.018  -3.773   0.574  0.00  0.00    +0.013 A 
ENDBRANCH  12  15
ENDBRANCH  10  11
BRANCH  10  21
ATOM     21  C   UNL     1       0.708  -0.592  -0.746  0.00  0.00    +0.015 C 
ATOM     22  C   UNL     1       0.112  -0.591   0.663  0.00  0.00    +0.010 C 
BRANCH  21  24
ATOM     23  C   UNL     1       2.016   1.492  -0.307  0.00  0.00    +0.004 C 
ATOM     24  C   UNL     1       2.111   0.018  -0.706  0.00  0.00    +0.002 C 
ENDBRANCH  21  24
ENDBRANCH  10  21
ENDBRANCH   1  10
BRANCH   6  25
ATOM     25  C   UNL     1      -5.379  -3.410  -5.054  0.00  0.00    -0.022 C 
BRANCH  25  26
ATOM     26  N   UNL     1      -6.217  -2.210  -4.931  0.00  0.00    +0.383 N 
ATOM     27  C   UNL     1      -5.367  -1.014  -4.982  0.00  0.00    -0.078 C 
ATOM     28  C   UNL     1      -6.225   0.235  -4.772  0.00  0.00    -0.016 C 
ATOM     29  C   UNL     1      -7.284   0.312  -5.876  0.00  0.00    -0.018 C 
ATOM     30  C   UNL     1      -8.117  -0.973  -5.861  0.00  0.00    -0.016 C 
ATOM     31  C   UNL     1      -7.189  -2.178  -6.030  0.00  0.00    -0.078 C 
ATOM     32  C   UNL     1      -8.196   1.516  -5.628  0.00  0.00    +0.007 C 
ATOM     33  H   UNL     1      -6.708  -2.233  -4.050  0.00  0.00    -0.081 HD
ENDBRANCH  25  26
ENDBRANCH   6  25
TORSDOF 7
