REMARK  Name = ZINC63511998
REMARK  7 active torsions:
REMARK  status: ('A' for Active; 'I' for Inactive)
REMARK    1  A    between atoms: C_1  and  C_2
REMARK    2  A    between atoms: C_3  and  O_28
REMARK    3  A    between atoms: C_12  and  C_13
REMARK    4  A    between atoms: C_13  and  N_14
REMARK    5  A    between atoms: N_14  and  C_15
REMARK    6  A    between atoms: C_15  and  C_22
REMARK    7  A    between atoms: C_24  and  C_27
REMARK                            x       y       z     vdW  Elec       q    Type
REMARK                         _______ _______ _______ _____ _____    ______ ____
ROOT
ATOM      1  N   UNL     1      -1.405  -4.863   2.295  0.00  0.00    +0.390 N 
ATOM      2  H   UNL     1      -1.634  -4.489   1.386  0.00  0.00    -0.084 HD
ATOM      3  H   UNL     1      -0.468  -4.587   2.546  0.00  0.00    -0.084 HD
ENDROOT
BRANCH   1   4
ATOM      4  C   UNL     1      -1.490  -6.329   2.257  0.00  0.00    -0.003 C 
ATOM      5  C   UNL     1      -0.615  -6.839   1.144  0.00  0.00    -0.005 C 
ATOM      6  C   UNL     1      -0.495  -5.737   0.071  0.00  0.00    -0.001 C 
ATOM      7  C   UNL     1      -1.657  -5.687  -0.804  0.00  0.00    -0.000 C 
ATOM      8  C   UNL     1      -2.955  -5.356  -0.039  0.00  0.00    -0.000 C 
ATOM      9  C   UNL     1      -3.452  -6.611   0.626  0.00  0.00    -0.001 C 
ATOM     10  C   UNL     1      -2.965  -6.739   2.082  0.00  0.00    -0.005 C 
BRANCH   4  11
ATOM     11  C   UNL     1      -0.983  -6.880   3.565  0.00  0.00    +0.161 A 
ATOM     12  N   UNL     1       0.212  -6.619   4.108  0.00  0.00    -0.198 NA
ATOM     13  C   UNL     1       0.337  -7.253   5.240  0.00  0.00    +0.224 A 
ATOM     14  O   UNL     1      -0.787  -7.947   5.459  0.00  0.00    -0.338 OA
ATOM     15  N   UNL     1      -1.637  -7.684   4.353  0.00  0.00    -0.063 NA
ATOM     16  C   UNL     1       1.540  -7.212   6.148  0.00  0.00    +0.112 C 
ENDBRANCH   4  11
ENDBRANCH   1   4
BRANCH   1  17
ATOM     17  C   UNL     1      -2.352  -4.343   3.290  0.00  0.00    -0.044 C 
BRANCH  17  29
ATOM     18  C   UNL     1       0.133   1.113   5.380  0.00  0.00    +0.051 C 
ATOM     19  C   UNL     1      -0.030  -0.381   5.261  0.00  0.00    +0.034 A 
ATOM     20  C   UNL     1       0.787  -1.230   5.989  0.00  0.00    +0.123 A 
ATOM     21  C   UNL     1       0.645  -2.612   5.885  0.00  0.00    +0.046 A 
ATOM     22  C   UNL     1      -0.304  -3.149   5.064  0.00  0.00    +0.015 A 
ATOM     23  C   UNL     1      -1.139  -2.307   4.321  0.00  0.00    +0.019 A 
ATOM     24  C   UNL     1      -1.003  -0.909   4.426  0.00  0.00    +0.146 A 
ATOM     25  O   UNL     1      -1.814  -0.100   3.712  0.00  0.00    -0.422 OA
ATOM     26  C   UNL     1      -2.760  -0.596   2.899  0.00  0.00    +0.337 A 
ATOM     27  O   UNL     1      -3.469   0.173   2.274  0.00  0.00    -0.245 OA
ATOM     28  C   UNL     1      -2.955  -1.984   2.751  0.00  0.00    +0.094 A 
ATOM     29  C   UNL     1      -2.165  -2.855   3.432  0.00  0.00    -0.047 A 
BRANCH  20  30
ATOM     30  O   UNL     1       1.735  -0.711   6.810  0.00  0.00    -0.506 OA
ATOM     31  H   UNL     1       1.429  -0.550   7.713  0.00  0.00    +0.292 HD
ENDBRANCH  20  30
ENDBRANCH  17  29
ENDBRANCH   1  17
TORSDOF 5
