REMARK  Name = ZINC38585627
REMARK  8 active torsions:
REMARK  status: ('A' for Active; 'I' for Inactive)
REMARK    1  A    between atoms: C_1  and  C_2
REMARK    2  A    between atoms: C_7  and  O_25
REMARK    3  A    between atoms: C_13  and  C_15
REMARK    4  A    between atoms: C_15  and  C_16
REMARK    5  A    between atoms: C_16  and  N_18
REMARK    6  A    between atoms: O_25  and  C_26
REMARK    7  A    between atoms: C_26  and  C_27
REMARK    8  A    between atoms: C_27  and  C_29
REMARK                            x       y       z     vdW  Elec       q    Type
REMARK                         _______ _______ _______ _____ _____    ______ ____
ROOT
ATOM      1  C   UNL     1      -0.019   1.526   0.010  0.00  0.00    +0.013 C 
ATOM      2  C   UNL     1       0.002  -0.004   0.002  0.00  0.00    +0.034 C 
ATOM      3  C   UNL     1      -1.413  -0.524   0.009  0.00  0.00    -0.001 A 
ATOM      4  C   UNL     1      -2.362   0.134  -0.759  0.00  0.00    +0.011 A 
ATOM      5  C   UNL     1      -3.668  -0.310  -0.789  0.00  0.00    +0.046 A 
ATOM      6  C   UNL     1      -4.039  -1.424  -0.048  0.00  0.00    +0.124 A 
ATOM      7  C   UNL     1      -3.095  -2.082   0.722  0.00  0.00    +0.092 A 
ATOM      8  C   UNL     1      -1.781  -1.631   0.754  0.00  0.00    +0.139 A 
ATOM      9  O   UNL     1      -0.889  -2.295   1.540  0.00  0.00    -0.425 OA
ATOM     10  C   UNL     1       0.414  -1.979   1.408  0.00  0.00    +0.317 C 
ATOM     11  O   UNL     1       1.276  -2.826   1.423  0.00  0.00    -0.250 OA
ATOM     12  C   UNL     1       0.747  -0.510   1.241  0.00  0.00    +0.114 C 
ENDROOT
BRANCH  12  13
ATOM     13  C   UNL     1       0.290   0.271   2.476  0.00  0.00    +0.113 C 
BRANCH  13  14
ATOM     14  C   UNL     1       1.113  -0.147   3.667  0.00  0.00    +0.240 C 
ATOM     15  O   UNL     1       1.982  -0.989   3.541  0.00  0.00    -0.274 OA
BRANCH  14  16
ATOM     16  N   UNL     1       0.890   0.403   4.854  0.00  0.00    -0.146 NA
ATOM     17  C   UNL     1       1.619   0.034   5.909  0.00  0.00    +0.215 A 
ATOM     18  H   UNL     1       0.870   1.181   7.476  0.00  0.00    +0.170 HD
ATOM     19  N   UNL     1       1.502   0.509   7.176  0.00  0.00    -0.316 N 
ATOM     20  C   UNL     1       2.430  -0.126   7.959  0.00  0.00    +0.221 A 
ATOM     21  N   UNL     1       3.099  -0.958   7.227  0.00  0.00    -0.162 NA
ATOM     22  N   UNL     1       2.607  -0.887   5.917  0.00  0.00    -0.247 N 
ATOM     23  H   UNL     1       2.918  -1.403   5.157  0.00  0.00    +0.192 HD
ENDBRANCH  14  16
ENDBRANCH  13  14
ENDBRANCH  12  13
BRANCH   6  24
ATOM     24  O   UNL     1      -5.323  -1.866  -0.078  0.00  0.00    -0.488 OA
BRANCH  24  25
ATOM     25  C   UNL     1      -6.241  -1.136  -0.895  0.00  0.00    +0.259 C 
BRANCH  25  26
ATOM     26  C   UNL     1      -7.607  -1.768  -0.803  0.00  0.00    -0.043 C 
ATOM     27  C   UNL     1      -7.790  -2.825  -0.052  0.00  0.00    +0.011 C 
ATOM     28  C   UNL     1      -8.761  -1.183  -1.577  0.00  0.00    +0.042 C 
ENDBRANCH  25  26
ENDBRANCH  24  25
ENDBRANCH   6  24
TORSDOF 6
