REMARK  Name = ZINC20728647
REMARK  7 active torsions:
REMARK  status: ('A' for Active; 'I' for Inactive)
REMARK    1  A    between atoms: C_11  and  C_12
REMARK    2  A    between atoms: C_15  and  C_18
REMARK    3  A    between atoms: N_20  and  C_21
REMARK    4  A    between atoms: C_21  and  C_22
REMARK    5  A    between atoms: C_22  and  C_23
REMARK    6  A    between atoms: C_23  and  S_24
REMARK    7  A    between atoms: S_24  and  C_25
REMARK                            x       y       z     vdW  Elec       q    Type
REMARK                         _______ _______ _______ _____ _____    ______ ____
ROOT
ATOM      1  C   UNL     1       4.796  -0.566  -0.301  0.00  0.00    -0.024 A 
ATOM      2  C   UNL     1       4.605   0.822  -0.261  0.00  0.00    +0.009 A 
ATOM      3  C   UNL     1       3.365   1.346  -0.486  0.00  0.00    +0.013 A 
ATOM      4  C   UNL     1       2.285   0.499  -0.755  0.00  0.00    +0.037 A 
ATOM      5  C   UNL     1       2.473  -0.886  -0.790  0.00  0.00    +0.013 A 
ATOM      6  C   UNL     1       3.713  -1.413  -0.572  0.00  0.00    +0.009 A 
ENDROOT
BRANCH   1  17
ATOM      7  C   UNL     1       6.519  -7.474   0.363  0.00  0.00    +0.002 A 
ATOM      8  C   UNL     1       7.802  -7.106  -0.001  0.00  0.00    +0.001 A 
ATOM      9  C   UNL     1       8.197  -5.787   0.112  0.00  0.00    +0.017 A 
ATOM     10  C   UNL     1       7.307  -4.837   0.588  0.00  0.00    +0.034 A 
ATOM     11  C   UNL     1       6.009  -5.197   0.958  0.00  0.00    +0.048 A 
ATOM     12  C   UNL     1       5.629  -6.534   0.838  0.00  0.00    +0.024 A 
ATOM     13  N   UNL     1       5.080  -4.285   1.437  0.00  0.00    -0.280 N 
ATOM     14  C   UNL     1       5.106  -2.956   1.278  0.00  0.00    +0.255 C 
ATOM     15  O   UNL     1       4.181  -2.278   1.682  0.00  0.00    -0.269 OA
ATOM     16  C   UNL     1       6.257  -2.306   0.607  0.00  0.00    +0.075 C 
ATOM     17  C   UNL     1       6.129  -1.131  -0.060  0.00  0.00    +0.028 C 
ATOM     18  S   UNL     1       7.812  -3.149   0.733  0.00  0.00    -0.082 S 
ATOM     19  H   UNL     1       4.212  -4.636   2.015  0.00  0.00    +0.155 HD
ENDBRANCH   1  17
BRANCH   4  20
ATOM     20  C   UNL     1       0.945   1.067  -0.997  0.00  0.00    +0.244 C 
ATOM     21  O   UNL     1       0.779   2.272  -0.961  0.00  0.00    -0.270 OA
ATOM     22  N   UNL     1      -0.097   0.252  -1.256  0.00  0.00    -0.311 N 
ATOM     23  H   UNL     1       0.052  -0.838  -1.284  0.00  0.00    +0.149 HD
BRANCH  22  24
ATOM     24  C   UNL     1      -1.426   0.816  -1.502  0.00  0.00    +0.105 C 
BRANCH  24  25
ATOM     25  C   UNL     1      -2.418  -0.316  -1.776  0.00  0.00    +0.029 C 
BRANCH  25  26
ATOM     26  C   UNL     1      -3.807   0.274  -2.032  0.00  0.00    +0.071 C 
BRANCH  26  27
ATOM     27  S   UNL     1      -4.983  -1.068  -2.357  0.00  0.00    -0.157 S 
BRANCH  27  28
ATOM     28  C   UNL     1      -6.558  -0.213  -2.637  0.00  0.00    +0.046 C 
ATOM     29  C   UNL     1      -6.993   0.490  -1.349  0.00  0.00    +0.014 C 
ATOM     30  C   UNL     1      -8.321   1.211  -1.586  0.00  0.00    +0.001 C 
ATOM     31  C   UNL     1      -9.388   0.194  -1.997  0.00  0.00    +0.000 C 
ATOM     32  C   UNL     1      -8.953  -0.509  -3.285  0.00  0.00    +0.001 C 
ATOM     33  C   UNL     1      -7.624  -1.230  -3.048  0.00  0.00    +0.014 C 
ENDBRANCH  27  28
ENDBRANCH  26  27
ENDBRANCH  25  26
ENDBRANCH  24  25
ENDBRANCH  22  24
ENDBRANCH   4  20
TORSDOF 7
