REMARK  Name = ZINC59044628
REMARK  10 active torsions:
REMARK  status: ('A' for Active; 'I' for Inactive)
REMARK    1  A    between atoms: C_1  and  C_2
REMARK    2  A    between atoms: C_2  and  C_3
REMARK    3  A    between atoms: C_3  and  C_5
REMARK    4  A    between atoms: C_3  and  C_6
REMARK    5  A    between atoms: C_9  and  N_12
REMARK    6  A    between atoms: C_13  and  C_15
REMARK    7  A    between atoms: C_15  and  S_16
REMARK    8  A    between atoms: S_16  and  C_17
REMARK    9  A    between atoms: C_20  and  C_23
REMARK   10  A    between atoms: N_21  and  N_22
REMARK                            x       y       z     vdW  Elec       q    Type
REMARK                         _______ _______ _______ _____ _____    ______ ____
ROOT
ATOM      1  S   UNL     1       4.317  -8.671   0.590  0.00  0.00    -0.075 S 
ENDROOT
BRANCH   1   2
ATOM      2  C   UNL     1       4.292 -10.421   0.381  0.00  0.00    +0.209 A 
ATOM      3  N   UNL     1       3.224 -11.183   0.314  0.00  0.00    -0.121 NA
ATOM      4  N   UNL     1       3.567 -12.411   0.158  0.00  0.00    -0.127 NA
ATOM      5  C   UNL     1       4.875 -12.509   0.116  0.00  0.00    +0.182 A 
ATOM      6  N   UNL     1       5.380 -11.236   0.252  0.00  0.00    -0.224 N 
BRANCH   5   7
ATOM      7  C   UNL     1       5.659 -13.752  -0.052  0.00  0.00    +0.022 A 
ATOM      8  C   UNL     1       7.024 -13.763   0.236  0.00  0.00    +0.012 A 
ATOM      9  C   UNL     1       7.750 -14.926   0.078  0.00  0.00    +0.002 A 
ATOM     10  C   UNL     1       7.127 -16.079  -0.365  0.00  0.00    +0.015 A 
ATOM     11  C   UNL     1       5.773 -16.075  -0.653  0.00  0.00    +0.019 A 
ATOM     12  C   UNL     1       5.034 -14.919  -0.493  0.00  0.00    +0.027 A 
ATOM     13 BR   UNL     1       4.932 -17.656  -1.258  0.00  0.00    -0.050 Br
ENDBRANCH   5   7
BRANCH   6  14
ATOM     14  N   UNL     1       6.695 -10.866   0.260  0.00  0.00    -0.295 N 
ATOM     15  H   UNL     1       7.069 -10.881   1.196  0.00  0.00    +0.163 HD
ATOM     16  H   UNL     1       7.239 -11.452  -0.357  0.00  0.00    +0.163 HD
ENDBRANCH   6  14
ENDBRANCH   1   2
BRANCH   1  17
ATOM     17  C   UNL     1       2.564  -8.217   0.694  0.00  0.00    +0.173 C 
BRANCH  17  19
ATOM     18  N   UNL     1       1.224  -6.157   0.979  0.00  0.00    -0.285 N 
ATOM     19  C   UNL     1       2.441  -6.726   0.877  0.00  0.00    +0.227 C 
ATOM     20  O   UNL     1       3.438  -6.038   0.931  0.00  0.00    -0.275 OA
ATOM     21  H   UNL     1       0.430  -6.714   1.013  0.00  0.00    +0.155 HD
BRANCH  18  25
ATOM     22  C   UNL     1       0.868  -2.010   1.152  0.00  0.00    -0.044 A 
ATOM     23  C   UNL     1       1.879  -2.585   0.404  0.00  0.00    +0.006 A 
ATOM     24  C   UNL     1       2.000  -3.960   0.345  0.00  0.00    +0.023 A 
ATOM     25  C   UNL     1       1.105  -4.764   1.038  0.00  0.00    +0.033 A 
ATOM     26  C   UNL     1       0.091  -4.184   1.788  0.00  0.00    +0.023 A 
ATOM     27  C   UNL     1      -0.022  -2.808   1.847  0.00  0.00    +0.006 A 
BRANCH  22  28
ATOM     28  C   UNL     1       0.739  -0.510   1.215  0.00  0.00    +0.016 C 
ATOM     29  C   UNL     1       0.511   0.042  -0.194  0.00  0.00    +0.012 C 
BRANCH  28  31
ATOM     30  C   UNL     1       1.846   1.597   1.974  0.00  0.00    +0.004 C 
ATOM     31  C   UNL     1       2.023   0.088   1.794  0.00  0.00    +0.004 C 
ENDBRANCH  28  31
ENDBRANCH  22  28
ENDBRANCH  18  25
ENDBRANCH  17  19
ENDBRANCH   1  17
TORSDOF 8
