REMARK  Name = ZINC35642985
REMARK  11 active torsions:
REMARK  status: ('A' for Active; 'I' for Inactive)
REMARK    1  A    between atoms: C_1  and  C_2
REMARK    2  A    between atoms: C_2  and  C_3
REMARK    3  A    between atoms: C_3  and  N_4
REMARK    4  A    between atoms: N_10  and  C_13
REMARK    5  A    between atoms: C_13  and  C_14
REMARK    6  A    between atoms: C_15  and  C_30
REMARK    7  A    between atoms: C_16  and  C_23
REMARK    8  A    between atoms: N_21  and  C_22
REMARK    9  A    between atoms: C_30  and  O_32
REMARK   10  A    between atoms: O_32  and  C_33
REMARK   11  A    between atoms: C_33  and  C_34
REMARK                            x       y       z     vdW  Elec       q    Type
REMARK                         _______ _______ _______ _____ _____    ______ ____
ROOT
ATOM      1  C   UNL     1       0.151  -8.538   4.191  0.00  0.00    +0.041 C 
ATOM      2  C   UNL     1      -0.228  -8.716   5.475  0.00  0.00    +0.080 C 
ATOM      3  C   UNL     1       0.566  -9.696   6.314  0.00  0.00    +0.144 C 
ATOM      4  N   UNL     1       1.693 -10.379   5.656  0.00  0.00    -0.288 N 
ATOM      5  C   UNL     1       1.948 -10.095   4.363  0.00  0.00    +0.307 C 
ATOM      6  O   UNL     1       2.876 -10.653   3.811  0.00  0.00    -0.252 OA
ATOM      7  N   UNL     1       1.209  -9.223   3.666  0.00  0.00    -0.260 N 
ATOM      8  C   UNL     1       1.560  -8.985   2.264  0.00  0.00    +0.139 C 
ATOM      9  H   UNL     1       2.239 -11.017   6.141  0.00  0.00    +0.151 HD
ENDROOT
BRANCH   3  10
ATOM     10  C   UNL     1      -0.384 -10.751   6.819  0.00  0.00    -0.020 A 
ATOM     11  C   UNL     1      -0.760 -11.794   5.994  0.00  0.00    +0.006 A 
ATOM     12  C   UNL     1      -1.632 -12.763   6.456  0.00  0.00    +0.003 A 
ATOM     13  C   UNL     1      -2.129 -12.689   7.744  0.00  0.00    +0.038 A 
ATOM     14  C   UNL     1      -1.752 -11.644   8.571  0.00  0.00    +0.124 A 
ATOM     15  C   UNL     1      -0.875 -10.678   8.109  0.00  0.00    +0.044 A 
ATOM     16  F   UNL     1      -2.238 -11.571   9.830  0.00  0.00    -0.205 F 
ENDBRANCH   3  10
BRANCH   2  17
ATOM     17  C   UNL     1      -1.327  -8.011   6.018  0.00  0.00    +0.339 C 
ATOM     18  O   UNL     1      -1.138  -7.077   6.775  0.00  0.00    -0.245 OA
BRANCH  17  19
ATOM     19  O   UNL     1      -2.587  -8.373   5.696  0.00  0.00    -0.462 OA
BRANCH  19  20
ATOM     20  C   UNL     1      -3.649  -7.617   6.280  0.00  0.00    +0.229 C 
ATOM     21  C   UNL     1      -4.992  -8.172   5.802  0.00  0.00    +0.048 C 
ENDBRANCH  19  20
ENDBRANCH  17  19
ENDBRANCH   2  17
BRANCH   1  22
ATOM     22  C   UNL     1      -0.612  -7.572   3.320  0.00  0.00    +0.136 C 
BRANCH  22  29
ATOM     23  N   UNL     1       0.609  -1.816   1.576  0.00  0.00    -0.299 N 
ATOM     24  C   UNL     1       1.187  -2.506   2.579  0.00  0.00    +0.302 C 
ATOM     25  O   UNL     1       1.713  -1.913   3.501  0.00  0.00    -0.253 OA
ATOM     26  N   UNL     1       1.181  -3.854   2.561  0.00  0.00    -0.283 N 
ATOM     27  C   UNL     1       0.654  -4.591   1.402  0.00  0.00    +0.124 C 
ATOM     28  C   UNL     1      -0.359  -5.625   1.903  0.00  0.00    +0.104 C 
ATOM     29  N   UNL     1       0.268  -6.460   2.936  0.00  0.00    -0.294 NA
ATOM     30  C   UNL     1       0.648  -5.660   4.109  0.00  0.00    +0.104 C 
ATOM     31  C   UNL     1       1.708  -4.627   3.696  0.00  0.00    +0.124 C 
ATOM     32  H   UNL     1       0.254  -2.286   0.805  0.00  0.00    +0.150 HD
BRANCH  23  33
ATOM     33  C   UNL     1       0.516  -0.356   1.650  0.00  0.00    +0.105 C 
BRANCH  33  35
ATOM     34  C   UNL     1      -0.274   1.700   0.471  0.00  0.00    +0.005 C 
ATOM     35  C   UNL     1      -0.177   0.175   0.394  0.00  0.00    +0.015 C 
ENDBRANCH  33  35
ENDBRANCH  23  33
ENDBRANCH  22  29
ENDBRANCH   1  22
TORSDOF 8
