REMARK  Name = ZINC40645887
REMARK  8 active torsions:
REMARK  status: ('A' for Active; 'I' for Inactive)
REMARK    1  A    between atoms: C_4  and  C_7
REMARK    2  A    between atoms: C_7  and  C_8
REMARK    3  A    between atoms: C_7  and  N_14
REMARK    4  A    between atoms: C_16  and  N_36
REMARK    5  A    between atoms: C_17  and  N_21
REMARK    6  A    between atoms: N_21  and  C_22
REMARK    7  A    between atoms: C_25  and  N_28
REMARK    8  A    between atoms: N_29  and  C_30
REMARK                            x       y       z     vdW  Elec       q    Type
REMARK                         _______ _______ _______ _____ _____    ______ ____
ROOT
ATOM      1  N   UNL     1       4.888  -7.358   1.990  0.00  0.00    -0.316 N 
ATOM      2  C   UNL     1       5.673  -6.990   0.908  0.00  0.00    +0.155 A 
ATOM      3  C   UNL     1       6.423  -7.941   0.224  0.00  0.00    +0.205 A 
ATOM      4  C   UNL     1       7.194  -7.521  -0.855  0.00  0.00    +0.159 A 
ATOM      5  N   UNL     1       7.186  -6.232  -1.192  0.00  0.00    -0.218 NA
ATOM      6  C   UNL     1       6.463  -5.361  -0.518  0.00  0.00    +0.225 A 
ATOM      7  N   UNL     1       5.716  -5.721   0.506  0.00  0.00    -0.218 NA
ATOM      8  H   UNL     1       4.862  -8.284   2.277  0.00  0.00    +0.148 HD
ENDROOT
BRANCH   3   9
ATOM      9  N   UNL     1       6.402  -9.364   0.633  0.00  0.00    +0.063 N 
ATOM     10  O   UNL     1       5.586 -10.118   0.156  0.00  0.00    -0.126 OA
ATOM     11  O   UNL     1       7.200  -9.771   1.444  0.00  0.00    -0.126 OA
ENDBRANCH   3   9
BRANCH   4  12
ATOM     12  N   UNL     1       7.960  -8.430  -1.571  0.00  0.00    -0.297 N 
ATOM     13  H   UNL     1       8.052  -9.342  -1.253  0.00  0.00    +0.154 HD
BRANCH  12  14
ATOM     14  C   UNL     1       8.597  -8.033  -2.745  0.00  0.00    +0.033 A 
ATOM     15  C   UNL     1       8.771  -8.944  -3.782  0.00  0.00    +0.025 A 
ATOM     16  C   UNL     1       9.399  -8.556  -4.944  0.00  0.00    +0.031 A 
ATOM     17  C   UNL     1       9.864  -7.244  -5.080  0.00  0.00    +0.086 A 
ATOM     18  C   UNL     1       9.688  -6.331  -4.035  0.00  0.00    +0.031 A 
ATOM     19  C   UNL     1       9.054  -6.725  -2.879  0.00  0.00    +0.025 A 
BRANCH  17  20
ATOM     20  N   UNL     1      10.488  -6.856  -6.230  0.00  0.00    -0.149 NA
ATOM     21  N   UNL     1      10.376  -7.570  -7.298  0.00  0.00    -0.149 NA
BRANCH  21  22
ATOM     22  C   UNL     1       9.185  -8.173  -7.595  0.00  0.00    +0.086 A 
ATOM     23  C   UNL     1       9.136  -9.204  -8.538  0.00  0.00    +0.029 A 
ATOM     24  C   UNL     1       7.931  -9.807  -8.832  0.00  0.00    +0.002 A 
ATOM     25  C   UNL     1       6.773  -9.394  -8.197  0.00  0.00    +0.000 A 
ATOM     26  C   UNL     1       6.814  -8.373  -7.263  0.00  0.00    +0.002 A 
ATOM     27  C   UNL     1       8.012  -7.765  -6.954  0.00  0.00    +0.029 A 
ENDBRANCH  21  22
ENDBRANCH  17  20
ENDBRANCH  12  14
ENDBRANCH   4  12
BRANCH   1  28
ATOM     28  C   UNL     1       4.098  -6.349   2.700  0.00  0.00    +0.132 C 
BRANCH  28  32
ATOM     29  C   UNL     1       0.770  -8.230   4.607  0.00  0.00    +0.000 A 
ATOM     30  C   UNL     1       0.612  -7.001   3.993  0.00  0.00    +0.000 A 
ATOM     31  C   UNL     1       1.688  -6.393   3.376  0.00  0.00    +0.006 A 
ATOM     32  C   UNL     1       2.924  -7.012   3.373  0.00  0.00    -0.023 A 
ATOM     33  C   UNL     1       3.083  -8.241   3.987  0.00  0.00    +0.006 A 
ATOM     34  C   UNL     1       2.006  -8.850   4.603  0.00  0.00    +0.000 A 
ENDBRANCH  28  32
BRANCH  28  35
ATOM     35  C   UNL     1       4.958  -5.676   3.738  0.00  0.00    -0.023 A 
ATOM     36  C   UNL     1       5.856  -6.421   4.480  0.00  0.00    +0.006 A 
ATOM     37  C   UNL     1       6.645  -5.803   5.432  0.00  0.00    +0.000 A 
ATOM     38  C   UNL     1       6.537  -4.441   5.642  0.00  0.00    +0.000 A 
ATOM     39  C   UNL     1       5.640  -3.696   4.899  0.00  0.00    +0.000 A 
ATOM     40  C   UNL     1       4.854  -4.313   3.944  0.00  0.00    +0.006 A 
ENDBRANCH  28  35
ENDBRANCH   1  28
TORSDOF 8
