REMARK  Name = ZINC00755421
REMARK  7 active torsions:
REMARK  status: ('A' for Active; 'I' for Inactive)
REMARK    1  A    between atoms: C_1  and  C_2
REMARK    2  A    between atoms: C_3  and  C_27
REMARK    3  A    between atoms: C_4  and  C_21
REMARK    4  A    between atoms: C_8  and  C_19
REMARK    5  A    between atoms: C_9  and  C_18
REMARK    6  A    between atoms: N_10  and  C_11
REMARK    7  A    between atoms: C_27  and  C_29
REMARK                            x       y       z     vdW  Elec       q    Type
REMARK                         _______ _______ _______ _____ _____    ______ ____
ROOT
ATOM      1  C   UNL     1      -4.396  -1.573   2.171  0.00  0.00    +0.066 C 
ATOM      2  C   UNL     1      -3.377  -1.567   1.060  0.00  0.00    +0.050 A 
ATOM      3  C   UNL     1      -2.131  -0.958   1.271  0.00  0.00    +0.048 A 
ATOM      4  C   UNL     1      -1.184  -0.952   0.222  0.00  0.00    +0.020 A 
ATOM      5  C   UNL     1      -1.536  -1.571  -0.983  0.00  0.00    +0.082 A 
ATOM      6  C   UNL     1      -2.806  -2.161  -1.099  0.00  0.00    +0.108 A 
ATOM      7  N   UNL     1      -3.667  -2.136  -0.085  0.00  0.00    -0.248 NA
ATOM      8  C   UNL     1      -2.864  -2.715  -2.462  0.00  0.00    +0.098 A 
ATOM      9  C   UNL     1      -1.665  -2.429  -3.052  0.00  0.00    +0.041 A 
ATOM     10  N   UNL     1      -0.876  -1.752  -2.180  0.00  0.00    -0.310 N 
ATOM     11  C   UNL     1      -1.277  -2.809  -4.458  0.00  0.00    +0.065 C 
ENDROOT
BRANCH  10  12
ATOM     12  C   UNL     1       0.421  -1.303  -2.457  0.00  0.00    +0.047 A 
ATOM     13  C   UNL     1       0.691   0.059  -2.498  0.00  0.00    +0.027 A 
ATOM     14  C   UNL     1       1.972   0.500  -2.767  0.00  0.00    +0.017 A 
ATOM     15  C   UNL     1       2.984  -0.414  -3.005  0.00  0.00    +0.018 A 
ATOM     16  C   UNL     1       2.716  -1.771  -2.969  0.00  0.00    +0.017 A 
ATOM     17  C   UNL     1       1.438  -2.217  -2.696  0.00  0.00    +0.027 A 
ATOM     18 BR   UNL     1       4.735   0.194  -3.378  0.00  0.00    -0.050 Br
ENDBRANCH  10  12
BRANCH   4  19
ATOM     19  C   UNL     1       0.141  -0.316   0.395  0.00  0.00    -0.015 A 
ATOM     20  C   UNL     1       0.237   1.063   0.586  0.00  0.00    +0.008 A 
ATOM     21  C   UNL     1       1.476   1.650   0.746  0.00  0.00    +0.001 A 
ATOM     22  C   UNL     1       2.621   0.874   0.719  0.00  0.00    +0.000 A 
ATOM     23  C   UNL     1       2.532  -0.494   0.530  0.00  0.00    +0.001 A 
ATOM     24  C   UNL     1       1.300  -1.093   0.368  0.00  0.00    +0.008 A 
ENDBRANCH   4  19
BRANCH   3  25
ATOM     25  C   UNL     1      -1.818  -0.332   2.558  0.00  0.00    +0.162 C 
ATOM     26  O   UNL     1      -2.103   0.832   2.752  0.00  0.00    -0.292 OA
ATOM     27  C   UNL     1      -1.144  -1.133   3.642  0.00  0.00    +0.091 C 
ENDBRANCH   3  25
BRANCH   8  28
ATOM     28  C   UNL     1      -3.963  -3.416  -3.055  0.00  0.00    +0.103 C 
ATOM     29  N   UNL     1      -4.835  -3.973  -3.525  0.00  0.00    -0.191 NA
ENDBRANCH   8  28
TORSDOF 4
