REMARK  Name = ZINC33113659
REMARK  10 active torsions:
REMARK  status: ('A' for Active; 'I' for Inactive)
REMARK    1  A    between atoms: C_1  and  C_2
REMARK    2  A    between atoms: C_2  and  O_3
REMARK    3  A    between atoms: O_3  and  C_4
REMARK    4  A    between atoms: C_4  and  C_6
REMARK    5  A    between atoms: C_11  and  O_19
REMARK    6  A    between atoms: C_14  and  N_15
REMARK    7  A    between atoms: C_16  and  C_18
REMARK    8  A    between atoms: O_19  and  C_20
REMARK    9  A    between atoms: C_20  and  C_21
REMARK   10  A    between atoms: N_23  and  C_24
REMARK                            x       y       z     vdW  Elec       q    Type
REMARK                         _______ _______ _______ _____ _____    ______ ____
ROOT
ATOM      1  C   UNL     1      -1.266   1.897   0.043  0.00  0.00    +0.095 A 
ATOM      2  C   UNL     1      -1.920   2.281  -1.212  0.00  0.00    +0.009 A 
ATOM      3  C   UNL     1      -1.482   2.041  -2.535  0.00  0.00    +0.011 A 
ATOM      4  C   UNL     1      -2.222   2.466  -3.608  0.00  0.00    +0.019 A 
ATOM      5  C   UNL     1      -3.423   3.138  -3.433  0.00  0.00    +0.061 A 
ATOM      6  C   UNL     1      -3.884   3.384  -2.149  0.00  0.00    +0.149 A 
ATOM      7  C   UNL     1      -3.142   2.958  -1.063  0.00  0.00    +0.065 A 
ATOM      8  S   UNL     1      -3.371   3.071   0.693  0.00  0.00    -0.069 S 
ATOM      9  C   UNL     1      -1.891   2.237   1.232  0.00  0.00    +0.087 A 
ATOM     10 BR   UNL     1      -4.422   3.712  -4.933  0.00  0.00    -0.046 Br
ENDROOT
BRANCH   9  11
ATOM     11  N   UNL     1      -1.469   1.989   2.524  0.00  0.00    -0.280 N 
ATOM     12  C   UNL     1      -2.217   2.399   3.567  0.00  0.00    +0.214 C 
ATOM     13  O   UNL     1      -3.260   2.986   3.373  0.00  0.00    -0.276 OA
ATOM     14  C   UNL     1      -1.756   2.129   4.977  0.00  0.00    +0.109 C 
ATOM     15  H   UNL     1      -0.523   1.457   2.701  0.00  0.00    +0.155 HD
ENDBRANCH   9  11
BRANCH   1  16
ATOM     16  C   UNL     1      -0.030   1.204   0.041  0.00  0.00    +0.342 C 
ATOM     17  O   UNL     1      -0.014  -0.012   0.031  0.00  0.00    -0.245 OA
BRANCH  16  18
ATOM     18  O   UNL     1       1.130   1.894   0.043  0.00  0.00    -0.461 OA
BRANCH  18  20
ATOM     19  C   UNL     1       3.540   2.079   0.039  0.00  0.00    +0.048 C 
ATOM     20  C   UNL     1       2.338   1.131   0.034  0.00  0.00    +0.229 C 
ENDBRANCH  18  20
ENDBRANCH  16  18
ENDBRANCH   1  16
BRANCH   6  21
ATOM     21  O   UNL     1      -5.059   4.042  -1.959  0.00  0.00    -0.481 OA
BRANCH  21  22
ATOM     22  C   UNL     1      -4.996   5.466  -1.858  0.00  0.00    +0.325 C 
BRANCH  22  23
ATOM     23  C   UNL     1      -6.383   6.016  -1.651  0.00  0.00    +0.255 C 
ATOM     24  O   UNL     1      -7.332   5.263  -1.594  0.00  0.00    -0.272 OA
ATOM     25  N   UNL     1      -6.570   7.346  -1.528  0.00  0.00    -0.283 N 
ATOM     26  H   UNL     1      -5.703   8.022  -1.502  0.00  0.00    +0.155 HD
BRANCH  25  27
ATOM     27  C   UNL     1      -7.866   7.864  -1.432  0.00  0.00    +0.036 A 
ATOM     28  C   UNL     1      -8.166   9.095  -2.003  0.00  0.00    +0.023 A 
ATOM     29  C   UNL     1      -9.447   9.603  -1.911  0.00  0.00    +0.005 A 
ATOM     30  C   UNL     1     -10.429   8.894  -1.244  0.00  0.00    +0.038 A 
ATOM     31  C   UNL     1     -10.132   7.669  -0.669  0.00  0.00    +0.125 A 
ATOM     32  C   UNL     1      -8.852   7.153  -0.762  0.00  0.00    +0.061 A 
ATOM     33  F   UNL     1     -11.093   6.979  -0.017  0.00  0.00    -0.205 F 
ENDBRANCH  25  27
ENDBRANCH  22  23
ENDBRANCH  21  22
ENDBRANCH   6  21
TORSDOF 8
