REMARK  Name = ZINC01120296
REMARK  5 active torsions:
REMARK  status: ('A' for Active; 'I' for Inactive)
REMARK    1  A    between atoms: C_4  and  C_7
REMARK    2  A    between atoms: C_7  and  O_9
REMARK    3  A    between atoms: O_9  and  C_10
REMARK    4  A    between atoms: C_13  and  C_16
REMARK    5  A    between atoms: N_23  and  C_26
REMARK                            x       y       z     vdW  Elec       q    Type
REMARK                         _______ _______ _______ _____ _____    ______ ____
ROOT
ATOM      1  C   UNL     1       8.186  -1.490  -0.085  0.00  0.00    +0.026 C 
ATOM      2  C   UNL     1       8.077  -2.817   0.279  0.00  0.00    +0.100 C 
ATOM      3  C   UNL     1       9.185  -3.770   0.066  0.00  0.00    +0.257 C 
ATOM      4  O   UNL     1      10.230  -3.409  -0.441  0.00  0.00    -0.270 OA
ATOM      5  N   UNL     1       9.005  -5.051   0.447  0.00  0.00    -0.235 N 
ATOM      6  C   UNL     1       7.859  -5.462   1.006  0.00  0.00    +0.320 C 
ATOM      7  O   UNL     1       7.762  -6.631   1.327  0.00  0.00    -0.251 OA
ATOM      8  N   UNL     1       6.813  -4.655   1.231  0.00  0.00    -0.190 N 
ATOM      9  C   UNL     1       6.849  -3.346   0.906  0.00  0.00    +0.263 C 
ATOM     10  O   UNL     1       5.895  -2.623   1.119  0.00  0.00    -0.269 OA
ATOM     11  H   UNL     1       9.723  -5.690   0.314  0.00  0.00    +0.159 HD
ENDROOT
BRANCH   8  12
ATOM     12  C   UNL     1       5.656  -5.182   1.822  0.00  0.00    +0.046 A 
ATOM     13  C   UNL     1       4.485  -5.289   1.084  0.00  0.00    +0.025 A 
ATOM     14  C   UNL     1       3.348  -5.813   1.668  0.00  0.00    +0.017 A 
ATOM     15  C   UNL     1       3.373  -6.221   2.990  0.00  0.00    +0.018 A 
ATOM     16  C   UNL     1       4.537  -6.110   3.729  0.00  0.00    +0.017 A 
ATOM     17  C   UNL     1       5.678  -5.592   3.148  0.00  0.00    +0.025 A 
ATOM     18 BR   UNL     1       1.813  -6.932   3.787  0.00  0.00    -0.050 Br
ENDBRANCH   8  12
BRANCH   1  22
ATOM     19  C   UNL     1       4.776   1.006  -0.024  0.00  0.00    +0.132 A 
ATOM     20  C   UNL     1       4.689  -0.273  -0.566  0.00  0.00    +0.047 A 
ATOM     21  C   UNL     1       5.789  -1.082  -0.594  0.00  0.00    +0.011 A 
ATOM     22  C   UNL     1       7.006  -0.625  -0.064  0.00  0.00    -0.024 A 
ATOM     23  C   UNL     1       7.086   0.663   0.485  0.00  0.00    +0.011 A 
ATOM     24  C   UNL     1       5.980   1.465   0.502  0.00  0.00    +0.047 A 
BRANCH  19  25
ATOM     25  O   UNL     1       3.682   1.808  -0.005  0.00  0.00    -0.422 OA
BRANCH  25  26
ATOM     26  C   UNL     1       3.627   2.792  -0.923  0.00  0.00    +0.344 C 
ATOM     27  O   UNL     1       4.572   2.987  -1.661  0.00  0.00    -0.245 OA
BRANCH  26  31
ATOM     28  C   UNL     1       0.153   5.213  -1.238  0.00  0.00    +0.000 A 
ATOM     29  C   UNL     1       1.230   5.441  -2.077  0.00  0.00    +0.001 A 
ATOM     30  C   UNL     1       2.359   4.655  -1.983  0.00  0.00    +0.015 A 
ATOM     31  C   UNL     1       2.419   3.634  -1.033  0.00  0.00    +0.059 A 
ATOM     32  C   UNL     1       1.331   3.413  -0.186  0.00  0.00    +0.015 A 
ATOM     33  C   UNL     1       0.205   4.202  -0.294  0.00  0.00    +0.001 A 
ENDBRANCH  26  31
ENDBRANCH  25  26
ENDBRANCH  19  25
ENDBRANCH   1  22
TORSDOF 5
