REMARK  Name = ZINC20129886
REMARK  10 active torsions:
REMARK  status: ('A' for Active; 'I' for Inactive)
REMARK    1  A    between atoms: C_1  and  C_2
REMARK    2  A    between atoms: C_2  and  C_3
REMARK    3  A    between atoms: C_3  and  C_5
REMARK    4  A    between atoms: C_3  and  N_6
REMARK    5  A    between atoms: C_10  and  C_11
REMARK    6  A    between atoms: C_12  and  N_23
REMARK    7  A    between atoms: C_17  and  C_22
REMARK    8  A    between atoms: N_26  and  C_29
REMARK    9  A    between atoms: C_29  and  C_30
REMARK   10  A    between atoms: C_30  and  O_31
REMARK                            x       y       z     vdW  Elec       q    Type
REMARK                         _______ _______ _______ _____ _____    ______ ____
ROOT
ATOM      1  C   UNL     1      -2.167   5.786   0.692  0.00  0.00    +0.081 A 
ATOM      2  C   UNL     1      -2.621   7.124   0.624  0.00  0.00    +0.136 A 
ATOM      3  N   UNL     1      -3.916   7.381   0.735  0.00  0.00    -0.214 NA
ATOM      4  C   UNL     1      -4.809   6.408   0.919  0.00  0.00    +0.142 A 
ATOM      5  C   UNL     1      -6.170   6.742   1.034  0.00  0.00    +0.047 A 
ATOM      6  C   UNL     1      -7.091   5.754   1.224  0.00  0.00    +0.008 A 
ATOM      7  C   UNL     1      -6.668   4.420   1.302  0.00  0.00    -0.034 A 
ATOM      8  C   UNL     1      -5.355   4.118   1.188  0.00  0.00    +0.099 A 
ATOM      9  N   UNL     1      -4.427   5.098   0.998  0.00  0.00    -0.267 N 
ATOM     10  C   UNL     1      -3.123   4.761   0.889  0.00  0.00    +0.267 A 
ATOM     11  O   UNL     1      -2.777   3.595   0.959  0.00  0.00    -0.267 OA
ATOM     12  C   UNL     1      -7.678   3.322   1.512  0.00  0.00    +0.045 C 
ENDROOT
BRANCH   1  17
ATOM     13  N   UNL     1       1.737   6.256  -1.963  0.00  0.00    -0.252 N 
ATOM     14  C   UNL     1       1.298   5.785  -0.809  0.00  0.00    +0.259 C 
ATOM     15  O   UNL     1       2.063   5.280  -0.006  0.00  0.00    -0.269 OA
ATOM     16  C   UNL     1      -0.095   5.884  -0.530  0.00  0.00    +0.077 C 
ATOM     17  C   UNL     1      -0.791   5.480   0.572  0.00  0.00    +0.037 C 
ATOM     18  S   UNL     1      -0.684   6.689  -2.014  0.00  0.00    -0.061 S 
ATOM     19  C   UNL     1       0.888   6.816  -2.853  0.00  0.00    +0.121 C 
ATOM     20  S   UNL     1       1.232   7.485  -4.391  0.00  0.00    -0.027 S 
BRANCH  13  21
ATOM     21  C   UNL     1       3.164   6.170  -2.282  0.00  0.00    +0.080 C 
ATOM     22  C   UNL     1       3.354   5.342  -3.554  0.00  0.00    +0.028 C 
BRANCH  21  24
ATOM     23  C   UNL     1       3.647   8.366  -1.192  0.00  0.00    +0.006 C 
ATOM     24  C   UNL     1       3.723   7.578  -2.501  0.00  0.00    +0.019 C 
ENDBRANCH  21  24
ENDBRANCH  13  21
ENDBRANCH   1  17
BRANCH   2  25
ATOM     25  N   UNL     1      -1.723   8.152   0.439  0.00  0.00    -0.312 N 
ATOM     26  C   UNL     1      -0.809   8.266   1.584  0.00  0.00    +0.122 C 
ATOM     27  C   UNL     1       0.220   9.364   1.306  0.00  0.00    +0.103 C 
ATOM     28  N   UNL     1      -0.477  10.635   1.064  0.00  0.00    -0.297 NA
ATOM     29  C   UNL     1      -1.391  10.521  -0.082  0.00  0.00    +0.103 C 
ATOM     30  C   UNL     1      -2.420   9.423   0.197  0.00  0.00    +0.122 C 
BRANCH  28  31
ATOM     31  C   UNL     1       0.480  11.732   0.867  0.00  0.00    +0.112 C 
BRANCH  31  32
ATOM     32  C   UNL     1      -0.222  13.070   1.105  0.00  0.00    +0.171 C 
BRANCH  32  33
ATOM     33  O   UNL     1      -0.614  13.166   2.476  0.00  0.00    -0.394 OA
ATOM     34  H   UNL     1      -1.135  14.064   2.837  0.00  0.00    +0.209 HD
ENDBRANCH  32  33
ENDBRANCH  31  32
ENDBRANCH  28  31
ENDBRANCH   2  25
TORSDOF 7
