REMARK  Name = ZINC37706644
REMARK  7 active torsions:
REMARK  status: ('A' for Active; 'I' for Inactive)
REMARK    1  A    between atoms: C_1  and  C_2
REMARK    2  A    between atoms: C_2  and  C_4
REMARK    3  A    between atoms: C_2  and  N_18
REMARK    4  A    between atoms: C_9  and  O_10
REMARK    5  A    between atoms: O_10  and  C_11
REMARK    6  A    between atoms: C_11  and  C_12
REMARK    7  A    between atoms: N_18  and  C_19
REMARK                            x       y       z     vdW  Elec       q    Type
REMARK                         _______ _______ _______ _____ _____    ______ ____
ROOT
ATOM      1  C   UNL     1       0.731  -0.503   1.223  0.00  0.00    -0.020 A 
ATOM      2  C   UNL     1       0.018  -0.951   2.319  0.00  0.00    +0.005 A 
ATOM      3  C   UNL     1       0.686  -1.408   3.439  0.00  0.00    +0.000 A 
ATOM      4  C   UNL     1       2.069  -1.420   3.466  0.00  0.00    +0.004 A 
ATOM      5  C   UNL     1       2.786  -0.974   2.373  0.00  0.00    +0.046 A 
ATOM      6  C   UNL     1       2.118  -0.519   1.245  0.00  0.00    +0.123 A 
ENDROOT
BRANCH   1   8
ATOM      7  C   UNL     1      -0.019   1.526   0.010  0.00  0.00    -0.009 C 
ATOM      8  C   UNL     1       0.002  -0.004   0.002  0.00  0.00    -0.041 C 
BRANCH   8   9
ATOM      9  N   UNL     1      -1.376  -0.512   0.012  0.00  0.00    +0.382 N 
ATOM     10  C   UNL     1      -2.050  -0.126  -1.234  0.00  0.00    -0.100 C 
ATOM     11  H   UNL     1      -1.363  -1.518   0.090  0.00  0.00    -0.085 HD
ATOM     12  H   UNL     1      -1.873  -0.121   0.799  0.00  0.00    -0.085 HD
ENDBRANCH   8   9
ENDBRANCH   1   8
BRANCH   6  13
ATOM     13  O   UNL     1       2.821  -0.086   0.166  0.00  0.00    -0.487 OA
BRANCH  13  14
ATOM     14  C   UNL     1       4.246  -0.131   0.260  0.00  0.00    +0.271 C 
BRANCH  14  15
ATOM     15  C   UNL     1       4.850   0.385  -1.021  0.00  0.00    +0.028 A 
ATOM     16  C   UNL     1       5.202   1.652  -1.348  0.00  0.00    +0.016 A 
ATOM     17  C   UNL     1       5.746   1.896  -2.596  0.00  0.00    +0.023 A 
ATOM     18  C   UNL     1       5.910   0.860  -3.455  0.00  0.00    +0.055 A 
ATOM     19  S   UNL     1       5.295  -0.515  -2.497  0.00  0.00    -0.083 S 
ATOM     20 BR   UNL     1       6.615   0.868  -5.210  0.00  0.00    -0.043 Br
ENDBRANCH  14  15
ENDBRANCH  13  14
ENDBRANCH   6  13
TORSDOF 5
