REMARK  Name = ZINC02472210
REMARK  6 active torsions:
REMARK  status: ('A' for Active; 'I' for Inactive)
REMARK    1  A    between atoms: C_1  and  C_2
REMARK    2  A    between atoms: C_2  and  C_3
REMARK    3  A    between atoms: C_6  and  C_9
REMARK    4  A    between atoms: C_12  and  C_21
REMARK    5  A    between atoms: C_24  and  C_27
REMARK    6  A    between atoms: C_27  and  C_28
REMARK                            x       y       z     vdW  Elec       q    Type
REMARK                         _______ _______ _______ _____ _____    ______ ____
ROOT
ATOM      1  C   UNL     1       1.231   1.762  -0.000  0.00  0.00    +0.106 C 
ATOM      2  C   UNL     1       1.065   2.918  -0.994  0.00  0.00    +0.058 C 
ATOM      3  C   UNL     1      -0.075   3.835  -0.535  0.00  0.00    +0.143 C 
ATOM      4  N   UNL     1      -1.245   3.014  -0.226  0.00  0.00    -0.224 N 
ATOM      5  C   UNL     1      -1.200   1.683   0.017  0.00  0.00    +0.216 A 
ATOM      6  N   UNL     1      -2.418   1.271   0.245  0.00  0.00    -0.180 NA
ATOM      7  C   UNL     1      -3.265   2.307   0.154  0.00  0.00    +0.233 A 
ATOM      8  N   UNL     1      -2.585   3.393  -0.124  0.00  0.00    -0.132 NA
ATOM      9  N   UNL     1      -4.647   2.242   0.338  0.00  0.00    -0.326 N 
ATOM     10  N   UNL     1      -0.011   0.966   0.007  0.00  0.00    -0.307 N 
ATOM     11  H   UNL     1      -5.069   1.395   0.550  0.00  0.00    +0.145 HD
ATOM     12  H   UNL     1      -5.186   3.044   0.254  0.00  0.00    +0.145 HD
ATOM     13  H   UNL     1       0.002  -0.004   0.002  0.00  0.00    +0.149 HD
ENDROOT
BRANCH   1  17
ATOM     14  C   UNL     1       1.957   3.325   3.909  0.00  0.00    -0.048 A 
ATOM     15  C   UNL     1       3.009   2.848   3.149  0.00  0.00    +0.004 A 
ATOM     16  C   UNL     1       2.774   2.342   1.884  0.00  0.00    +0.006 A 
ATOM     17  C   UNL     1       1.487   2.313   1.379  0.00  0.00    -0.027 A 
ATOM     18  C   UNL     1       0.436   2.796   2.136  0.00  0.00    +0.006 A 
ATOM     19  C   UNL     1       0.671   3.297   3.403  0.00  0.00    +0.004 A 
BRANCH  14  21
ATOM     20  C   UNL     1       2.491   5.378   5.193  0.00  0.00    +0.009 C 
ATOM     21  C   UNL     1       2.213   3.876   5.288  0.00  0.00    +0.032 C 
ENDBRANCH  14  21
ENDBRANCH   1  17
BRANCH   3  22
ATOM     22  C   UNL     1      -0.414   4.808  -1.635  0.00  0.00    -0.023 A 
ATOM     23  C   UNL     1      -0.832   4.340  -2.867  0.00  0.00    +0.006 A 
ATOM     24  C   UNL     1      -1.147   5.232  -3.874  0.00  0.00    +0.004 A 
ATOM     25  C   UNL     1      -1.035   6.592  -3.653  0.00  0.00    -0.048 A 
ATOM     26  C   UNL     1      -0.612   7.060  -2.423  0.00  0.00    +0.004 A 
ATOM     27  C   UNL     1      -0.301   6.168  -1.414  0.00  0.00    +0.006 A 
BRANCH  25  28
ATOM     28  C   UNL     1      -1.373   7.565  -4.754  0.00  0.00    +0.032 C 
ATOM     29  C   UNL     1      -0.119   7.855  -5.581  0.00  0.00    +0.009 C 
ENDBRANCH  25  28
ENDBRANCH   3  22
TORSDOF 4
