REMARK  Name = ZINC38651468
REMARK  9 active torsions:
REMARK  status: ('A' for Active; 'I' for Inactive)
REMARK    1  A    between atoms: C_1  and  C_2
REMARK    2  A    between atoms: C_5  and  O_8
REMARK    3  A    between atoms: O_8  and  C_9
REMARK    4  A    between atoms: C_9  and  C_10
REMARK    5  A    between atoms: C_10  and  O_12
REMARK    6  A    between atoms: O_12  and  C_13
REMARK    7  A    between atoms: C_20  and  N_33
REMARK    8  A    between atoms: C_21  and  C_31
REMARK    9  A    between atoms: C_22  and  C_24
REMARK                            x       y       z     vdW  Elec       q    Type
REMARK                         _______ _______ _______ _____ _____    ______ ____
ROOT
ATOM      1  C   UNL     1       0.089  -8.454   1.970  0.00  0.00    +0.135 A 
ATOM      2  C   UNL     1       0.133  -9.027   0.707  0.00  0.00    +0.047 A 
ATOM      3  C   UNL     1       0.116 -10.402   0.572  0.00  0.00    +0.012 A 
ATOM      4  C   UNL     1       0.054 -11.211   1.693  0.00  0.00    +0.008 A 
ATOM      5  C   UNL     1       0.010 -10.643   2.956  0.00  0.00    +0.138 A 
ATOM      6  C   UNL     1       0.034  -9.261   3.094  0.00  0.00    +0.093 A 
ATOM      7  O   UNL     1      -0.051 -11.420   4.066  0.00  0.00    -0.441 OA
ATOM      8  C   UNL     1       0.312 -12.712   4.001  0.00  0.00    +0.199 C 
ATOM      9  C   UNL     1       0.373 -13.380   2.825  0.00  0.00    +0.098 C 
ATOM     10  C   UNL     1       0.035 -12.707   1.525  0.00  0.00    +0.098 C 
ENDROOT
BRANCH  10  11
ATOM     11  C   UNL     1      -1.338 -13.142   1.080  0.00  0.00    -0.034 A 
ATOM     12  C   UNL     1      -2.438 -12.874   1.873  0.00  0.00    +0.004 A 
ATOM     13  C   UNL     1      -3.698 -13.273   1.465  0.00  0.00    +0.001 A 
ATOM     14  C   UNL     1      -3.857 -13.940   0.265  0.00  0.00    +0.015 A 
ATOM     15  C   UNL     1      -2.756 -14.208  -0.529  0.00  0.00    +0.018 A 
ATOM     16  C   UNL     1      -1.497 -13.804  -0.123  0.00  0.00    +0.020 A 
ATOM     17 BR   UNL     1      -2.974 -15.121  -2.170  0.00  0.00    -0.050 Br
ENDBRANCH  10  11
BRANCH   8  18
ATOM     18  N   UNL     1       0.631 -13.373   5.161  0.00  0.00    -0.328 N 
ATOM     19  H   UNL     1       0.593 -12.908   6.011  0.00  0.00    +0.145 HD
ATOM     20  H   UNL     1       0.895 -14.306   5.130  0.00  0.00    +0.145 HD
ENDBRANCH   8  18
BRANCH   9  21
ATOM     21  C   UNL     1       0.769 -14.757   2.821  0.00  0.00    +0.101 C 
ATOM     22  N   UNL     1       1.082 -15.849   2.817  0.00  0.00    -0.191 NA
ENDBRANCH   9  21
BRANCH   1  23
ATOM     23  O   UNL     1       0.106  -7.101   2.104  0.00  0.00    -0.423 OA
BRANCH  23  24
ATOM     24  C   UNL     1      -1.030  -6.429   1.856  0.00  0.00    +0.350 C 
ATOM     25  O   UNL     1      -2.000  -7.015   1.439  0.00  0.00    -0.247 OA
BRANCH  24  26
ATOM     26  C   UNL     1      -1.093  -4.943   2.097  0.00  0.00    +0.349 C 
BRANCH  26  27
ATOM     27  O   UNL     1      -2.396  -4.461   1.761  0.00  0.00    -0.481 OA
BRANCH  27  32
ATOM     28  C   UNL     1      -3.336   1.052   2.433  0.00  0.00    +0.044 C 
ATOM     29  C   UNL     1      -3.084  -0.423   2.253  0.00  0.00    -0.050 A 
ATOM     30  C   UNL     1      -4.093  -1.243   1.782  0.00  0.00    +0.007 A 
ATOM     31  C   UNL     1      -3.865  -2.595   1.616  0.00  0.00    +0.046 A 
ATOM     32  C   UNL     1      -2.623  -3.131   1.923  0.00  0.00    +0.121 A 
ATOM     33  C   UNL     1      -1.612  -2.306   2.395  0.00  0.00    +0.046 A 
ATOM     34  C   UNL     1      -1.843  -0.953   2.554  0.00  0.00    +0.007 A 
ENDBRANCH  27  32
ENDBRANCH  26  27
ENDBRANCH  24  26
ENDBRANCH  23  24
ENDBRANCH   1  23
TORSDOF 8
