REMARK  Name = ZINC39974010
REMARK  7 active torsions:
REMARK  status: ('A' for Active; 'I' for Inactive)
REMARK    1  A    between atoms: C_1  and  C_2
REMARK    2  A    between atoms: C_6  and  C_8
REMARK    3  A    between atoms: C_10  and  C_13
REMARK    4  A    between atoms: C_13  and  N_14
REMARK    5  A    between atoms: N_14  and  C_15
REMARK    6  A    between atoms: C_15  and  N_17
REMARK    7  A    between atoms: N_17  and  C_18
REMARK                            x       y       z     vdW  Elec       q    Type
REMARK                         _______ _______ _______ _____ _____    ______ ____
ROOT
ATOM      1  N   UNL     1      -1.287  -6.676   3.787  0.00  0.00    -0.321 N 
ATOM      2  H   UNL     1      -2.037  -6.063   3.832  0.00  0.00    +0.148 HD
ENDROOT
BRANCH   1   3
ATOM      3  C   UNL     1      -1.489  -8.000   3.928  0.00  0.00    +0.135 C 
ATOM      4  S   UNL     1      -0.165  -9.082   3.849  0.00  0.00    -0.019 S 
BRANCH   3   5
ATOM      5  N   UNL     1      -2.735  -8.474   4.132  0.00  0.00    -0.296 N 
ATOM      6  H   UNL     1      -3.476  -7.858   4.239  0.00  0.00    +0.154 HD
BRANCH   5   7
ATOM      7  C   UNL     1      -2.958  -9.855   4.188  0.00  0.00    +0.051 A 
ATOM      8  C   UNL     1      -2.138 -10.661   4.966  0.00  0.00    +0.026 A 
ATOM      9  C   UNL     1      -2.361 -12.023   5.020  0.00  0.00    +0.017 A 
ATOM     10  C   UNL     1      -3.400 -12.585   4.299  0.00  0.00    +0.019 A 
ATOM     11  C   UNL     1      -4.219 -11.785   3.523  0.00  0.00    +0.037 A 
ATOM     12  C   UNL     1      -4.005 -10.420   3.470  0.00  0.00    +0.063 A 
ATOM     13 CL   UNL     1      -5.037  -9.416   2.501  0.00  0.00    -0.082 Cl
ATOM     14 BR   UNL     1      -3.701 -14.450   4.376  0.00  0.00    -0.050 Br
ENDBRANCH   5   7
ENDBRANCH   3   5
ENDBRANCH   1   3
BRANCH   1  15
ATOM     15  C   UNL     1       0.067  -6.161   3.566  0.00  0.00    +0.159 C 
BRANCH  15  18
ATOM     16  C   UNL     1      -0.293  -2.786   2.148  0.00  0.00    +0.109 A 
ATOM     17  N   UNL     1      -0.245  -4.104   2.284  0.00  0.00    -0.242 NA
ATOM     18  C   UNL     1       0.020  -4.660   3.443  0.00  0.00    +0.066 A 
ATOM     19  C   UNL     1       0.251  -3.879   4.532  0.00  0.00    +0.072 A 
ATOM     20  S   UNL     1       0.077  -2.251   3.813  0.00  0.00    -0.075 S 
BRANCH  16  26
ATOM     21  C   UNL     1      -0.827   1.671  -0.032  0.00  0.00    +0.044 C 
ATOM     22  C   UNL     1      -0.830   0.166  -0.111  0.00  0.00    -0.050 A 
ATOM     23  C   UNL     1      -1.095  -0.461  -1.316  0.00  0.00    +0.003 A 
ATOM     24  C   UNL     1      -1.100  -1.842  -1.397  0.00  0.00    +0.001 A 
ATOM     25  C   UNL     1      -0.840  -2.603  -0.276  0.00  0.00    +0.010 A 
ATOM     26  C   UNL     1      -0.572  -1.977   0.942  0.00  0.00    +0.007 A 
ATOM     27  C   UNL     1      -0.563  -0.583   1.016  0.00  0.00    +0.014 A 
ENDBRANCH  16  26
ENDBRANCH  15  18
ENDBRANCH   1  15
TORSDOF 6
