REMARK  Name = ZINC04944103
REMARK  6 active torsions:
REMARK  status: ('A' for Active; 'I' for Inactive)
REMARK    1  A    between atoms: C_1  and  C_2
REMARK    2  A    between atoms: C_5  and  C_8
REMARK    3  A    between atoms: C_13  and  C_18
REMARK    4  A    between atoms: C_20  and  C_32
REMARK    5  A    between atoms: C_21  and  C_22
REMARK    6  A    between atoms: C_28  and  C_31
REMARK                            x       y       z     vdW  Elec       q    Type
REMARK                         _______ _______ _______ _____ _____    ______ ____
ROOT
ATOM      1  C   UNL     1       6.096   3.511  -0.048  0.00  0.00    +0.090 C 
ATOM      2  C   UNL     1       7.210   4.431   0.376  0.00  0.00    +0.024 C 
ATOM      3  C   UNL     1       7.024   5.768   0.416  0.00  0.00    +0.016 C 
ATOM      4  C   UNL     1       8.135   6.695   0.845  0.00  0.00    +0.055 C 
ATOM      5  C   UNL     1       9.487   6.086   0.467  0.00  0.00    -0.001 C 
ATOM      6  C   UNL     1       9.610   4.717   1.144  0.00  0.00    +0.083 C 
ATOM      7  C   UNL     1       8.445   3.860   0.729  0.00  0.00    +0.162 C 
ATOM      8  O   UNL     1       8.574   2.652   0.699  0.00  0.00    -0.292 OA
ATOM      9  C   UNL     1      10.615   7.003   0.943  0.00  0.00    +0.008 C 
ATOM     10  N   UNL     1       5.816   6.312   0.070  0.00  0.00    -0.321 N 
ATOM     11  C   UNL     1       4.683   5.546   0.067  0.00  0.00    +0.014 C 
ATOM     12  C   UNL     1       4.767   4.207   0.013  0.00  0.00    +0.043 C 
ATOM     13  C   UNL     1       3.331   6.210   0.124  0.00  0.00    +0.061 C 
ATOM     14  H   UNL     1       5.751   7.374  -0.209  0.00  0.00    +0.152 HD
ENDROOT
BRANCH  12  15
ATOM     15  C   UNL     1       3.579   3.435   0.020  0.00  0.00    +0.248 C 
ATOM     16  O   UNL     1       3.185   2.934   1.057  0.00  0.00    -0.270 OA
ATOM     17  N   UNL     1       2.886   3.256  -1.122  0.00  0.00    -0.267 N 
ATOM     18  C   UNL     1       1.661   2.593  -1.096  0.00  0.00    +0.125 A 
ATOM     19  C   UNL     1       0.898   2.510  -2.256  0.00  0.00    +0.044 A 
ATOM     20  C   UNL     1      -0.316   1.848  -2.216  0.00  0.00    +0.008 A 
ATOM     21  C   UNL     1      -0.728   1.291  -1.013  0.00  0.00    -0.032 A 
ATOM     22  C   UNL     1       0.080   1.412   0.100  0.00  0.00    +0.116 A 
ATOM     23  N   UNL     1       1.234   2.048   0.032  0.00  0.00    -0.240 NA
ATOM     24  C   UNL     1      -2.044   0.561  -0.922  0.00  0.00    +0.045 C 
ATOM     25  H   UNL     1       3.288   3.632  -2.074  0.00  0.00    +0.157 HD
ENDBRANCH  12  15
BRANCH   1  30
ATOM     26  C   UNL     1       7.069   1.754  -5.466  0.00  0.00    +0.044 C 
ATOM     27  C   UNL     1       6.815   2.213  -4.053  0.00  0.00    -0.050 A 
ATOM     28  C   UNL     1       6.762   1.289  -3.026  0.00  0.00    +0.003 A 
ATOM     29  C   UNL     1       6.529   1.709  -1.730  0.00  0.00    +0.005 A 
ATOM     30  C   UNL     1       6.350   3.053  -1.461  0.00  0.00    -0.035 A 
ATOM     31  C   UNL     1       6.398   3.976  -2.488  0.00  0.00    +0.005 A 
ATOM     32  C   UNL     1       6.636   3.557  -3.784  0.00  0.00    +0.003 A 
ENDBRANCH   1  30
TORSDOF 2
