REMARK  Name = ZINC37445544
REMARK  8 active torsions:
REMARK  status: ('A' for Active; 'I' for Inactive)
REMARK    1  A    between atoms: C_1  and  C_2
REMARK    2  A    between atoms: C_2  and  C_3
REMARK    3  A    between atoms: C_3  and  N_4
REMARK    4  A    between atoms: N_4  and  C_5
REMARK    5  A    between atoms: C_5  and  C_7
REMARK    6  A    between atoms: C_5  and  C_14
REMARK    7  A    between atoms: C_17  and  O_21
REMARK    8  A    between atoms: O_21  and  C_22
REMARK                            x       y       z     vdW  Elec       q    Type
REMARK                         _______ _______ _______ _____ _____    ______ ____
ROOT
ATOM      1  C   UNL     1       1.426  -2.440  -2.474  0.00  0.00    -0.009 C 
ENDROOT
BRANCH   1   2
ATOM      2  C   UNL     1       1.339  -3.943  -2.544  0.00  0.00    -0.057 A 
ATOM      3  C   UNL     1       1.477  -4.698  -1.395  0.00  0.00    +0.003 A 
ATOM      4  C   UNL     1       1.398  -6.076  -1.459  0.00  0.00    +0.014 A 
ATOM      5  C   UNL     1       1.180  -6.700  -2.674  0.00  0.00    +0.013 A 
ATOM      6  C   UNL     1       1.042  -5.945  -3.824  0.00  0.00    +0.014 A 
ATOM      7  C   UNL     1       1.116  -4.566  -3.758  0.00  0.00    +0.003 A 
ATOM      8  I   UNL     1       1.061  -8.790  -2.772  0.00  0.00    -0.044 I 
ENDBRANCH   1   2
BRANCH   1   9
ATOM      9  C   UNL     1       2.873  -2.022  -2.425  0.00  0.00    -0.043 A 
ATOM     10  C   UNL     1       3.484  -1.790  -1.206  0.00  0.00    +0.007 A 
ATOM     11  C   UNL     1       4.810  -1.407  -1.159  0.00  0.00    +0.046 A 
ATOM     12  C   UNL     1       5.530  -1.255  -2.335  0.00  0.00    +0.121 A 
ATOM     13  C   UNL     1       4.916  -1.488  -3.557  0.00  0.00    +0.061 A 
ATOM     14  C   UNL     1       3.589  -1.876  -3.599  0.00  0.00    +0.023 A 
ATOM     15 BR   UNL     1       2.753  -2.201  -5.263  0.00  0.00    -0.050 Br
BRANCH  12  16
ATOM     16  O   UNL     1       6.835  -0.877  -2.290  0.00  0.00    -0.495 OA
ATOM     17  C   UNL     1       7.513  -0.740  -3.540  0.00  0.00    +0.277 C 
ENDBRANCH  12  16
ENDBRANCH   1   9
BRANCH   1  18
ATOM     18  N   UNL     1       0.738  -1.966  -1.265  0.00  0.00    +0.386 N 
ATOM     19  H   UNL     1       1.226  -2.301  -0.447  0.00  0.00    -0.085 HD
ATOM     20  H   UNL     1      -0.208  -2.316  -1.258  0.00  0.00    -0.085 HD
BRANCH  18  21
ATOM     21  C   UNL     1       0.718  -0.497  -1.257  0.00  0.00    -0.082 C 
BRANCH  21  23
ATOM     22  C   UNL     1      -0.019   1.526   0.010  0.00  0.00    +0.002 C 
ATOM     23  C   UNL     1       0.002  -0.004   0.002  0.00  0.00    -0.022 C 
ENDBRANCH  21  23
ENDBRANCH  18  21
ENDBRANCH   1  18
TORSDOF 6
