REMARK  Name = ZINC39711288
REMARK  11 active torsions:
REMARK  status: ('A' for Active; 'I' for Inactive)
REMARK    1  A    between atoms: C_1  and  O_2
REMARK    2  A    between atoms: O_2  and  C_3
REMARK    3  A    between atoms: C_3  and  C_4
REMARK    4  A    between atoms: C_4  and  N_5
REMARK    5  A    between atoms: C_6  and  C_10
REMARK    6  A    between atoms: C_10  and  C_12
REMARK    7  A    between atoms: C_10  and  N_26
REMARK    8  A    between atoms: C_17  and  O_24
REMARK    9  A    between atoms: O_24  and  C_25
REMARK   10  A    between atoms: N_29  and  C_32
REMARK   11  A    between atoms: C_35  and  N_38
REMARK                            x       y       z     vdW  Elec       q    Type
REMARK                         _______ _______ _______ _____ _____    ______ ____
ROOT
ATOM      1  C   UNL     1      -0.745  -2.832  -3.718  0.00  0.00    +0.142 C 
ENDROOT
BRANCH   1   2
ATOM      2  C   UNL     1      -1.509  -4.157  -3.723  0.00  0.00    +0.123 C 
ATOM      3  C   UNL     1      -2.929  -3.874  -4.173  0.00  0.00    -0.003 C 
ATOM      4  C   UNL     1      -3.936  -4.223  -3.322  0.00  0.00    -0.003 A 
ATOM      5  C   UNL     1      -5.335  -3.984  -3.678  0.00  0.00    +0.055 A 
ATOM      6  C   UNL     1      -6.308  -4.349  -2.798  0.00  0.00    +0.121 A 
ATOM      7  C   UNL     1      -5.991  -4.943  -1.570  0.00  0.00    +0.047 A 
ATOM      8  C   UNL     1      -4.713  -5.190  -1.185  0.00  0.00    +0.027 A 
ATOM      9  C   UNL     1      -3.634  -4.850  -2.024  0.00  0.00    +0.041 A 
ATOM     10  N   UNL     1      -2.384  -5.098  -1.633  0.00  0.00    -0.284 N 
ATOM     11  C   UNL     1      -1.326  -4.804  -2.368  0.00  0.00    +0.226 C 
ATOM     12  O   UNL     1      -0.209  -5.054  -1.957  0.00  0.00    -0.275 OA
ATOM     13  H   UNL     1      -2.244  -5.513  -0.767  0.00  0.00    +0.155 HD
BRANCH   6  14
ATOM     14  O   UNL     1      -7.611  -4.132  -3.117  0.00  0.00    -0.495 OA
ATOM     15  C   UNL     1      -8.590  -4.534  -2.156  0.00  0.00    +0.277 C 
ENDBRANCH   6  14
ENDBRANCH   1   2
BRANCH   1  16
ATOM     16  N   UNL     1      -1.003  -2.113  -4.972  0.00  0.00    -0.289 NA
ATOM     17  C   UNL     1      -0.605  -2.920  -6.133  0.00  0.00    +0.104 C 
ATOM     18  C   UNL     1      -1.055  -2.217  -7.418  0.00  0.00    +0.120 C 
ATOM     19  N   UNL     1      -0.530  -0.843  -7.407  0.00  0.00    -0.327 N 
ATOM     20  C   UNL     1      -0.772  -0.015  -6.215  0.00  0.00    +0.120 C 
ATOM     21  C   UNL     1      -0.334  -0.806  -4.977  0.00  0.00    +0.104 C 
BRANCH  19  22
ATOM     22  C   UNL     1       0.179  -0.337  -8.499  0.00  0.00    +0.030 A 
ATOM     23  C   UNL     1       0.298  -1.089  -9.661  0.00  0.00    +0.025 A 
ATOM     24  C   UNL     1       0.999  -0.585 -10.739  0.00  0.00    +0.034 A 
ATOM     25  C   UNL     1       1.583   0.666 -10.662  0.00  0.00    +0.126 A 
ATOM     26  C   UNL     1       1.467   1.417  -9.507  0.00  0.00    +0.034 A 
ATOM     27  C   UNL     1       0.763   0.922  -8.427  0.00  0.00    +0.025 A 
BRANCH  25  28
ATOM     28  N   UNL     1       2.335   1.202 -11.819  0.00  0.00    +0.056 N 
ATOM     29  O   UNL     1       2.437   0.546 -12.829  0.00  0.00    -0.126 OA
ATOM     30  O   UNL     1       2.846   2.295 -11.754  0.00  0.00    -0.126 OA
ENDBRANCH  25  28
ENDBRANCH  19  22
ENDBRANCH   1  16
BRANCH   1  32
ATOM     31  N   UNL     1       1.488  -2.932  -2.490  0.00  0.00    -0.225 N 
ATOM     32  C   UNL     1       0.732  -3.104  -3.590  0.00  0.00    +0.170 A 
ATOM     33  N   UNL     1       1.528  -3.556  -4.527  0.00  0.00    -0.112 NA
ATOM     34  N   UNL     1       2.712  -3.656  -4.030  0.00  0.00    -0.023 NA
ATOM     35  N   UNL     1       2.693  -3.274  -2.800  0.00  0.00    -0.044 NA
BRANCH  31  36
ATOM     36  C   UNL     1       1.031  -2.442  -1.188  0.00  0.00    +0.175 C 
BRANCH  36  37
ATOM     37  C   UNL     1       1.151  -0.917  -1.146  0.00  0.00    +0.183 C 
BRANCH  37  39
ATOM     38  C   UNL     1       0.776   0.981   0.269  0.00  0.00    +0.194 C 
ATOM     39  O   UNL     1       0.705  -0.439   0.125  0.00  0.00    -0.381 OA
ENDBRANCH  37  39
ENDBRANCH  36  37
ENDBRANCH  31  36
ENDBRANCH   1  32
TORSDOF 9
