REMARK  Name = ZINC00432682
REMARK  4 active torsions:
REMARK  status: ('A' for Active; 'I' for Inactive)
REMARK    1  A    between atoms: C_1  and  C_2
REMARK    2  A    between atoms: C_5  and  C_8
REMARK    3  A    between atoms: C_11  and  C_12
REMARK    4  A    between atoms: C_15  and  N_18
REMARK                            x       y       z     vdW  Elec       q    Type
REMARK                         _______ _______ _______ _____ _____    ______ ____
ROOT
ATOM      1  C   UNL     1       1.211   1.810  -0.525  0.00  0.00    +0.140 C 
ATOM      2  C   UNL     1       2.130   0.864  -0.237  0.00  0.00    +0.062 C 
ATOM      3  C   UNL     1       1.421  -0.428  -0.260  0.00  0.00    +0.063 C 
ATOM      4  C   UNL     1       1.942  -1.683  -0.025  0.00  0.00    +0.023 C 
ATOM      5  C   UNL     1       0.027  -0.072  -0.592  0.00  0.00    +0.345 C 
ATOM      6  O   UNL     1      -0.909  -0.839  -0.715  0.00  0.00    -0.245 OA
ATOM      7  O   UNL     1      -0.005   1.265  -0.730  0.00  0.00    -0.422 OA
ENDROOT
BRANCH   1  12
ATOM      8  C   UNL     1       2.340   7.442  -0.840  0.00  0.00    +0.044 C 
ATOM      9  C   UNL     1       2.044   5.966  -0.758  0.00  0.00    -0.050 A 
ATOM     10  C   UNL     1       0.759   5.508  -0.986  0.00  0.00    +0.004 A 
ATOM     11  C   UNL     1       0.481   4.159  -0.912  0.00  0.00    +0.012 A 
ATOM     12  C   UNL     1       1.501   3.255  -0.606  0.00  0.00    +0.017 A 
ATOM     13  C   UNL     1       2.795   3.725  -0.372  0.00  0.00    +0.012 A 
ATOM     14  C   UNL     1       3.060   5.076  -0.455  0.00  0.00    +0.004 A 
ENDBRANCH   1  12
BRANCH   4  15
ATOM     15  C   UNL     1       1.047  -2.839   0.088  0.00  0.00    -0.024 A 
ATOM     16  C   UNL     1      -0.198  -2.707   0.716  0.00  0.00    +0.010 A 
ATOM     17  C   UNL     1      -1.036  -3.797   0.812  0.00  0.00    +0.033 A 
ATOM     18  C   UNL     1      -0.645  -5.023   0.301  0.00  0.00    +0.126 A 
ATOM     19  C   UNL     1       0.587  -5.164  -0.316  0.00  0.00    +0.033 A 
ATOM     20  C   UNL     1       1.435  -4.083  -0.427  0.00  0.00    +0.010 A 
BRANCH  18  21
ATOM     21  N   UNL     1      -1.549  -6.190   0.415  0.00  0.00    +0.056 N 
ATOM     22  O   UNL     1      -1.208  -7.271  -0.033  0.00  0.00    -0.126 OA
ATOM     23  O   UNL     1      -2.633  -6.070   0.957  0.00  0.00    -0.126 OA
ENDBRANCH  18  21
ENDBRANCH   4  15
TORSDOF 3
