REMARK  Name = ZINC28083172
REMARK  5 active torsions:
REMARK  status: ('A' for Active; 'I' for Inactive)
REMARK    1  A    between atoms: C_3  and  C_6
REMARK    2  A    between atoms: C_6  and  C_7
REMARK    3  A    between atoms: C_7  and  O_9
REMARK    4  A    between atoms: O_9  and  C_10
REMARK    5  A    between atoms: C_10  and  C_11
REMARK                            x       y       z     vdW  Elec       q    Type
REMARK                         _______ _______ _______ _____ _____    ______ ____
ROOT
ATOM      1  C   UNL     1       6.076   0.013  -3.007  0.00  0.00    +0.170 A 
ATOM      2  N   UNL     1       7.070   0.882  -3.057  0.00  0.00    -0.214 NA
ATOM      3  C   UNL     1       8.315   0.515  -3.313  0.00  0.00    +0.128 A 
ATOM      4  C   UNL     1       8.595  -0.859  -3.554  0.00  0.00    +0.051 A 
ATOM      5  C   UNL     1       9.880  -1.492  -3.860  0.00  0.00    -0.025 A 
ATOM      6  C   UNL     1       9.874  -2.828  -4.047  0.00  0.00    -0.004 A 
ATOM      7  S   UNL     1       8.184  -3.318  -3.832  0.00  0.00    -0.073 S 
ATOM      8  C   UNL     1       7.485  -1.724  -3.490  0.00  0.00    +0.114 A 
ATOM      9  N   UNL     1       6.274  -1.273  -3.222  0.00  0.00    -0.221 NA
ATOM     10  C   UNL     1      11.047  -3.704  -4.367  0.00  0.00    +0.043 C 
ATOM     11  C   UNL     1      12.211  -2.811  -4.819  0.00  0.00    +0.005 C 
ATOM     12  C   UNL     1      12.358  -1.656  -3.824  0.00  0.00    +0.005 C 
ATOM     13  C   UNL     1      11.177  -0.695  -3.965  0.00  0.00    +0.037 C 
ATOM     14  N   UNL     1       9.329   1.454  -3.352  0.00  0.00    -0.343 N 
ATOM     15  H   UNL     1      10.361   1.141  -3.565  0.00  0.00    +0.144 HD
ATOM     16  H   UNL     1       9.103   2.515  -3.169  0.00  0.00    +0.144 HD
ENDROOT
BRANCH   1  17
ATOM     17  C   UNL     1       4.683   0.503  -2.703  0.00  0.00    +0.308 C 
BRANCH  17  18
ATOM     18  O   UNL     1       4.462   0.471  -1.269  0.00  0.00    -0.456 OA
BRANCH  18  19
ATOM     19  C   UNL     1       3.261   0.879  -0.829  0.00  0.00    +0.312 C 
ATOM     20  O   UNL     1       2.423   1.251  -1.616  0.00  0.00    -0.250 OA
BRANCH  19  21
ATOM     21  C   UNL     1       2.958   0.874   0.648  0.00  0.00    +0.163 C 
BRANCH  21  24
ATOM     22  C   UNL     1      -0.789   1.350   1.141  0.00  0.00    +0.008 A 
ATOM     23  C   UNL     1       0.396   0.672   0.924  0.00  0.00    +0.012 A 
ATOM     24  C   UNL     1       1.554   1.374   0.874  0.00  0.00    +0.000 A 
ATOM     25  S   UNL     1       0.986   3.045   1.146  0.00  0.00    -0.101 S 
ATOM     26  C   UNL     1      -0.757   2.694   1.309  0.00  0.00    +0.045 A 
ENDBRANCH  21  24
ENDBRANCH  19  21
ENDBRANCH  18  19
ENDBRANCH  17  18
ENDBRANCH   1  17
TORSDOF 5
