REMARK  Name = ZINC39691244
REMARK  6 active torsions:
REMARK  status: ('A' for Active; 'I' for Inactive)
REMARK    1  A    between atoms: C_1  and  C_2
REMARK    2  A    between atoms: C_7  and  C_8
REMARK    3  A    between atoms: C_8  and  C_9
REMARK    4  A    between atoms: C_9  and  N_10
REMARK    5  A    between atoms: C_11  and  C_13
REMARK    6  A    between atoms: C_24  and  C_26
REMARK                            x       y       z     vdW  Elec       q    Type
REMARK                         _______ _______ _______ _____ _____    ______ ____
ROOT
ATOM      1  C   UNL     1      -2.096   3.083   6.259  0.00  0.00    +0.100 C 
ATOM      2  C   UNL     1      -1.996   1.826   7.152  0.00  0.00    +0.121 C 
ATOM      3  N   UNL     1      -2.840   2.136   8.331  0.00  0.00    -0.300 N 
ATOM      4  C   UNL     1      -4.010   2.851   7.769  0.00  0.00    +0.115 C 
ATOM      5  C   UNL     1      -3.420   3.752   6.666  0.00  0.00    -0.004 C 
ATOM      6  C   UNL     1      -4.368   3.816   5.473  0.00  0.00    -0.010 C 
ATOM      7  C   UNL     1      -5.654   4.538   5.887  0.00  0.00    -0.082 C 
ATOM      8  N   UNL     1      -5.329   5.891   6.352  0.00  0.00    +0.379 N 
ATOM      9  C   UNL     1      -4.492   5.820   7.556  0.00  0.00    -0.082 C 
ATOM     10  C   UNL     1      -3.158   5.152   7.213  0.00  0.00    -0.010 C 
ATOM     11  C   UNL     1      -2.597   1.836   9.622  0.00  0.00    +0.219 C 
ATOM     12  O   UNL     1      -1.548   1.313   9.937  0.00  0.00    -0.275 OA
ATOM     13  H   UNL     1      -4.831   6.385   5.627  0.00  0.00    -0.086 HD
ATOM     14  H   UNL     1      -6.183   6.386   6.567  0.00  0.00    -0.086 HD
ENDROOT
BRANCH  11  15
ATOM     15  C   UNL     1      -3.628   2.150  10.676  0.00  0.00    +0.079 C 
ATOM     16  C   UNL     1      -2.939   2.324  12.035  0.00  0.00    +0.017 C 
ATOM     17  C   UNL     1      -3.979   2.815  13.045  0.00  0.00    +0.027 C 
ATOM     18  C   UNL     1      -5.208   1.957  12.981  0.00  0.00    -0.031 C 
ATOM     19  C   UNL     1      -5.491   1.167  11.994  0.00  0.00    -0.030 C 
ATOM     20  C   UNL     1      -4.627   0.996  10.778  0.00  0.00    +0.039 C 
ENDBRANCH  11  15
BRANCH   1  22
ATOM     21  N   UNL     1      -1.666   3.540   3.867  0.00  0.00    -0.315 N 
ATOM     22  C   UNL     1      -2.132   2.692   4.805  0.00  0.00    +0.218 C 
ATOM     23  O   UNL     1      -2.580   1.613   4.478  0.00  0.00    -0.275 OA
ATOM     24  H   UNL     1      -1.308   4.403   4.128  0.00  0.00    +0.149 HD
BRANCH  21  25
ATOM     25  C   UNL     1      -1.700   3.159   2.453  0.00  0.00    +0.109 C 
BRANCH  25  26
ATOM     26  C   UNL     1      -1.117   4.292   1.605  0.00  0.00    +0.054 C 
BRANCH  26  33
ATOM     27  C   UNL     1      -3.511   4.733   0.049  0.00  0.00    +0.044 C 
ATOM     28  C   UNL     1      -2.298   4.112  -0.594  0.00  0.00    -0.047 A 
ATOM     29  C   UNL     1      -2.328   3.758  -1.930  0.00  0.00    +0.003 A 
ATOM     30  C   UNL     1      -1.216   3.188  -2.520  0.00  0.00    +0.000 A 
ATOM     31  C   UNL     1      -0.072   2.972  -1.774  0.00  0.00    +0.000 A 
ATOM     32  C   UNL     1      -0.041   3.326  -0.438  0.00  0.00    +0.004 A 
ATOM     33  C   UNL     1      -1.153   3.901   0.150  0.00  0.00    -0.043 A 
ENDBRANCH  26  33
ENDBRANCH  25  26
ENDBRANCH  21  25
ENDBRANCH   1  22
TORSDOF 5
