REMARK  Name = ZINC45026184
REMARK  4 active torsions:
REMARK  status: ('A' for Active; 'I' for Inactive)
REMARK    1  A    between atoms: C_1  and  C_2
REMARK    2  A    between atoms: C_2  and  N_3
REMARK    3  A    between atoms: C_13  and  S_14
REMARK    4  A    between atoms: S_14  and  C_15
REMARK                            x       y       z     vdW  Elec       q    Type
REMARK                         _______ _______ _______ _____ _____    ______ ____
ROOT
ATOM      1  N   UNL     1      -1.372  -0.511   0.012  0.00  0.00    -0.287 N 
ATOM      2  C   UNL     1      -1.993  -0.745   1.192  0.00  0.00    +0.262 A 
ATOM      3  O   UNL     1      -1.430  -0.541   2.252  0.00  0.00    -0.267 OA
ATOM      4  C   UNL     1      -3.371  -1.252   1.147  0.00  0.00    +0.065 A 
ATOM      5  C   UNL     1      -4.095  -1.523   2.306  0.00  0.00    +0.015 A 
ATOM      6  C   UNL     1      -5.375  -1.994   2.206  0.00  0.00    +0.001 A 
ATOM      7  C   UNL     1      -5.959  -2.205   0.964  0.00  0.00    +0.002 A 
ATOM      8  C   UNL     1      -5.272  -1.948  -0.189  0.00  0.00    +0.028 A 
ATOM      9  C   UNL     1      -3.962  -1.465  -0.120  0.00  0.00    +0.079 A 
ATOM     10  N   UNL     1      -3.244  -1.196  -1.236  0.00  0.00    -0.223 NA
ATOM     11  C   UNL     1      -2.019  -0.739  -1.168  0.00  0.00    +0.178 A 
ENDROOT
BRANCH   1  13
ATOM     12  C   UNL     1      -0.019   1.526   0.010  0.00  0.00    +0.027 C 
ATOM     13  C   UNL     1       0.002  -0.004   0.002  0.00  0.00    +0.124 C 
ENDBRANCH   1  13
BRANCH  11  14
ATOM     14  S   UNL     1      -1.162  -0.410  -2.672  0.00  0.00    -0.032 S 
BRANCH  14  15
ATOM     15  C   UNL     1      -2.326  -0.828  -3.927  0.00  0.00    +0.111 A 
ATOM     16  C   UNL     1      -1.991  -0.699  -5.275  0.00  0.00    +0.075 A 
ATOM     17  C   UNL     1      -2.936  -1.039  -6.226  0.00  0.00    +0.135 A 
ATOM     18  N   UNL     1      -4.125  -1.475  -5.830  0.00  0.00    -0.203 NA
ATOM     19  C   UNL     1      -4.414  -1.588  -4.543  0.00  0.00    +0.215 A 
ATOM     20  N   UNL     1      -3.535  -1.277  -3.602  0.00  0.00    -0.208 NA
ATOM     21  N   UNL     1      -5.666  -2.047  -4.170  0.00  0.00    -0.327 N 
ATOM     22 CL   UNL     1      -2.571  -0.896  -7.917  0.00  0.00    -0.062 Cl
ATOM     23  H   UNL     1      -6.318  -2.282  -4.849  0.00  0.00    +0.145 HD
ATOM     24  H   UNL     1      -5.891  -2.134  -3.231  0.00  0.00    +0.145 HD
ENDBRANCH  14  15
ENDBRANCH  11  14
TORSDOF 3
