REMARK  Name = ZINC39919594
REMARK  5 active torsions:
REMARK  status: ('A' for Active; 'I' for Inactive)
REMARK    1  A    between atoms: C_4  and  C_7
REMARK    2  A    between atoms: C_7  and  C_8
REMARK    3  A    between atoms: C_8  and  C_9
REMARK    4  A    between atoms: N_11  and  N_12
REMARK    5  A    between atoms: C_13  and  C_24
REMARK                            x       y       z     vdW  Elec       q    Type
REMARK                         _______ _______ _______ _____ _____    ______ ____
ROOT
ATOM      1  N   UNL     1       7.309  -2.718   2.525  0.00  0.00    -0.191 N 
ATOM      2  C   UNL     1       7.338  -4.145   2.841  0.00  0.00    +0.212 C 
ATOM      3  N   UNL     1       8.422  -4.808   2.107  0.00  0.00    -0.320 N 
ATOM      4  C   UNL     1       9.667  -4.190   2.060  0.00  0.00    +0.041 A 
ATOM      5  C   UNL     1      10.842  -4.915   1.959  0.00  0.00    +0.024 A 
ATOM      6  C   UNL     1      12.053  -4.251   1.920  0.00  0.00    +0.002 A 
ATOM      7  C   UNL     1      12.101  -2.867   1.981  0.00  0.00    +0.001 A 
ATOM      8  C   UNL     1      10.939  -2.130   2.081  0.00  0.00    +0.015 A 
ATOM      9  C   UNL     1       9.711  -2.786   2.119  0.00  0.00    +0.059 A 
ATOM     10  C   UNL     1       8.438  -2.048   2.212  0.00  0.00    +0.266 C 
ATOM     11  O   UNL     1       8.407  -0.849   2.012  0.00  0.00    -0.268 OA
ATOM     12  H   UNL     1       8.274  -5.658   1.664  0.00  0.00    +0.148 HD
ENDROOT
BRANCH   2  13
ATOM     13  C   UNL     1       7.559  -4.324   4.321  0.00  0.00    -0.008 A 
ATOM     14  C   UNL     1       7.097  -3.371   5.209  0.00  0.00    +0.007 A 
ATOM     15  C   UNL     1       7.300  -3.535   6.567  0.00  0.00    +0.000 A 
ATOM     16  C   UNL     1       7.966  -4.652   7.036  0.00  0.00    +0.000 A 
ATOM     17  C   UNL     1       8.428  -5.605   6.148  0.00  0.00    +0.000 A 
ATOM     18  C   UNL     1       8.221  -5.444   4.791  0.00  0.00    +0.007 A 
ENDBRANCH   2  13
BRANCH   1  21
ATOM     19  C   UNL     1       5.487  -1.699   1.381  0.00  0.00    +0.230 C 
ATOM     20  O   UNL     1       6.005  -1.990   0.324  0.00  0.00    -0.274 OA
ATOM     21  N   UNL     1       6.087  -2.034   2.541  0.00  0.00    -0.230 N 
ATOM     22  H   UNL     1       5.672  -1.801   3.386  0.00  0.00    +0.173 HD
BRANCH  19  23
ATOM     23  C   UNL     1       4.171  -0.963   1.399  0.00  0.00    +0.102 C 
BRANCH  23  24
ATOM     24  C   UNL     1       3.711  -0.707  -0.038  0.00  0.00    +0.044 C 
BRANCH  24  28
ATOM     25  C   UNL     1      -0.017   1.378   0.010  0.00  0.00    +0.000 A 
ATOM     26  C   UNL     1       1.171   2.086   0.002  0.00  0.00    +0.000 A 
ATOM     27  C   UNL     1       2.377   1.411  -0.013  0.00  0.00    +0.003 A 
ATOM     28  C   UNL     1       2.396   0.029  -0.020  0.00  0.00    -0.047 A 
ATOM     29  C   UNL     1       1.208  -0.679  -0.012  0.00  0.00    +0.003 A 
ATOM     30  C   UNL     1       0.002  -0.004   0.002  0.00  0.00    +0.000 A 
ENDBRANCH  24  28
ENDBRANCH  23  24
ENDBRANCH  19  23
ENDBRANCH   1  21
TORSDOF 5
