REMARK  Name = ZINC44464823
REMARK  9 active torsions:
REMARK  status: ('A' for Active; 'I' for Inactive)
REMARK    1  A    between atoms: C_1  and  N_2
REMARK    2  A    between atoms: C_3  and  S_19
REMARK    3  A    between atoms: C_4  and  C_13
REMARK    4  A    between atoms: C_5  and  C_7
REMARK    5  A    between atoms: C_13  and  CA_14
REMARK    6  A    between atoms: CA_14  and  C_16
REMARK    7  A    between atoms: CA_14  and  N_18
REMARK    8  A    between atoms: C_16  and  O_17
REMARK    9  A    between atoms: S_19  and  C_20
REMARK                            x       y       z     vdW  Elec       q    Type
REMARK                         _______ _______ _______ _____ _____    ______ ____
ROOT
ATOM      1  C   UNL     1      -0.642   1.375  -0.027  0.00  0.00    +0.173 C 
ATOM      2  N   UNL     1      -0.267  -0.041  -0.014  0.00  0.00    -0.260 N 
ATOM      3  C   UNL     1      -0.028  -0.814  -1.107  0.00  0.00    +0.103 A 
ATOM      4  C   UNL     1       0.289  -2.062  -0.668  0.00  0.00    +0.011 A 
ATOM      5  C   UNL     1       0.241  -2.049   0.738  0.00  0.00    +0.097 A 
ATOM      6  N   UNL     1      -0.087  -0.835   1.126  0.00  0.00    -0.170 NA
ENDROOT
BRANCH   5   7
ATOM      7  C   UNL     1       0.519  -3.202   1.630  0.00  0.00    +0.002 A 
ATOM      8  C   UNL     1       1.287  -3.028   2.779  0.00  0.00    +0.010 A 
ATOM      9  C   UNL     1       1.542  -4.105   3.605  0.00  0.00    +0.001 A 
ATOM     10  C   UNL     1       1.038  -5.354   3.293  0.00  0.00    +0.000 A 
ATOM     11  C   UNL     1       0.275  -5.532   2.152  0.00  0.00    +0.001 A 
ATOM     12  C   UNL     1       0.008  -4.462   1.323  0.00  0.00    +0.010 A 
ENDBRANCH   5   7
BRANCH   4  13
ATOM     13  C   UNL     1       0.631  -3.248  -1.534  0.00  0.00    +0.026 C 
BRANCH  13  14
ATOM     14  CA  UNL     1       2.151  -3.360  -1.667  0.00  0.00    -0.045 C 
BRANCH  14  15
ATOM     15  N   UNL     1       2.667  -2.189  -2.390  0.00  0.00    +0.382 N 
ATOM     16  H1  UNL     1       2.436  -1.350  -1.879  0.00  0.00    -0.090 HD
ATOM     17  H2  UNL     1       3.670  -2.264  -2.478  0.00  0.00    -0.090 HD
ATOM     18  H3  UNL     1       2.251  -2.151  -3.308  0.00  0.00    -0.090 HD
ENDBRANCH  14  15
BRANCH  14  19
ATOM     19  C   UNL     1       2.503  -4.632  -2.441  0.00  0.00    +0.140 C 
BRANCH  19  20
ATOM     20  O   UNL     1       3.922  -4.798  -2.465  0.00  0.00    -0.397 OA
ATOM     21  H   UNL     1       4.217  -5.587  -2.940  0.00  0.00    +0.209 HD
ENDBRANCH  19  20
ENDBRANCH  14  19
ENDBRANCH  13  14
ENDBRANCH   4  13
BRANCH   3  22
ATOM     22  S   UNL     1      -0.113  -0.293  -2.788  0.00  0.00    -0.070 S 
BRANCH  22  23
ATOM     23  C   UNL     1       1.080   0.999  -2.895  0.00  0.00    +0.014 A 
ATOM     24  C   UNL     1       1.819   1.359  -1.774  0.00  0.00    +0.015 A 
ATOM     25  C   UNL     1       2.753   2.372  -1.862  0.00  0.00    +0.001 A 
ATOM     26  C   UNL     1       2.954   3.028  -3.063  0.00  0.00    +0.000 A 
ATOM     27  C   UNL     1       2.220   2.672  -4.180  0.00  0.00    +0.001 A 
ATOM     28  C   UNL     1       1.289   1.656  -4.101  0.00  0.00    +0.015 A 
ENDBRANCH  22  23
ENDBRANCH   3  22
TORSDOF 8
