REMARK  Name = ZINC23596887
REMARK  8 active torsions:
REMARK  status: ('A' for Active; 'I' for Inactive)
REMARK    1  A    between atoms: C_1  and  C_2
REMARK    2  A    between atoms: C_2  and  C_4
REMARK    3  A    between atoms: C_2  and  S_21
REMARK    4  A    between atoms: C_10  and  C_15
REMARK    5  A    between atoms: S_21  and  C_22
REMARK    6  A    between atoms: N_32  and  C_33
REMARK    7  A    between atoms: C_33  and  C_34
REMARK    8  A    between atoms: C_33  and  C_35
REMARK                            x       y       z     vdW  Elec       q    Type
REMARK                         _______ _______ _______ _____ _____    ______ ____
ROOT
ATOM      1  C   UNL     1      -0.019   1.526   0.010  0.00  0.00    +0.027 C 
ATOM      2  C   UNL     1       0.002  -0.004   0.002  0.00  0.00    +0.117 C 
ENDROOT
BRANCH   2   3
ATOM      3  C   UNL     1       0.707  -0.490  -1.238  0.00  0.00    +0.124 A 
ATOM      4  N   UNL     1      -0.021  -0.808  -2.338  0.00  0.00    -0.309 N 
ATOM      5  H   UNL     1      -0.987  -0.718  -2.312  0.00  0.00    +0.170 HD
ATOM      6  C   UNL     1       0.570  -1.246  -3.466  0.00  0.00    +0.260 A 
ATOM      7  O   UNL     1      -0.098  -1.526  -4.446  0.00  0.00    -0.267 OA
ATOM      8  C   UNL     1       1.995  -1.375  -3.497  0.00  0.00    +0.080 A 
ATOM      9  C   UNL     1       2.858  -1.821  -4.584  0.00  0.00    +0.004 A 
ATOM     10  C   UNL     1       4.197  -1.862  -4.379  0.00  0.00    +0.056 A 
ATOM     11  S   UNL     1       4.374  -1.298  -2.697  0.00  0.00    -0.076 S 
ATOM     12  C   UNL     1       2.664  -1.024  -2.312  0.00  0.00    +0.116 A 
ATOM     13  N   UNL     1       2.009  -0.593  -1.237  0.00  0.00    -0.225 NA
BRANCH   9  14
ATOM     14  C   UNL     1       2.282  -2.222  -5.889  0.00  0.00    -0.017 A 
ATOM     15  C   UNL     1       1.222  -3.127  -5.938  0.00  0.00    +0.008 A 
ATOM     16  C   UNL     1       0.689  -3.496  -7.156  0.00  0.00    +0.001 A 
ATOM     17  C   UNL     1       1.204  -2.971  -8.327  0.00  0.00    +0.000 A 
ATOM     18  C   UNL     1       2.256  -2.073  -8.286  0.00  0.00    +0.001 A 
ATOM     19  C   UNL     1       2.793  -1.692  -7.073  0.00  0.00    +0.008 A 
ENDBRANCH   9  14
ENDBRANCH   2   3
BRANCH   2  20
ATOM     20  S   UNL     1       0.879  -0.605   1.472  0.00  0.00    -0.077 S 
BRANCH  20  21
ATOM     21  C   UNL     1      -0.136  -0.087   2.816  0.00  0.00    +0.173 A 
ATOM     22  N   UNL     1      -1.238   0.570   2.549  0.00  0.00    -0.223 NA
ATOM     23  C   UNL     1      -2.061   0.996   3.528  0.00  0.00    +0.079 A 
ATOM     24  C   UNL     1      -3.237   1.696   3.244  0.00  0.00    +0.028 A 
ATOM     25  C   UNL     1      -4.042   2.109   4.267  0.00  0.00    +0.002 A 
ATOM     26  C   UNL     1      -3.710   1.844   5.590  0.00  0.00    +0.001 A 
ATOM     27  C   UNL     1      -2.567   1.161   5.900  0.00  0.00    +0.015 A 
ATOM     28  C   UNL     1      -1.726   0.728   4.875  0.00  0.00    +0.065 A 
ATOM     29  C   UNL     1      -0.486  -0.010   5.148  0.00  0.00    +0.263 A 
ATOM     30  O   UNL     1      -0.144  -0.272   6.287  0.00  0.00    -0.267 OA
ATOM     31  N   UNL     1       0.260  -0.394   4.086  0.00  0.00    -0.285 N 
BRANCH  31  32
ATOM     32  C   UNL     1       1.504  -1.137   4.301  0.00  0.00    +0.087 C 
ATOM     33  C   UNL     1       2.460  -0.298   5.151  0.00  0.00    +0.031 C 
ATOM     34  C   UNL     1       1.195  -2.449   5.026  0.00  0.00    +0.031 C 
ENDBRANCH  31  32
ENDBRANCH  20  21
ENDBRANCH   2  20
TORSDOF 5
