REMARK  Name = ZINC40117371
REMARK  6 active torsions:
REMARK  status: ('A' for Active; 'I' for Inactive)
REMARK    1  A    between atoms: C_1  and  C_2
REMARK    2  A    between atoms: N_11  and  C_15
REMARK    3  A    between atoms: C_15  and  C_16
REMARK    4  A    between atoms: N_18  and  C_19
REMARK    5  A    between atoms: C_19  and  C_21
REMARK    6  A    between atoms: C_19  and  C_28
REMARK                            x       y       z     vdW  Elec       q    Type
REMARK                         _______ _______ _______ _____ _____    ______ ____
ROOT
ATOM      1  C   UNL     1       1.180   0.468   5.521  0.00  0.00    +0.231 C 
ATOM      2  O   UNL     1       1.717  -0.602   5.328  0.00  0.00    -0.274 OA
ATOM      3  N   UNL     1       0.972   0.900   6.780  0.00  0.00    -0.307 N 
ATOM      4  H   UNL     1       0.609   1.786   6.935  0.00  0.00    +0.149 HD
ENDROOT
BRANCH   1   5
ATOM      5  C   UNL     1       0.746   1.314   4.352  0.00  0.00    +0.213 C 
BRANCH   5  15
ATOM      6  C   UNL     1       0.089   1.243  -0.055  0.00  0.00    +0.010 C 
ATOM      7  C   UNL     1       0.272  -0.276  -0.032  0.00  0.00    +0.018 C 
ATOM      8  C   UNL     1       1.078  -0.712  -1.258  0.00  0.00    +0.006 C 
ATOM      9  C   UNL     1       1.278  -2.228  -1.223  0.00  0.00    +0.000 C 
ATOM     10  C   UNL     1       2.045  -2.615   0.043  0.00  0.00    +0.003 C 
ATOM     11  C   UNL     1       1.243  -2.186   1.274  0.00  0.00    +0.035 C 
ATOM     12  C   UNL     1       1.018  -0.678   1.236  0.00  0.00    +0.115 C 
ATOM     13  C   UNL     1       0.258  -0.227   2.462  0.00  0.00    +0.247 C 
ATOM     14  O   UNL     1      -0.857  -0.564   2.799  0.00  0.00    -0.273 OA
ATOM     15  N   UNL     1       1.081   0.629   3.102  0.00  0.00    -0.215 N 
ATOM     16  C   UNL     1       2.242   0.775   2.452  0.00  0.00    +0.310 C 
ATOM     17  O   UNL     1       3.144   1.495   2.833  0.00  0.00    -0.252 OA
ATOM     18  N   UNL     1       2.298   0.035   1.328  0.00  0.00    -0.285 N 
ATOM     19  H   UNL     1       3.038  -0.017   0.703  0.00  0.00    +0.151 HD
ENDBRANCH   5  15
ENDBRANCH   1   5
BRANCH   3  20
ATOM     20  C   UNL     1       1.294   0.032   7.915  0.00  0.00    +0.106 C 
BRANCH  20  21
ATOM     21  C   UNL     1       2.750   0.188   8.270  0.00  0.00    -0.027 A 
ATOM     22  C   UNL     1       3.337   1.439   8.246  0.00  0.00    +0.008 A 
ATOM     23  C   UNL     1       4.672   1.583   8.572  0.00  0.00    +0.038 A 
ATOM     24  C   UNL     1       5.423   0.473   8.921  0.00  0.00    +0.123 A 
ATOM     25  C   UNL     1       4.834  -0.780   8.944  0.00  0.00    +0.038 A 
ATOM     26  C   UNL     1       3.497  -0.921   8.624  0.00  0.00    +0.008 A 
ATOM     27  F   UNL     1       6.728   0.613   9.239  0.00  0.00    -0.205 F 
ENDBRANCH  20  21
BRANCH  20  28
ATOM     28  C   UNL     1       0.432   0.423   9.117  0.00  0.00    +0.014 C 
ATOM     29  C   UNL     1       0.737  -0.505  10.311  0.00  0.00    +0.006 C 
ATOM     30  C   UNL     1      -0.639  -0.715  10.991  0.00  0.00    +0.000 C 
ATOM     31  C   UNL     1      -1.606  -0.804   9.784  0.00  0.00    +0.000 C 
ATOM     32  C   UNL     1      -1.058   0.233   8.782  0.00  0.00    +0.006 C 
ENDBRANCH  20  28
ENDBRANCH   3  20
TORSDOF 5
