REMARK  Name = ZINC64773871
REMARK  8 active torsions:
REMARK  status: ('A' for Active; 'I' for Inactive)
REMARK    1  A    between atoms: C_1  and  C_2
REMARK    2  A    between atoms: C_5  and  C_8
REMARK    3  A    between atoms: C_8  and  S_9
REMARK    4  A    between atoms: S_9  and  C_10
REMARK    5  A    between atoms: C_16  and  C_24
REMARK    6  A    between atoms: C_27  and  O_30
REMARK    7  A    between atoms: O_30  and  C_31
REMARK    8  A    between atoms: C_31  and  C_32
REMARK                            x       y       z     vdW  Elec       q    Type
REMARK                         _______ _______ _______ _____ _____    ______ ____
ROOT
ATOM      1  C   UNL     1       1.632  -6.614  -0.043  0.00  0.00    +0.182 C 
ATOM      2  N   UNL     1       0.412  -7.124  -0.044  0.00  0.00    -0.154 NA
ATOM      3  C   UNL     1       0.193  -8.438  -0.117  0.00  0.00    +0.249 C 
ATOM      4  O   UNL     1      -0.932  -8.900  -0.091  0.00  0.00    -0.273 OA
ATOM      5  C   UNL     1       1.414  -9.327  -0.233  0.00  0.00    +0.148 C 
ATOM      6  C   UNL     1       1.368 -10.356   0.897  0.00  0.00    +0.047 C 
ATOM      7  C   UNL     1       2.501 -11.364   0.689  0.00  0.00    +0.105 C 
ATOM      8  C   UNL     1       3.804 -10.663   0.433  0.00  0.00    +0.219 C 
ATOM      9  O   UNL     1       4.835 -11.280   0.593  0.00  0.00    -0.275 OA
ATOM     10  N   UNL     1       3.878  -9.382   0.035  0.00  0.00    -0.273 N 
ATOM     11  C   UNL     1       2.755  -8.627  -0.114  0.00  0.00    +0.117 C 
ATOM     12  N   UNL     1       2.765  -7.326  -0.053  0.00  0.00    -0.212 NA
ATOM     13  H   UNL     1       4.744  -8.990  -0.161  0.00  0.00    +0.156 HD
ENDROOT
BRANCH   6  14
ATOM     14  C   UNL     1       0.041 -11.071   0.877  0.00  0.00    -0.042 A 
ATOM     15  C   UNL     1      -0.337 -11.793  -0.240  0.00  0.00    +0.007 A 
ATOM     16  C   UNL     1      -1.552 -12.448  -0.261  0.00  0.00    +0.046 A 
ATOM     17  C   UNL     1      -2.395 -12.382   0.839  0.00  0.00    +0.121 A 
ATOM     18  C   UNL     1      -2.013 -11.657   1.959  0.00  0.00    +0.046 A 
ATOM     19  C   UNL     1      -0.794 -11.007   1.977  0.00  0.00    +0.007 A 
BRANCH  17  20
ATOM     20  O   UNL     1      -3.591 -13.025   0.821  0.00  0.00    -0.483 OA
BRANCH  20  21
ATOM     21  C   UNL     1      -4.407 -12.913   1.988  0.00  0.00    +0.324 C 
BRANCH  21  22
ATOM     22  C   UNL     1      -5.685 -13.686   1.785  0.00  0.00    +0.248 C 
ATOM     23  O   UNL     1      -5.878 -14.275   0.743  0.00  0.00    -0.272 OA
ATOM     24  N   UNL     1      -6.613 -13.722   2.762  0.00  0.00    -0.327 N 
ATOM     25  H   UNL     1      -6.458 -13.251   3.596  0.00  0.00    +0.145 HD
ATOM     26  H   UNL     1      -7.435 -14.220   2.631  0.00  0.00    +0.145 HD
ENDBRANCH  21  22
ENDBRANCH  20  21
ENDBRANCH  17  20
ENDBRANCH   6  14
BRANCH   1  27
ATOM     27  S   UNL     1       1.777  -4.858  -0.034  0.00  0.00    -0.084 S 
BRANCH  27  28
ATOM     28  C   UNL     1       0.059  -4.275  -0.021  0.00  0.00    +0.112 C 
BRANCH  28  33
ATOM     29  C   UNL     1      -0.018   1.503   0.010  0.00  0.00    +0.044 C 
ATOM     30  C   UNL     1       0.002  -0.004   0.002  0.00  0.00    -0.050 A 
ATOM     31  C   UNL     1       0.006  -0.689  -1.199  0.00  0.00    +0.003 A 
ATOM     32  C   UNL     1       0.025  -2.071  -1.206  0.00  0.00    +0.005 A 
ATOM     33  C   UNL     1       0.040  -2.768  -0.013  0.00  0.00    -0.037 A 
ATOM     34  C   UNL     1       0.037  -2.084   1.188  0.00  0.00    +0.005 A 
ATOM     35  C   UNL     1       0.023  -0.702   1.195  0.00  0.00    +0.003 A 
ENDBRANCH  28  33
ENDBRANCH  27  28
ENDBRANCH   1  27
TORSDOF 7
