REMARK  Name = ZINC09520864
REMARK  10 active torsions:
REMARK  status: ('A' for Active; 'I' for Inactive)
REMARK    1  A    between atoms: C_1  and  C_2
REMARK    2  A    between atoms: C_2  and  O_3
REMARK    3  A    between atoms: O_3  and  C_4
REMARK    4  A    between atoms: C_4  and  C_6
REMARK    5  A    between atoms: C_10  and  N_11
REMARK    6  A    between atoms: C_12  and  C_14
REMARK    7  A    between atoms: C_14  and  C_16
REMARK    8  A    between atoms: C_14  and  N_17
REMARK    9  A    between atoms: C_25  and  C_30
REMARK   10  A    between atoms: C_27  and  C_29
REMARK                            x       y       z     vdW  Elec       q    Type
REMARK                         _______ _______ _______ _____ _____    ______ ____
ROOT
ATOM      1  C   UNL     1      -2.155   3.037  -4.359  0.00  0.00    +0.176 C 
ATOM      2  C   UNL     1      -1.797   1.562  -4.169  0.00  0.00    +0.041 C 
ENDROOT
BRANCH   1   3
ATOM      3  N   UNL     1      -2.958   3.192  -5.575  0.00  0.00    -0.265 N 
ATOM      4  C   UNL     1      -4.206   2.681  -5.633  0.00  0.00    +0.260 A 
ATOM      5  O   UNL     1      -4.679   2.086  -4.679  0.00  0.00    -0.267 OA
ATOM      6  C   UNL     1      -4.952   2.847  -6.817  0.00  0.00    +0.039 A 
ATOM      7  C   UNL     1      -4.391   3.516  -7.863  0.00  0.00    +0.053 A 
ATOM      8  N   UNL     1      -3.151   4.000  -7.750  0.00  0.00    -0.217 NA
ATOM      9  C   UNL     1      -2.452   3.854  -6.648  0.00  0.00    +0.236 A 
ATOM     10  N   UNL     1      -1.174   4.381  -6.580  0.00  0.00    -0.204 N 
ATOM     11  C   UNL     1      -0.719   5.474  -7.252  0.00  0.00    +0.045 A 
ATOM     12  C   UNL     1       0.576   5.655  -6.909  0.00  0.00    +0.048 A 
ATOM     13  C   UNL     1       0.930   4.642  -6.008  0.00  0.00    +0.061 A 
ATOM     14  N   UNL     1      -0.115   3.881  -5.811  0.00  0.00    -0.169 NA
ATOM     15  C   UNL     1       2.285   4.461  -5.374  0.00  0.00    +0.067 C 
ATOM     16  C   UNL     1      -1.516   6.328  -8.204  0.00  0.00    +0.066 C 
ATOM     17  C   UNL     1      -5.364   3.574  -9.021  0.00  0.00    +0.056 C 
ATOM     18  C   UNL     1      -6.741   3.241  -8.407  0.00  0.00    +0.011 C 
ATOM     19  C   UNL     1      -6.350   2.396  -7.174  0.00  0.00    +0.043 C 
ENDBRANCH   1   3
BRANCH   1  21
ATOM     20  N   UNL     1      -2.405   3.473  -1.937  0.00  0.00    -0.278 N 
ATOM     21  C   UNL     1      -2.946   3.520  -3.171  0.00  0.00    +0.240 C 
ATOM     22  O   UNL     1      -4.069   3.950  -3.324  0.00  0.00    -0.273 OA
ATOM     23  H   UNL     1      -1.506   3.129  -1.815  0.00  0.00    +0.155 HD
BRANCH  20  28
ATOM     24  C   UNL     1      -2.752   3.948   0.488  0.00  0.00    +0.091 A 
ATOM     25  C   UNL     1      -3.715   4.476   1.454  0.00  0.00    -0.021 A 
ATOM     26  C   UNL     1      -4.887   4.877   0.931  0.00  0.00    -0.004 A 
ATOM     27  S   UNL     1      -4.737   4.564  -0.811  0.00  0.00    -0.077 S 
ATOM     28  C   UNL     1      -3.132   3.917  -0.844  0.00  0.00    +0.086 A 
ATOM     29  C   UNL     1      -5.821   5.410   1.984  0.00  0.00    +0.043 C 
ATOM     30  C   UNL     1      -4.915   5.692   3.202  0.00  0.00    +0.010 C 
ATOM     31  C   UNL     1      -3.755   4.705   2.966  0.00  0.00    +0.037 C 
BRANCH  24  32
ATOM     32  C   UNL     1      -1.432   3.476   0.912  0.00  0.00    +0.342 C 
ATOM     33  O   UNL     1      -1.275   2.312   1.227  0.00  0.00    -0.245 OA
BRANCH  32  34
ATOM     34  O   UNL     1      -0.389   4.331   0.948  0.00  0.00    -0.461 OA
BRANCH  34  36
ATOM     35  C   UNL     1       1.944   4.902   1.349  0.00  0.00    +0.048 C 
ATOM     36  C   UNL     1       0.891   3.792   1.372  0.00  0.00    +0.229 C 
ENDBRANCH  34  36
ENDBRANCH  32  34
ENDBRANCH  24  32
ENDBRANCH  20  28
ENDBRANCH   1  21
TORSDOF 6
