REMARK  Name = ZINC35747285
REMARK  15 active torsions:
REMARK  status: ('A' for Active; 'I' for Inactive)
REMARK    1  A    between atoms: C_1  and  O_2
REMARK    2  A    between atoms: O_2  and  C_3
REMARK    3  A    between atoms: C_6  and  C_11
REMARK    4  A    between atoms: C_8  and  O_9
REMARK    5  A    between atoms: O_9  and  C_10
REMARK    6  A    between atoms: C_20  and  C_22
REMARK    7  A    between atoms: C_22  and  N_23
REMARK    8  A    between atoms: N_23  and  C_24
REMARK    9  A    between atoms: N_23  and  C_30
REMARK   10  A    between atoms: C_24  and  C_25
REMARK   11  A    between atoms: C_30  and  C_31
REMARK   12  A    between atoms: C_31  and  C_33
REMARK   13  A    between atoms: C_31  and  O_37
REMARK   14  A    between atoms: C_33  and  C_34
REMARK   15  A    between atoms: C_34  and  C_35
REMARK                            x       y       z     vdW  Elec       q    Type
REMARK                         _______ _______ _______ _____ _____    ______ ____
ROOT
ATOM      1  C   UNL     1       2.290  -2.990   5.363  0.00  0.00    +0.004 A 
ATOM      2  C   UNL     1       1.835  -4.072   6.039  0.00  0.00    +0.056 A 
ATOM      3  S   UNL     1       3.207  -4.507   7.092  0.00  0.00    -0.076 S 
ATOM      4  C   UNL     1       4.347  -3.238   6.605  0.00  0.00    +0.116 A 
ATOM      5  C   UNL     1       3.640  -2.511   5.633  0.00  0.00    +0.080 A 
ATOM      6  C   UNL     1       4.342  -1.406   5.054  0.00  0.00    +0.260 A 
ATOM      7  O   UNL     1       3.810  -0.711   4.205  0.00  0.00    -0.267 OA
ATOM      8  N   UNL     1       5.598  -1.145   5.461  0.00  0.00    -0.312 N 
ATOM      9  H   UNL     1       6.078  -0.397   5.072  0.00  0.00    +0.170 HD
ATOM     10  C   UNL     1       6.205  -1.907   6.406  0.00  0.00    +0.094 A 
ATOM     11  N   UNL     1       5.588  -2.916   6.960  0.00  0.00    -0.229 NA
ENDROOT
BRANCH   1  15
ATOM     12  C   UNL     1      -0.168  -1.032   2.493  0.00  0.00    +0.162 A 
ATOM     13  C   UNL     1       0.471  -0.294   3.477  0.00  0.00    +0.050 A 
ATOM     14  C   UNL     1       1.269  -0.926   4.409  0.00  0.00    +0.012 A 
ATOM     15  C   UNL     1       1.433  -2.310   4.363  0.00  0.00    -0.013 A 
ATOM     16  C   UNL     1       0.790  -3.053   3.373  0.00  0.00    +0.058 A 
ATOM     17  C   UNL     1      -0.012  -2.415   2.445  0.00  0.00    +0.162 A 
BRANCH  12  19
ATOM     18  C   UNL     1      -1.069   1.015   1.684  0.00  0.00    +0.277 C 
ATOM     19  O   UNL     1      -0.953  -0.405   1.576  0.00  0.00    -0.491 OA
ENDBRANCH  12  19
BRANCH  17  20
ATOM     20  O   UNL     1      -0.645  -3.137   1.482  0.00  0.00    -0.491 OA
ATOM     21  C   UNL     1      -0.440  -4.552   1.492  0.00  0.00    +0.277 C 
ENDBRANCH  17  20
ENDBRANCH   1  15
BRANCH  10  22
ATOM     22  C   UNL     1       7.613  -1.576   6.832  0.00  0.00    -0.003 C 
BRANCH  22  23
ATOM     23  N   UNL     1       8.052  -2.533   7.856  0.00  0.00    +0.391 N 
ATOM     24  H   UNL     1       7.374  -2.562   8.602  0.00  0.00    -0.080 HD
BRANCH  23  25
ATOM     25  C   UNL     1       8.180  -3.868   7.257  0.00  0.00    -0.002 C 
BRANCH  25  26
ATOM     26  C   UNL     1       8.540  -4.867   8.326  0.00  0.00    +0.089 A 
ATOM     27  C   UNL     1       7.673  -5.498   9.138  0.00  0.00    +0.042 A 
ATOM     28  C   UNL     1       8.438  -6.338   9.980  0.00  0.00    +0.041 A 
ATOM     29  C   UNL     1       9.726  -6.168   9.634  0.00  0.00    +0.195 A 
ATOM     30  O   UNL     1       9.782  -5.281   8.627  0.00  0.00    -0.470 OA
ENDBRANCH  25  26
ENDBRANCH  23  25
BRANCH  23  31
ATOM     31  C   UNL     1       9.353  -2.112   8.394  0.00  0.00    -0.046 C 
BRANCH  31  32
ATOM     32  C   UNL     1       9.180  -0.820   9.194  0.00  0.00    +0.098 C 
BRANCH  32  33
ATOM     33  O   UNL     1       8.898   0.260   8.301  0.00  0.00    -0.394 OA
ATOM     34  H   UNL     1       9.592   0.420   7.647  0.00  0.00    +0.210 HD
ENDBRANCH  32  33
BRANCH  32  35
ATOM     35  C   UNL     1      10.466  -0.521   9.966  0.00  0.00    +0.033 C 
BRANCH  35  36
ATOM     36  C   UNL     1      10.252   0.701  10.862  0.00  0.00    +0.029 C 
BRANCH  36  37
ATOM     37  C   UNL     1      11.520   0.995  11.622  0.00  0.00    -0.034 C 
ATOM     38  C   UNL     1      12.065   2.184  11.552  0.00  0.00    +0.004 C 
ENDBRANCH  36  37
ENDBRANCH  35  36
ENDBRANCH  32  35
ENDBRANCH  31  32
ENDBRANCH  23  31
ENDBRANCH  22  23
ENDBRANCH  10  22
TORSDOF 13
