REMARK  Name = ZINC28974009
REMARK  7 active torsions:
REMARK  status: ('A' for Active; 'I' for Inactive)
REMARK    1  A    between atoms: C_1  and  C_2
REMARK    2  A    between atoms: C_2  and  C_4
REMARK    3  A    between atoms: C_2  and  N_14
REMARK    4  A    between atoms: C_15  and  C_17
REMARK    5  A    between atoms: C_20  and  S_23
REMARK    6  A    between atoms: S_23  and  N_26
REMARK    7  A    between atoms: N_26  and  C_27
REMARK                            x       y       z     vdW  Elec       q    Type
REMARK                         _______ _______ _______ _____ _____    ______ ____
ROOT
ATOM      1  C   UNL     1      -5.210   5.557  -0.003  0.00  0.00    +0.037 A 
ATOM      2  C   UNL     1      -5.859   4.402  -0.443  0.00  0.00    +0.015 A 
ATOM      3  C   UNL     1      -5.366   3.162  -0.096  0.00  0.00    +0.029 A 
ATOM      4  C   UNL     1      -4.229   3.060   0.686  0.00  0.00    +0.109 A 
ATOM      5  C   UNL     1      -3.584   4.201   1.131  0.00  0.00    +0.029 A 
ATOM      6  C   UNL     1      -4.064   5.447   0.786  0.00  0.00    +0.015 A 
ENDROOT
BRANCH   1   8
ATOM      7  N   UNL     1      -5.104   8.002   0.055  0.00  0.00    -0.308 N 
ATOM      8  C   UNL     1      -5.733   6.889  -0.372  0.00  0.00    +0.244 C 
ATOM      9  O   UNL     1      -6.731   6.981  -1.060  0.00  0.00    -0.270 OA
ATOM     10  H   UNL     1      -4.201   7.919   0.677  0.00  0.00    +0.149 HD
BRANCH   7  12
ATOM     11  C   UNL     1      -6.711   9.735   0.681  0.00  0.00    +0.028 C 
ATOM     12  C   UNL     1      -5.622   9.323  -0.311  0.00  0.00    +0.076 C 
BRANCH  12  13
ATOM     13  C   UNL     1      -4.485  10.345  -0.274  0.00  0.00    -0.010 C 
ATOM     14  C   UNL     1      -3.396   9.932  -1.266  0.00  0.00    +0.012 C 
ATOM     15  C   UNL     1      -2.258  10.955  -1.229  0.00  0.00    -0.010 C 
ATOM     16  C   UNL     1      -2.800  12.334  -1.611  0.00  0.00    +0.007 C 
ATOM     17  C   UNL     1      -3.889  12.747  -0.619  0.00  0.00    -0.010 C 
ATOM     18  C   UNL     1      -5.026  11.724  -0.655  0.00  0.00    +0.012 C 
ATOM     19  C   UNL     1      -3.299  12.803   0.792  0.00  0.00    +0.007 C 
ATOM     20  C   UNL     1      -2.757  11.424   1.174  0.00  0.00    -0.010 C 
ATOM     21  C   UNL     1      -1.668  11.011   0.181  0.00  0.00    +0.007 C 
ATOM     22  C   UNL     1      -3.895  10.401   1.137  0.00  0.00    +0.012 C 
ENDBRANCH  12  13
ENDBRANCH   7  12
ENDBRANCH   1   8
BRANCH   4  23
ATOM     23  S   UNL     1      -3.605   1.472   1.126  0.00  0.00    +0.072 S 
ATOM     24  O   UNL     1      -4.688   0.561   0.998  0.00  0.00    -0.150 OA
ATOM     25  O   UNL     1      -2.889   1.639   2.342  0.00  0.00    -0.150 OA
BRANCH  23  26
ATOM     26  N   UNL     1      -2.492   1.048  -0.025  0.00  0.00    -0.216 N 
ATOM     27  H   UNL     1      -2.670   0.173  -0.666  0.00  0.00    +0.174 HD
BRANCH  26  28
ATOM     28  C   UNL     1      -1.331   1.800  -0.179  0.00  0.00    +0.051 A 
ATOM     29  C   UNL     1      -1.178   2.665  -1.263  0.00  0.00    +0.042 A 
ATOM     30  C   UNL     1      -0.014   3.397  -1.377  0.00  0.00    +0.084 A 
ATOM     31  N   UNL     1       0.948   3.282  -0.480  0.00  0.00    -0.367 N 
ATOM     32  C   UNL     1       0.843   2.471   0.556  0.00  0.00    +0.084 A 
ATOM     33  C   UNL     1      -0.288   1.705   0.743  0.00  0.00    +0.042 A 
ATOM     34  H   UNL     1       1.870   3.873  -0.585  0.00  0.00    +0.165 HD
ENDBRANCH  26  28
ENDBRANCH  23  26
ENDBRANCH   4  23
TORSDOF 6
