REMARK  Name = ZINC39728177
REMARK  7 active torsions:
REMARK  status: ('A' for Active; 'I' for Inactive)
REMARK    1  A    between atoms: C_1  and  C_2
REMARK    2  A    between atoms: C_2  and  C_3
REMARK    3  A    between atoms: C_3  and  C_4
REMARK    4  A    between atoms: C_4  and  N_5
REMARK    5  A    between atoms: C_9  and  C_10
REMARK    6  A    between atoms: C_11  and  N_21
REMARK    7  A    between atoms: N_24  and  C_27
REMARK                            x       y       z     vdW  Elec       q    Type
REMARK                         _______ _______ _______ _____ _____    ______ ____
ROOT
ATOM      1  C   UNL     1      -0.472  -3.469  -6.109  0.00  0.00    +0.081 A 
ATOM      2  C   UNL     1      -1.061  -3.709  -7.373  0.00  0.00    +0.136 A 
ATOM      3  N   UNL     1      -2.354  -3.475  -7.546  0.00  0.00    -0.214 NA
ATOM      4  C   UNL     1      -3.121  -3.018  -6.556  0.00  0.00    +0.142 A 
ATOM      5  C   UNL     1      -4.487  -2.789  -6.800  0.00  0.00    +0.047 A 
ATOM      6  C   UNL     1      -5.280  -2.321  -5.794  0.00  0.00    +0.005 A 
ATOM      7  C   UNL     1      -4.722  -2.074  -4.532  0.00  0.00    +0.018 A 
ATOM      8  C   UNL     1      -3.407  -2.300  -4.316  0.00  0.00    +0.096 A 
ATOM      9  N   UNL     1      -2.606  -2.768  -5.315  0.00  0.00    -0.268 N 
ATOM     10  C   UNL     1      -1.297  -2.988  -5.064  0.00  0.00    +0.267 A 
ATOM     11  O   UNL     1      -0.833  -2.772  -3.958  0.00  0.00    -0.267 OA
ENDROOT
BRANCH   1  16
ATOM     12  N   UNL     1       2.477  -0.444  -5.350  0.00  0.00    -0.255 N 
ATOM     13  C   UNL     1       1.482  -1.266  -5.635  0.00  0.00    +0.258 C 
ATOM     14  O   UNL     1       0.370  -0.839  -5.893  0.00  0.00    -0.269 OA
ATOM     15  C   UNL     1       1.747  -2.665  -5.635  0.00  0.00    +0.077 C 
ATOM     16  C   UNL     1       0.905  -3.708  -5.893  0.00  0.00    +0.037 C 
ATOM     17  S   UNL     1       3.482  -2.684  -5.204  0.00  0.00    -0.061 S 
ATOM     18  C   UNL     1       3.712  -0.918  -5.070  0.00  0.00    +0.121 C 
ATOM     19  S   UNL     1       5.134  -0.047  -4.684  0.00  0.00    -0.027 S 
BRANCH  12  20
ATOM     20  C   UNL     1       2.239   1.002  -5.341  0.00  0.00    +0.115 C 
BRANCH  20  21
ATOM     21  C   UNL     1       2.498   1.569  -6.738  0.00  0.00    +0.019 C 
BRANCH  21  23
ATOM     22  C   UNL     1       2.510   3.646  -8.127  0.00  0.00    +0.004 C 
ATOM     23  C   UNL     1       2.250   3.079  -6.730  0.00  0.00    -0.002 C 
ENDBRANCH  21  23
ENDBRANCH  20  21
ENDBRANCH  12  20
ENDBRANCH   1  16
BRANCH   2  24
ATOM     24  N   UNL     1      -0.295  -4.181  -8.416  0.00  0.00    -0.312 N 
ATOM     25  C   UNL     1      -0.128  -5.626  -8.627  0.00  0.00    +0.125 C 
ATOM     26  C   UNL     1      -0.557  -5.966 -10.059  0.00  0.00    +0.124 C 
ATOM     27  N   UNL     1       0.106  -5.034 -10.982  0.00  0.00    -0.325 N 
ATOM     28  C   UNL     1      -0.061  -3.589 -10.771  0.00  0.00    +0.124 C 
ATOM     29  C   UNL     1       0.364  -3.250  -9.342  0.00  0.00    +0.125 C 
BRANCH  27  30
ATOM     30  C   UNL     1       0.883  -5.514 -12.041  0.00  0.00    +0.065 A 
ATOM     31  C   UNL     1       0.300  -5.757 -13.277  0.00  0.00    +0.026 A 
ATOM     32  C   UNL     1       1.071  -6.230 -14.322  0.00  0.00    +0.002 A 
ATOM     33  C   UNL     1       2.421  -6.463 -14.138  0.00  0.00    +0.003 A 
ATOM     34  C   UNL     1       3.006  -6.223 -12.908  0.00  0.00    +0.040 A 
ATOM     35  C   UNL     1       2.243  -5.743 -11.860  0.00  0.00    +0.144 A 
ATOM     36  F   UNL     1       2.816  -5.503 -10.660  0.00  0.00    -0.204 F 
ENDBRANCH  27  30
ENDBRANCH   2  24
TORSDOF 6
