REMARK  Name = ZINC35367809
REMARK  3 active torsions:
REMARK  status: ('A' for Active; 'I' for Inactive)
REMARK    1  A    between atoms: C_3  and  N_8
REMARK    2  A    between atoms: C_6  and  N_7
REMARK    3  A    between atoms: C_14  and  C_16
REMARK                            x       y       z     vdW  Elec       q    Type
REMARK                         _______ _______ _______ _____ _____    ______ ____
ROOT
ATOM      1  N   UNL     1       3.508   1.829   1.411  0.00  0.00    -0.314 N 
ATOM      2  C   UNL     1       3.473   3.173   0.817  0.00  0.00    +0.125 C 
ATOM      3  C   UNL     1       4.486   4.060   1.552  0.00  0.00    +0.127 C 
ATOM      4  N   UNL     1       5.771   3.349   1.620  0.00  0.00    -0.294 N 
ATOM      5  C   UNL     1       5.806   2.005   2.214  0.00  0.00    +0.127 C 
ATOM      6  C   UNL     1       4.794   1.121   1.484  0.00  0.00    +0.125 C 
ATOM      7  C   UNL     1       6.896   3.919   1.146  0.00  0.00    +0.253 C 
ATOM      8  O   UNL     1       6.872   5.065   0.736  0.00  0.00    -0.269 OA
ENDROOT
BRANCH   1  11
ATOM      9  C   UNL     1       0.016   1.382   2.429  0.00  0.00    +0.027 A 
ATOM     10  C   UNL     1       1.166   1.976   1.941  0.00  0.00    +0.043 A 
ATOM     11  C   UNL     1       2.345   1.240   1.901  0.00  0.00    +0.099 A 
ATOM     12  N   UNL     1       2.374  -0.014   2.322  0.00  0.00    -0.348 N 
ATOM     13  C   UNL     1       1.296  -0.613   2.793  0.00  0.00    +0.106 A 
ATOM     14  C   UNL     1       0.086   0.059   2.864  0.00  0.00    +0.041 A 
ATOM     15  H   UNL     1       3.209  -0.506   2.284  0.00  0.00    +0.167 HD
BRANCH  14  16
ATOM     16  N   UNL     1      -1.053  -0.582   3.366  0.00  0.00    -0.357 N 
ATOM     17  H   UNL     1      -1.897  -0.107   3.412  0.00  0.00    +0.142 HD
ATOM     18  H   UNL     1      -0.998  -1.503   3.667  0.00  0.00    +0.142 HD
ENDBRANCH  14  16
ENDBRANCH   1  11
BRANCH   7  19
ATOM     19  C   UNL     1       8.149   3.160   1.124  0.00  0.00    +0.075 A 
ATOM     20  C   UNL     1       9.453   3.623   1.212  0.00  0.00    +0.022 A 
ATOM     21  C   UNL     1      10.432   2.661   1.163  0.00  0.00    +0.024 A 
ATOM     22  C   UNL     1      10.072   1.359   1.035  0.00  0.00    +0.056 A 
ATOM     23  S   UNL     1       8.393   1.399   0.986  0.00  0.00    -0.077 S 
ATOM     24 BR   UNL     1      11.200  -0.156   0.942  0.00  0.00    -0.043 Br
ENDBRANCH   7  19
TORSDOF 3
