REMARK  Name = ZINC19959902
REMARK  6 active torsions:
REMARK  status: ('A' for Active; 'I' for Inactive)
REMARK    1  A    between atoms: C_1  and  C_2
REMARK    2  A    between atoms: C_7  and  C_23
REMARK    3  A    between atoms: C_13  and  C_18
REMARK    4  A    between atoms: C_26  and  C_29
REMARK    5  A    between atoms: C_29  and  C_30
REMARK    6  A    between atoms: C_29  and  C_31
REMARK                            x       y       z     vdW  Elec       q    Type
REMARK                         _______ _______ _______ _____ _____    ______ ____
ROOT
ATOM      1  C   UNL     1      -0.018   1.503   0.010  0.00  0.00    +0.090 C 
ATOM      2  C   UNL     1       0.002  -0.004   0.002  0.00  0.00    +0.150 A 
ATOM      3  N   UNL     1       0.008  -0.773  -1.092  0.00  0.00    -0.198 NA
ATOM      4  C   UNL     1       0.024  -2.029  -0.742  0.00  0.00    +0.219 A 
ATOM      5  N   UNL     1       0.035  -2.087   0.613  0.00  0.00    -0.221 N 
ATOM      6  N   UNL     1       0.023  -0.769   1.066  0.00  0.00    -0.153 NA
ATOM      7  C   UNL     1       0.064  -3.337   1.362  0.00  0.00    +0.175 C 
ATOM      8  C   UNL     1      -0.263  -4.496   0.446  0.00  0.00    +0.041 C 
ATOM      9  C   UNL     1      -0.257  -4.373  -0.898  0.00  0.00    +0.020 C 
ATOM     10  N   UNL     1       0.029  -3.179  -1.515  0.00  0.00    -0.287 N 
ATOM     11  C   UNL     1      -0.564  -5.556  -1.786  0.00  0.00    +0.063 C 
ATOM     12  C   UNL     1      -1.556  -6.483  -1.083  0.00  0.00    +0.068 C 
ATOM     13  C   UNL     1      -0.936  -6.936   0.243  0.00  0.00    +0.091 C 
ATOM     14  C   UNL     1      -0.581  -5.723   1.057  0.00  0.00    +0.164 C 
ATOM     15  O   UNL     1      -0.567  -5.804   2.269  0.00  0.00    -0.292 OA
ATOM     16  H   UNL     1       0.229  -3.142  -2.464  0.00  0.00    +0.155 HD
ENDROOT
BRANCH   7  17
ATOM     17  C   UNL     1       1.438  -3.537   1.948  0.00  0.00    -0.018 A 
ATOM     18  C   UNL     1       2.539  -3.614   1.117  0.00  0.00    +0.006 A 
ATOM     19  C   UNL     1       3.799  -3.797   1.654  0.00  0.00    +0.004 A 
ATOM     20  C   UNL     1       3.958  -3.904   3.023  0.00  0.00    -0.045 A 
ATOM     21  C   UNL     1       2.856  -3.826   3.855  0.00  0.00    +0.004 A 
ATOM     22  C   UNL     1       1.597  -3.639   3.317  0.00  0.00    +0.006 A 
BRANCH  20  23
ATOM     23  C   UNL     1       5.332  -4.105   3.609  0.00  0.00    +0.013 C 
ATOM     24  C   UNL     1       5.660  -2.944   4.550  0.00  0.00    +0.012 C 
ATOM     25  C   UNL     1       5.365  -5.420   4.391  0.00  0.00    +0.012 C 
ENDBRANCH  20  23
ENDBRANCH   7  17
BRANCH  12  26
ATOM     26  C   UNL     1      -1.833  -7.684  -1.951  0.00  0.00    +0.109 A 
ATOM     27  C   UNL     1      -3.035  -8.043  -2.437  0.00  0.00    +0.045 A 
ATOM     28  C   UNL     1      -2.836  -9.220  -3.193  0.00  0.00    +0.041 A 
ATOM     29  C   UNL     1      -1.524  -9.510  -3.125  0.00  0.00    +0.195 A 
ATOM     30  O   UNL     1      -0.920  -8.572  -2.376  0.00  0.00    -0.468 OA
ENDBRANCH  12  26
TORSDOF 3
