REMARK  Name = ZINC05560104
REMARK  5 active torsions:
REMARK  status: ('A' for Active; 'I' for Inactive)
REMARK    1  A    between atoms: C_1  and  C_2
REMARK    2  A    between atoms: C_3  and  C_18
REMARK    3  A    between atoms: C_4  and  C_10
REMARK    4  A    between atoms: N_20  and  C_21
REMARK    5  A    between atoms: C_25  and  N_27
REMARK                            x       y       z     vdW  Elec       q    Type
REMARK                         _______ _______ _______ _____ _____    ______ ____
ROOT
ATOM      1  C   UNL     1       4.136   4.195   1.238  0.00  0.00    +0.061 C 
ATOM      2  C   UNL     1       2.859   4.679   0.602  0.00  0.00    +0.019 C 
ATOM      3  C   UNL     1       1.966   3.780   0.137  0.00  0.00    +0.056 C 
ATOM      4  C   UNL     1       0.692   4.310  -0.489  0.00  0.00    +0.144 C 
ATOM      5  N   UNL     1       0.534   5.773  -0.546  0.00  0.00    -0.288 N 
ATOM      6  C   UNL     1       1.519   6.544  -0.044  0.00  0.00    +0.304 C 
ATOM      7  O   UNL     1       1.398   7.753  -0.086  0.00  0.00    -0.252 OA
ATOM      8  N   UNL     1       2.626   6.022   0.499  0.00  0.00    -0.273 N 
ATOM      9  H   UNL     1      -0.260   6.172  -0.935  0.00  0.00    +0.151 HD
ATOM     10  H   UNL     1       3.298   6.631   0.844  0.00  0.00    +0.156 HD
ENDROOT
BRANCH   4  11
ATOM     11  C   UNL     1      -0.474   3.747   0.282  0.00  0.00    +0.013 A 
ATOM     12  C   UNL     1      -0.834   4.305   1.494  0.00  0.00    +0.011 A 
ATOM     13  C   UNL     1      -1.907   3.794   2.200  0.00  0.00    +0.039 A 
ATOM     14  C   UNL     1      -2.615   2.715   1.698  0.00  0.00    +0.126 A 
ATOM     15  C   UNL     1      -2.252   2.152   0.487  0.00  0.00    +0.077 A 
ATOM     16  C   UNL     1      -1.181   2.668  -0.221  0.00  0.00    +0.131 A 
ATOM     17  F   UNL     1      -0.825   2.120  -1.404  0.00  0.00    -0.205 F 
ATOM     18  F   UNL     1      -3.660   2.212   2.391  0.00  0.00    -0.205 F 
ENDBRANCH   4  11
BRANCH   3  19
ATOM     19  C   UNL     1       2.208   2.389   0.238  0.00  0.00    +0.248 C 
ATOM     20  O   UNL     1       2.496   1.747  -0.756  0.00  0.00    -0.270 OA
ATOM     21  N   UNL     1       2.121   1.774   1.434  0.00  0.00    -0.282 N 
ATOM     22  H   UNL     1       1.790   2.259   2.206  0.00  0.00    +0.155 HD
BRANCH  21  23
ATOM     23  C   UNL     1       2.503   0.435   1.562  0.00  0.00    +0.036 A 
ATOM     24  C   UNL     1       2.335  -0.442   0.497  0.00  0.00    +0.023 A 
ATOM     25  C   UNL     1       2.714  -1.763   0.626  0.00  0.00    +0.004 A 
ATOM     26  C   UNL     1       3.259  -2.215   1.814  0.00  0.00    +0.033 A 
ATOM     27  C   UNL     1       3.427  -1.346   2.876  0.00  0.00    +0.128 A 
ATOM     28  C   UNL     1       3.056  -0.021   2.752  0.00  0.00    +0.056 A 
BRANCH  27  29
ATOM     29  N   UNL     1       4.011  -1.834   4.146  0.00  0.00    +0.056 N 
ATOM     30  O   UNL     1       4.343  -3.000   4.254  0.00  0.00    -0.126 OA
ATOM     31  O   UNL     1       4.159  -1.069   5.082  0.00  0.00    -0.126 OA
ENDBRANCH  27  29
ENDBRANCH  21  23
ENDBRANCH   3  19
TORSDOF 4
