REMARK  Name = ZINC65410416
REMARK  7 active torsions:
REMARK  status: ('A' for Active; 'I' for Inactive)
REMARK    1  A    between atoms: C_1  and  O_2
REMARK    2  A    between atoms: O_2  and  C_3
REMARK    3  A    between atoms: C_8  and  N_9
REMARK    4  A    between atoms: C_11  and  C_14
REMARK    5  A    between atoms: N_16  and  C_17
REMARK    6  A    between atoms: C_17  and  C_18
REMARK    7  A    between atoms: C_18  and  C_19
REMARK                            x       y       z     vdW  Elec       q    Type
REMARK                         _______ _______ _______ _____ _____    ______ ____
ROOT
ATOM      1  C   UNL     1       2.479  -5.302   1.026  0.00  0.00    +0.243 C 
ATOM      2  O   UNL     1       3.555  -5.580   0.530  0.00  0.00    -0.270 OA
ATOM      3  N   UNL     1       2.056  -5.955   2.127  0.00  0.00    -0.311 N 
ATOM      4  H   UNL     1       1.199  -5.734   2.523  0.00  0.00    +0.149 HD
ENDROOT
BRANCH   1   7
ATOM      5  N   UNL     1      -0.075  -2.780  -0.012  0.00  0.00    -0.246 N 
ATOM      6  C   UNL     1       0.317  -3.833   0.939  0.00  0.00    +0.169 C 
ATOM      7  C   UNL     1       1.672  -4.295   0.448  0.00  0.00    +0.048 C 
ATOM      8  C   UNL     1       1.962  -3.564  -0.645  0.00  0.00    +0.098 C 
ATOM      9  N   UNL     1       0.970  -2.684  -0.939  0.00  0.00    -0.270 N 
ATOM     10  H   UNL     1       0.985  -2.069  -1.689  0.00  0.00    +0.169 HD
BRANCH   5  16
ATOM     11  C   UNL     1      -1.201  -0.638   0.010  0.00  0.00    +0.143 A 
ATOM     12  C   UNL     1      -2.374   0.099   0.019  0.00  0.00    +0.047 A 
ATOM     13  C   UNL     1      -3.597  -0.547   0.028  0.00  0.00    +0.004 A 
ATOM     14  C   UNL     1      -3.653  -1.928   0.028  0.00  0.00    +0.002 A 
ATOM     15  C   UNL     1      -2.487  -2.671   0.018  0.00  0.00    +0.028 A 
ATOM     16  C   UNL     1      -1.257  -2.030   0.003  0.00  0.00    +0.089 A 
BRANCH  11  18
ATOM     17  C   UNL     1      -0.017   1.425   0.010  0.00  0.00    +0.277 C 
ATOM     18  O   UNL     1       0.002  -0.004   0.002  0.00  0.00    -0.493 OA
ENDBRANCH  11  18
ENDBRANCH   5  16
ENDBRANCH   1   7
BRANCH   3  19
ATOM     19  C   UNL     1       2.892  -6.998   2.727  0.00  0.00    +0.110 C 
BRANCH  19  20
ATOM     20  C   UNL     1       2.186  -7.574   3.955  0.00  0.00    +0.074 C 
BRANCH  20  21
ATOM     21  C   UNL     1       3.046  -8.648   4.572  0.00  0.00    +0.041 A 
ATOM     22  C   UNL     1       4.040  -8.457   5.458  0.00  0.00    -0.004 A 
ATOM     23  C   UNL     1       4.585  -9.713   5.777  0.00  0.00    +0.066 A 
ATOM     24  N   UNL     1       3.936 -10.620   5.107  0.00  0.00    -0.178 NA
ATOM     25  N   UNL     1       2.954  -9.976   4.339  0.00  0.00    -0.281 N 
ATOM     26  H   UNL     1       2.321 -10.408   3.744  0.00  0.00    +0.189 HD
ATOM     27  C   UNL     1       5.731  -9.903   6.740  0.00  0.00    +0.057 C 
ATOM     28  C   UNL     1       6.418  -8.546   6.941  0.00  0.00    +0.007 C 
ATOM     29  C   UNL     1       5.373  -7.484   7.288  0.00  0.00    +0.005 C 
ATOM     30  C   UNL     1       4.534  -7.159   6.047  0.00  0.00    +0.039 C 
ENDBRANCH  20  21
ENDBRANCH  19  20
ENDBRANCH   3  19
TORSDOF 6
