REMARK  Name = ZINC02222345
REMARK  4 active torsions:
REMARK  status: ('A' for Active; 'I' for Inactive)
REMARK    1  A    between atoms: C_1  and  O_2
REMARK    2  A    between atoms: O_2  and  C_3
REMARK    3  A    between atoms: C_5  and  C_10
REMARK    4  A    between atoms: C_8  and  O_9
REMARK                            x       y       z     vdW  Elec       q    Type
REMARK                         _______ _______ _______ _____ _____    ______ ____
ROOT
ATOM      1  C   UNL     1       2.393   0.379  -4.236  0.00  0.00    +0.151 C 
ATOM      2  C   UNL     1       1.470   0.430  -5.425  0.00  0.00    +0.072 A 
ATOM      3  C   UNL     1       0.102   0.928  -5.600  0.00  0.00    +0.199 A 
ATOM      4  O   UNL     1      -0.521   1.423  -4.678  0.00  0.00    -0.287 OA
ATOM      5  C   UNL     1      -0.481   0.800  -6.950  0.00  0.00    +0.064 A 
ATOM      6  C   UNL     1      -1.774   1.240  -7.229  0.00  0.00    +0.015 A 
ATOM      7  C   UNL     1      -2.277   1.104  -8.493  0.00  0.00    +0.001 A 
ATOM      8  C   UNL     1      -1.508   0.530  -9.496  0.00  0.00    +0.004 A 
ATOM      9  C   UNL     1      -0.228   0.089  -9.238  0.00  0.00    +0.047 A 
ATOM     10  C   UNL     1       0.305   0.218  -7.959  0.00  0.00    +0.139 A 
ATOM     11  O   UNL     1       1.553  -0.207  -7.691  0.00  0.00    -0.450 OA
ATOM     12  C   UNL     1       2.130  -0.113  -6.477  0.00  0.00    +0.199 A 
ATOM     13  C   UNL     1       3.478  -0.528  -6.018  0.00  0.00    +0.288 C 
ATOM     14  O   UNL     1       4.321  -1.051  -6.720  0.00  0.00    -0.266 OA
ATOM     15  N   UNL     1       3.635  -0.242  -4.712  0.00  0.00    -0.238 N 
ATOM     16  C   UNL     1       4.772  -0.491  -3.948  0.00  0.00    +0.129 A 
ATOM     17  C   UNL     1       4.753  -0.235  -2.581  0.00  0.00    +0.045 A 
ATOM     18  C   UNL     1       5.889  -0.487  -1.833  0.00  0.00    +0.025 A 
ATOM     19  C   UNL     1       7.011  -0.988  -2.481  0.00  0.00    +0.059 A 
ATOM     20  C   UNL     1       6.960  -1.218  -3.842  0.00  0.00    +0.132 A 
ATOM     21  N   UNL     1       5.860  -0.973  -4.528  0.00  0.00    -0.238 NA
ATOM     22 CL   UNL     1       8.463  -1.322  -1.589  0.00  0.00    -0.082 Cl
ENDROOT
BRANCH   1  25
ATOM     23  C   UNL     1       0.606  -0.608  -1.056  0.00  0.00    +0.162 A 
ATOM     24  C   UNL     1       1.163   0.159  -2.068  0.00  0.00    +0.055 A 
ATOM     25  C   UNL     1       1.782  -0.456  -3.140  0.00  0.00    -0.018 A 
ATOM     26  C   UNL     1       1.837  -1.836  -3.212  0.00  0.00    +0.009 A 
ATOM     27  C   UNL     1       1.278  -2.606  -2.209  0.00  0.00    +0.049 A 
ATOM     28  C   UNL     1       0.662  -1.996  -1.129  0.00  0.00    +0.158 A 
BRANCH  23  30
ATOM     29  C   UNL     1      -0.017   1.425   0.010  0.00  0.00    +0.277 C 
ATOM     30  O   UNL     1       0.002  -0.004   0.002  0.00  0.00    -0.491 OA
ENDBRANCH  23  30
BRANCH  28  31
ATOM     31  O   UNL     1       0.112  -2.753  -0.142  0.00  0.00    -0.503 OA
ATOM     32  H   UNL     1       0.156  -3.850  -0.201  0.00  0.00    +0.292 HD
ENDBRANCH  28  31
ENDBRANCH   1  25
TORSDOF 3
