REMARK  Name = ZINC06108837
REMARK  5 active torsions:
REMARK  status: ('A' for Active; 'I' for Inactive)
REMARK    1  A    between atoms: C_1  and  C_2
REMARK    2  A    between atoms: C_5  and  N_8
REMARK    3  A    between atoms: C_9  and  C_11
REMARK    4  A    between atoms: C_11  and  S_12
REMARK    5  A    between atoms: S_12  and  C_13
REMARK                            x       y       z     vdW  Elec       q    Type
REMARK                         _______ _______ _______ _____ _____    ______ ____
ROOT
ATOM      1  C   UNL     1      -2.668   5.961  -0.130  0.00  0.00    +0.191 A 
ATOM      2  N   UNL     1      -1.425   6.429  -0.122  0.00  0.00    -0.207 NA
ATOM      3  C   UNL     1      -1.158   7.712   0.050  0.00  0.00    +0.129 A 
ATOM      4  C   UNL     1      -2.233   8.626   0.244  0.00  0.00    +0.051 A 
ATOM      5  C   UNL     1      -2.175  10.074   0.456  0.00  0.00    -0.025 A 
ATOM      6  C   UNL     1      -3.349  10.716   0.614  0.00  0.00    -0.004 A 
ATOM      7  S   UNL     1      -4.587   9.453   0.494  0.00  0.00    -0.073 S 
ATOM      8  C   UNL     1      -3.522   8.059   0.229  0.00  0.00    +0.115 A 
ATOM      9  N   UNL     1      -3.707   6.766   0.046  0.00  0.00    -0.214 NA
ATOM     10  C   UNL     1      -3.558  12.182   0.844  0.00  0.00    +0.043 C 
ATOM     11  C   UNL     1      -2.214  12.807   1.243  0.00  0.00    +0.005 C 
ATOM     12  C   UNL     1      -1.138  12.324   0.266  0.00  0.00    +0.005 C 
ATOM     13  C   UNL     1      -0.855  10.840   0.499  0.00  0.00    +0.037 C 
ATOM     14  N   UNL     1       0.150   8.162   0.047  0.00  0.00    -0.343 N 
ATOM     15  H   UNL     1       0.362   9.037   0.406  0.00  0.00    +0.144 HD
ATOM     16  H   UNL     1       0.854   7.601  -0.314  0.00  0.00    +0.144 HD
ENDROOT
BRANCH   1  17
ATOM     17  S   UNL     1      -2.941   4.237  -0.371  0.00  0.00    -0.077 S 
BRANCH  17  18
ATOM     18  C   UNL     1      -1.231   3.670  -0.548  0.00  0.00    +0.173 C 
BRANCH  18  20
ATOM     19  N   UNL     1      -0.045   1.533  -0.930  0.00  0.00    -0.312 N 
ATOM     20  C   UNL     1      -1.217   2.179  -0.771  0.00  0.00    +0.224 C 
ATOM     21  O   UNL     1      -2.260   1.562  -0.806  0.00  0.00    -0.275 OA
ATOM     22  H   UNL     1       0.789   2.028  -0.906  0.00  0.00    +0.149 HD
BRANCH  19  27
ATOM     23  C   UNL     1       3.652  -0.217   1.105  0.00  0.00    +0.007 C 
ATOM     24  C   UNL     1       2.429  -0.621   0.280  0.00  0.00    -0.014 C 
ATOM     25  C   UNL     1       2.466   0.097  -1.071  0.00  0.00    +0.005 C 
ATOM     26  C   UNL     1       1.244  -0.307  -1.897  0.00  0.00    +0.022 C 
ATOM     27  C   UNL     1      -0.031   0.084  -1.147  0.00  0.00    +0.073 C 
ATOM     28  C   UNL     1      -0.068  -0.633   0.204  0.00  0.00    +0.022 C 
ATOM     29  C   UNL     1       1.155  -0.230   1.030  0.00  0.00    +0.005 C 
ENDBRANCH  19  27
ENDBRANCH  18  20
ENDBRANCH  17  18
ENDBRANCH   1  17
TORSDOF 4
