REMARK  Name = ZINC00633404
REMARK  8 active torsions:
REMARK  status: ('A' for Active; 'I' for Inactive)
REMARK    1  A    between atoms: C_1  and  O_2
REMARK    2  A    between atoms: O_2  and  C_3
REMARK    3  A    between atoms: C_5  and  C_11
REMARK    4  A    between atoms: C_8  and  O_9
REMARK    5  A    between atoms: N_12  and  N_13
REMARK    6  A    between atoms: C_14  and  C_16
REMARK    7  A    between atoms: N_21  and  S_22
REMARK    8  A    between atoms: S_22  and  C_25
REMARK                            x       y       z     vdW  Elec       q    Type
REMARK                         _______ _______ _______ _____ _____    ______ ____
ROOT
ATOM      1  N   UNL     1      -1.980   6.076   2.428  0.00  0.00    -0.206 N 
ATOM      2  C   UNL     1      -2.192   4.885   1.833  0.00  0.00    +0.251 C 
ATOM      3  O   UNL     1      -2.852   4.824   0.817  0.00  0.00    -0.272 OA
ATOM      4  H   UNL     1      -1.453   6.125   3.241  0.00  0.00    +0.177 HD
ENDROOT
BRANCH   2   5
ATOM      5  C   UNL     1      -1.609   3.630   2.430  0.00  0.00    +0.167 C 
ATOM      6  C   UNL     1      -2.195   3.397   3.838  0.00  0.00    +0.031 C 
ATOM      7  C   UNL     1      -2.376   1.857   3.889  0.00  0.00    +0.019 C 
ATOM      8  C   UNL     1      -2.782   1.545   2.425  0.00  0.00    +0.110 C 
ATOM      9  N   UNL     1      -1.974   2.468   1.607  0.00  0.00    -0.165 NA
BRANCH   9  10
ATOM     10  S   UNL     1      -1.555   2.238   0.022  0.00  0.00    +0.062 S 
ATOM     11  O   UNL     1      -1.304   3.526  -0.523  0.00  0.00    -0.153 OA
ATOM     12  O   UNL     1      -2.519   1.352  -0.529  0.00  0.00    -0.153 OA
BRANCH  10  13
ATOM     13  C   UNL     1      -0.017   1.378   0.010  0.00  0.00    +0.106 A 
ATOM     14  C   UNL     1       1.171   2.086   0.002  0.00  0.00    +0.030 A 
ATOM     15  C   UNL     1       2.377   1.412  -0.013  0.00  0.00    +0.022 A 
ATOM     16  C   UNL     1       2.397   0.029  -0.021  0.00  0.00    +0.041 A 
ATOM     17  C   UNL     1       1.208  -0.679  -0.013  0.00  0.00    +0.022 A 
ATOM     18  C   UNL     1       0.002  -0.004   0.002  0.00  0.00    +0.030 A 
ATOM     19 CL   UNL     1       3.912  -0.818  -0.040  0.00  0.00    -0.084 Cl
ENDBRANCH  10  13
ENDBRANCH   9  10
ENDBRANCH   2   5
BRANCH   1  21
ATOM     20  C   UNL     1      -2.319   8.389   2.447  0.00  0.00    +0.138 C 
ATOM     21  N   UNL     1      -2.523   7.242   1.873  0.00  0.00    -0.188 NA
BRANCH  20  24
ATOM     22  C   UNL     1      -3.209  12.000   1.927  0.00  0.00    +0.163 A 
ATOM     23  C   UNL     1      -2.676  10.851   2.482  0.00  0.00    +0.059 A 
ATOM     24  C   UNL     1      -2.890   9.617   1.863  0.00  0.00    -0.001 A 
ATOM     25  C   UNL     1      -3.650   9.548   0.692  0.00  0.00    +0.028 A 
ATOM     26  C   UNL     1      -4.183  10.698   0.148  0.00  0.00    +0.063 A 
ATOM     27  C   UNL     1      -3.966  11.924   0.760  0.00  0.00    +0.173 A 
ATOM     28 BR   UNL     1      -5.212  10.603  -1.436  0.00  0.00    -0.046 Br
BRANCH  22  30
ATOM     29  C   UNL     1      -2.212  13.207   3.717  0.00  0.00    +0.277 C 
ATOM     30  O   UNL     1      -2.998  13.204   2.523  0.00  0.00    -0.491 OA
ENDBRANCH  22  30
BRANCH  27  31
ATOM     31  O   UNL     1      -4.493  13.055   0.220  0.00  0.00    -0.503 OA
ATOM     32  H   UNL     1      -5.378  13.271   0.545  0.00  0.00    +0.292 HD
ENDBRANCH  27  31
ENDBRANCH  20  24
ENDBRANCH   1  21
TORSDOF 7
