REMARK  Name = ZINC11614183
REMARK  6 active torsions:
REMARK  status: ('A' for Active; 'I' for Inactive)
REMARK    1  A    between atoms: C_1  and  C_2
REMARK    2  A    between atoms: C_4  and  C_23
REMARK    3  A    between atoms: C_5  and  S_9
REMARK    4  A    between atoms: C_7  and  C_8
REMARK    5  A    between atoms: S_9  and  N_12
REMARK    6  A    between atoms: C_20  and  C_22
REMARK                            x       y       z     vdW  Elec       q    Type
REMARK                         _______ _______ _______ _____ _____    ______ ____
ROOT
ATOM      1  S   UNL     1      -1.689   3.501   0.049  0.00  0.00    +0.075 S 
ATOM      2  O   UNL     1      -3.013   3.647   0.545  0.00  0.00    -0.150 OA
ATOM      3  O   UNL     1      -0.572   4.132   0.661  0.00  0.00    -0.150 OA
ENDROOT
BRANCH   1   4
ATOM      4  N   UNL     1      -1.365   1.877   0.034  0.00  0.00    -0.200 N 
ATOM      5  C   UNL     1      -0.090   1.316  -0.045  0.00  0.00    +0.055 A 
ATOM      6  C   UNL     1       1.153   1.950  -0.120  0.00  0.00    +0.025 A 
ATOM      7  C   UNL     1       2.310   1.205  -0.186  0.00  0.00    +0.002 A 
ATOM      8  C   UNL     1       2.251  -0.176  -0.178  0.00  0.00    +0.000 A 
ATOM      9  C   UNL     1       1.025  -0.811  -0.103  0.00  0.00    +0.005 A 
ATOM     10  C   UNL     1      -0.138  -0.069  -0.037  0.00  0.00    -0.023 A 
ATOM     11  C   UNL     1      -1.585  -0.499   0.051  0.00  0.00    +0.061 C 
ATOM     12  C   UNL     1      -2.377   0.819   0.094  0.00  0.00    +0.099 C 
ATOM     13  C   UNL     1      -3.319   0.911  -1.108  0.00  0.00    +0.030 C 
ENDBRANCH   1   4
BRANCH   1  18
ATOM     14  C   UNL     1      -1.786   5.353  -5.692  0.00  0.00    +0.044 C 
ATOM     15  C   UNL     1      -1.762   4.890  -4.258  0.00  0.00    -0.047 A 
ATOM     16  C   UNL     1      -2.258   5.707  -3.260  0.00  0.00    +0.009 A 
ATOM     17  C   UNL     1      -2.240   5.281  -1.945  0.00  0.00    -0.024 A 
ATOM     18  C   UNL     1      -1.717   4.042  -1.627  0.00  0.00    +0.112 A 
ATOM     19  C   UNL     1      -1.221   3.225  -2.626  0.00  0.00    +0.032 A 
ATOM     20  C   UNL     1      -1.243   3.649  -3.941  0.00  0.00    -0.046 A 
ATOM     21  C   UNL     1      -0.701   2.758  -5.029  0.00  0.00    +0.044 C 
ATOM     22  C   UNL     1      -2.787   6.170  -0.858  0.00  0.00    +0.046 C 
ENDBRANCH   1  18
TORSDOF 2
