REMARK  Name = ZINC62939908
REMARK  5 active torsions:
REMARK  status: ('A' for Active; 'I' for Inactive)
REMARK    1  A    between atoms: C_1  and  C_2
REMARK    2  A    between atoms: C_2  and  C_4
REMARK    3  A    between atoms: C_2  and  N_23
REMARK    4  A    between atoms: C_4  and  C_6
REMARK    5  A    between atoms: C_4  and  N_12
REMARK                            x       y       z     vdW  Elec       q    Type
REMARK                         _______ _______ _______ _____ _____    ______ ____
ROOT
ATOM      1  C   UNL     1       0.742  -0.511   1.242  0.00  0.00    +0.079 C 
ENDROOT
BRANCH   1   2
ATOM      2  N   UNL     1       0.826  -1.978   1.252  0.00  0.00    -0.298 NA
ATOM      3  C   UNL     1      -0.504  -2.580   1.147  0.00  0.00    +0.083 C 
ATOM      4  C   UNL     1      -0.561  -4.074   1.435  0.00  0.00    -0.003 C 
ATOM      5  C   UNL     1       0.631  -4.791   0.771  0.00  0.00    -0.077 C 
ATOM      6  N   UNL     1       1.696  -4.846   1.736  0.00  0.00    +0.382 N 
ATOM      7  C   UNL     1       2.664  -5.936   1.657  0.00  0.00    -0.078 C 
ATOM      8  C   UNL     1       3.858  -5.486   2.540  0.00  0.00    -0.020 C 
ATOM      9  C   UNL     1       3.472  -4.068   3.050  0.00  0.00    -0.016 C 
ATOM     10  C   UNL     1       2.410  -3.639   2.020  0.00  0.00    -0.054 C 
ATOM     11  C   UNL     1       1.569  -2.457   2.435  0.00  0.00    +0.070 C 
ATOM     12  H   UNL     1       1.223  -5.039   2.606  0.00  0.00    -0.081 HD
ENDBRANCH   1   2
BRANCH   1  13
ATOM     13  C   UNL     1       0.186  -0.030   2.557  0.00  0.00    +0.006 A 
ATOM     14  C   UNL     1       0.636   0.962   3.363  0.00  0.00    +0.028 A 
ATOM     15  C   UNL     1      -0.042   1.232   4.538  0.00  0.00    +0.025 A 
ATOM     16  C   UNL     1      -1.137   0.495   4.848  0.00  0.00    +0.060 A 
ATOM     17  S   UNL     1      -1.243  -0.615   3.454  0.00  0.00    -0.099 S 
ATOM     18 BR   UNL     1       0.551   2.606   5.694  0.00  0.00    -0.050 Br
ENDBRANCH   1  13
BRANCH   1  20
ATOM     19  C   UNL     1      -0.264   1.467   0.093  0.00  0.00    -0.012 C 
ATOM     20  C   UNL     1      -0.177  -0.061   0.104  0.00  0.00    -0.056 C 
BRANCH  20  21
ATOM     21  N   UNL     1       0.366  -0.529  -1.178  0.00  0.00    +0.381 N 
ATOM     22  H   UNL     1       1.286  -0.140  -1.316  0.00  0.00    -0.090 HD
ATOM     23  H   UNL     1       0.423  -1.536  -1.171  0.00  0.00    -0.090 HD
ATOM     24  H   UNL     1      -0.240  -0.232  -1.928  0.00  0.00    -0.090 HD
ENDBRANCH  20  21
ENDBRANCH   1  20
TORSDOF 4
