REMARK  Name = ZINC50038965
REMARK  5 active torsions:
REMARK  status: ('A' for Active; 'I' for Inactive)
REMARK    1  A    between atoms: C_1  and  C_2
REMARK    2  A    between atoms: C_2  and  C_4
REMARK    3  A    between atoms: C_2  and  N_11
REMARK    4  A    between atoms: N_14  and  C_15
REMARK    5  A    between atoms: C_17  and  C_23
REMARK                            x       y       z     vdW  Elec       q    Type
REMARK                         _______ _______ _______ _____ _____    ______ ____
ROOT
ATOM      1  N   UNL     1      -1.429  -0.351   0.015  0.00  0.00    -0.293 N 
ATOM      2  C   UNL     1      -2.098  -0.499   1.176  0.00  0.00    +0.304 C 
ATOM      3  O   UNL     1      -1.623  -0.071   2.210  0.00  0.00    -0.252 OA
ATOM      4  N   UNL     1      -3.293  -1.122   1.190  0.00  0.00    -0.265 N 
ATOM      5  H   UNL     1      -1.808  -0.692  -0.810  0.00  0.00    +0.151 HD
ATOM      6  H   UNL     1      -3.706  -1.397   0.357  0.00  0.00    +0.157 HD
ENDROOT
BRANCH   4   7
ATOM      7  C   UNL     1      -3.939  -1.371   2.409  0.00  0.00    +0.100 A 
ATOM      8  C   UNL     1      -5.191  -0.871   2.644  0.00  0.00    +0.042 A 
ATOM      9  C   UNL     1      -5.814  -1.136   3.872  0.00  0.00    +0.073 A 
ATOM     10  C   UNL     1      -5.179  -1.877   4.808  0.00  0.00    +0.098 A 
ATOM     11  N   UNL     1      -3.935  -2.374   4.577  0.00  0.00    -0.327 N 
ATOM     12  H   UNL     1      -3.496  -2.904   5.260  0.00  0.00    +0.168 HD
ATOM     13  C   UNL     1      -3.308  -2.145   3.407  0.00  0.00    +0.270 A 
ATOM     14  O   UNL     1      -2.194  -2.603   3.212  0.00  0.00    -0.266 OA
BRANCH   9  15
ATOM     15  C   UNL     1      -7.193  -0.593   4.149  0.00  0.00    +0.419 C 
ATOM     16  F   UNL     1      -7.601  -0.987   5.428  0.00  0.00    -0.166 F 
ATOM     17  F   UNL     1      -7.167   0.804   4.076  0.00  0.00    -0.166 F 
ATOM     18  F   UNL     1      -8.090  -1.093   3.199  0.00  0.00    -0.166 F 
ENDBRANCH   9  15
ENDBRANCH   4   7
BRANCH   1  20
ATOM     19  C   UNL     1      -0.344   1.838  -0.100  0.00  0.00    +0.033 C 
ATOM     20  C   UNL     1      -0.130   0.326  -0.000  0.00  0.00    +0.102 C 
BRANCH  20  21
ATOM     21  C   UNL     1       0.669  -0.148  -1.187  0.00  0.00    -0.026 A 
ATOM     22  C   UNL     1       0.046  -0.346  -2.405  0.00  0.00    +0.005 A 
ATOM     23  C   UNL     1       0.778  -0.780  -3.494  0.00  0.00    +0.002 A 
ATOM     24  C   UNL     1       2.134  -1.018  -3.365  0.00  0.00    +0.020 A 
ATOM     25  C   UNL     1       2.758  -0.820  -2.147  0.00  0.00    +0.041 A 
ATOM     26  C   UNL     1       2.026  -0.379  -1.059  0.00  0.00    +0.025 A 
ATOM     27 CL   UNL     1       4.460  -1.118  -1.984  0.00  0.00    -0.084 Cl
ENDBRANCH  20  21
ENDBRANCH   1  20
TORSDOF 4
