REMARK  Name = ZINC38742979
REMARK  6 active torsions:
REMARK  status: ('A' for Active; 'I' for Inactive)
REMARK    1  A    between atoms: C_2  and  C_3
REMARK    2  A    between atoms: C_3  and  O_4
REMARK    3  A    between atoms: O_4  and  C_5
REMARK    4  A    between atoms: C_8  and  C_11
REMARK    5  A    between atoms: C_14  and  C_21
REMARK    6  A    between atoms: C_24  and  C_27
REMARK                            x       y       z     vdW  Elec       q    Type
REMARK                         _______ _______ _______ _____ _____    ______ ____
ROOT
ATOM      1  C   UNL     1       5.879  -4.980   1.391  0.00  0.00    +0.125 C 
ATOM      2  N   UNL     1       7.002  -4.862   0.743  0.00  0.00    -0.173 NA
ATOM      3  N   UNL     1       8.043  -5.755   0.879  0.00  0.00    -0.206 N 
ATOM      4  C   UNL     1       9.261  -6.292   0.229  0.00  0.00    +0.206 C 
ATOM      5  N   UNL     1       9.266  -7.742   0.535  0.00  0.00    -0.231 NA
ATOM      6  N   UNL     1       8.125  -7.986   1.434  0.00  0.00    -0.224 NA
ATOM      7  C   UNL     1       7.910  -6.665   2.060  0.00  0.00    +0.240 C 
ATOM      8  S   UNL     1       6.147  -6.383   2.464  0.00  0.00    -0.063 S 
ATOM      9  H   UNL     1      10.134  -8.017   0.970  0.00  0.00    +0.143 HD
ATOM     10  H   UNL     1       8.353  -8.682   2.128  0.00  0.00    +0.144 HD
ENDROOT
BRANCH   1  14
ATOM     11  C   UNL     1       2.392  -2.577   1.044  0.00  0.00    +0.121 A 
ATOM     12  C   UNL     1       3.504  -2.301   0.259  0.00  0.00    +0.046 A 
ATOM     13  C   UNL     1       4.637  -3.078   0.369  0.00  0.00    +0.014 A 
ATOM     14  C   UNL     1       4.666  -4.144   1.270  0.00  0.00    +0.009 A 
ATOM     15  C   UNL     1       3.547  -4.417   2.058  0.00  0.00    +0.014 A 
ATOM     16  C   UNL     1       2.419  -3.632   1.946  0.00  0.00    +0.046 A 
BRANCH  11  17
ATOM     17  O   UNL     1       1.277  -1.809   0.933  0.00  0.00    -0.488 OA
BRANCH  17  18
ATOM     18  C   UNL     1       1.317  -0.740  -0.015  0.00  0.00    +0.256 C 
BRANCH  18  20
ATOM     19  C   UNL     1      -0.016   1.306   0.009  0.00  0.00    +0.007 C 
ATOM     20  C   UNL     1       0.002  -0.004   0.002  0.00  0.00    +0.006 C 
ENDBRANCH  18  20
ENDBRANCH  17  18
ENDBRANCH  11  17
ENDBRANCH   1  14
BRANCH   4  21
ATOM     21  C   UNL     1       9.197  -6.068  -1.284  0.00  0.00    +0.190 C 
ATOM     22  C   UNL     1      10.410  -6.673  -1.967  0.00  0.00    +0.034 C 
ATOM     23  C   UNL     1      11.017  -5.617  -2.541  0.00  0.00    +0.091 C 
ATOM     24  N   UNL     1      10.325  -4.476  -2.287  0.00  0.00    -0.154 NA
ATOM     25  N   UNL     1       9.307  -4.635  -1.602  0.00  0.00    -0.176 NA
BRANCH  23  26
ATOM     26  C   UNL     1      12.267  -5.689  -3.338  0.00  0.00    +0.002 A 
ATOM     27  C   UNL     1      12.896  -6.916  -3.543  0.00  0.00    +0.010 A 
ATOM     28  C   UNL     1      14.057  -6.977  -4.286  0.00  0.00    +0.001 A 
ATOM     29  C   UNL     1      14.597  -5.824  -4.826  0.00  0.00    +0.000 A 
ATOM     30  C   UNL     1      13.977  -4.604  -4.626  0.00  0.00    +0.001 A 
ATOM     31  C   UNL     1      12.812  -4.531  -3.890  0.00  0.00    +0.010 A 
ENDBRANCH  23  26
ENDBRANCH   4  21
TORSDOF 6
