REMARK  Name = ZINC60677404
REMARK  5 active torsions:
REMARK  status: ('A' for Active; 'I' for Inactive)
REMARK    1  A    between atoms: C_8  and  C_26
REMARK    2  A    between atoms: C_11  and  C_13
REMARK    3  A    between atoms: C_13  and  C_14
REMARK    4  A    between atoms: C_14  and  C_15
REMARK    5  A    between atoms: C_15  and  C_16
REMARK                            x       y       z     vdW  Elec       q    Type
REMARK                         _______ _______ _______ _____ _____    ______ ____
ROOT
ATOM      1  C   UNL     1       1.533   0.735  -3.795  0.00  0.00    +0.000 A 
ATOM      2  C   UNL     1       1.168   1.581  -2.764  0.00  0.00    +0.000 A 
ATOM      3  C   UNL     1       1.103   1.098  -1.474  0.00  0.00    +0.005 A 
ATOM      4  C   UNL     1       1.396  -0.231  -1.203  0.00  0.00    -0.027 A 
ATOM      5  C   UNL     1       1.751  -1.078  -2.229  0.00  0.00    -0.040 A 
ATOM      6  C   UNL     1       1.823  -0.587  -3.527  0.00  0.00    +0.004 A 
ATOM      7  C   UNL     1       2.054  -2.537  -2.017  0.00  0.00    +0.067 C 
ATOM      8  C   UNL     1       2.404  -2.813  -0.556  0.00  0.00    +0.166 C 
ATOM      9  N   UNL     1       1.391  -2.155   0.286  0.00  0.00    -0.285 N 
ATOM     10  C   UNL     1       1.319  -0.691   0.232  0.00  0.00    +0.144 C 
ATOM     11  C   UNL     1       0.563  -2.869   1.074  0.00  0.00    +0.216 C 
ATOM     12  O   UNL     1       0.713  -4.067   1.182  0.00  0.00    -0.276 OA
ENDROOT
BRANCH   8  13
ATOM     13  C   UNL     1       2.392  -4.299  -0.300  0.00  0.00    +0.231 C 
ATOM     14  O   UNL     1       3.302  -4.816   0.312  0.00  0.00    -0.274 OA
ATOM     15  N   UNL     1       1.369  -5.051  -0.752  0.00  0.00    -0.328 N 
ATOM     16  H   UNL     1       0.641  -4.637  -1.241  0.00  0.00    +0.145 HD
ATOM     17  H   UNL     1       1.361  -6.007  -0.587  0.00  0.00    +0.145 HD
ENDBRANCH   8  13
BRANCH  11  18
ATOM     18  C   UNL     1      -0.548  -2.177   1.821  0.00  0.00    +0.096 C 
BRANCH  18  19
ATOM     19  C   UNL     1      -1.333  -3.207   2.635  0.00  0.00    +0.014 C 
BRANCH  19  20
ATOM     20  C   UNL     1      -2.461  -2.505   3.394  0.00  0.00    +0.038 C 
BRANCH  20  21
ATOM     21  C   UNL     1      -3.235  -3.520   4.196  0.00  0.00    -0.022 A 
ATOM     22  C   UNL     1      -4.357  -4.152   3.816  0.00  0.00    +0.087 A 
ATOM     23  N   UNL     1      -4.772  -5.001   4.805  0.00  0.00    -0.360 N 
ATOM     24  H   UNL     1      -5.560  -5.565   4.760  0.00  0.00    +0.165 HD
ATOM     25  C   UNL     1      -3.906  -4.935   5.873  0.00  0.00    +0.047 A 
ATOM     26  C   UNL     1      -2.901  -4.009   5.536  0.00  0.00    +0.003 A 
ATOM     27  C   UNL     1      -1.871  -3.740   6.438  0.00  0.00    +0.010 A 
ATOM     28  C   UNL     1      -1.841  -4.381   7.645  0.00  0.00    +0.001 A 
ATOM     29  C   UNL     1      -2.827  -5.298   7.980  0.00  0.00    +0.002 A 
ATOM     30  C   UNL     1      -3.859  -5.572   7.109  0.00  0.00    +0.026 A 
ENDBRANCH  20  21
ENDBRANCH  19  20
ENDBRANCH  18  19
ENDBRANCH  11  18
TORSDOF 5
