REMARK  Name = ZINC00422133
REMARK  7 active torsions:
REMARK  status: ('A' for Active; 'I' for Inactive)
REMARK    1  A    between atoms: C_1  and  C_2
REMARK    2  A    between atoms: C_7  and  C_23
REMARK    3  A    between atoms: C_8  and  O_12
REMARK    4  A    between atoms: O_12  and  C_13
REMARK    5  A    between atoms: C_16  and  C_21
REMARK    6  A    between atoms: C_18  and  O_19
REMARK    7  A    between atoms: O_19  and  C_20
REMARK                            x       y       z     vdW  Elec       q    Type
REMARK                         _______ _______ _______ _____ _____    ______ ____
ROOT
ATOM      1  C   UNL     1      -7.947  -2.545  -0.267  0.00  0.00    +0.044 C 
ATOM      2  C   UNL     1      -8.071  -1.043  -0.265  0.00  0.00    -0.048 A 
ATOM      3  C   UNL     1      -9.332  -0.459  -0.366  0.00  0.00    +0.004 A 
ATOM      4  C   UNL     1      -9.476   0.895  -0.368  0.00  0.00    +0.010 A 
ATOM      5  C   UNL     1      -8.339   1.715  -0.264  0.00  0.00    +0.002 A 
ATOM      6  C   UNL     1      -8.451   3.117  -0.261  0.00  0.00    +0.034 A 
ATOM      7  C   UNL     1      -7.287   3.866  -0.155  0.00  0.00    +0.114 A 
ATOM      8  C   UNL     1      -6.042   3.203  -0.056  0.00  0.00    +0.239 A 
ATOM      9  N   UNL     1      -5.964   1.891  -0.066  0.00  0.00    -0.211 NA
ATOM     10  C   UNL     1      -7.055   1.123  -0.160  0.00  0.00    +0.075 A 
ATOM     11  C   UNL     1      -6.949  -0.278  -0.163  0.00  0.00    +0.031 A 
ENDROOT
BRANCH   7  12
ATOM     12  C   UNL     1      -7.346   5.296  -0.149  0.00  0.00    +0.105 C 
ATOM     13  N   UNL     1      -7.393   6.431  -0.143  0.00  0.00    -0.191 NA
ENDBRANCH   7  12
BRANCH   8  14
ATOM     14  O   UNL     1      -4.907   3.934   0.047  0.00  0.00    -0.433 OA
BRANCH  14  15
ATOM     15  C   UNL     1      -3.720   3.276   0.027  0.00  0.00    +0.172 A 
ATOM     16  C   UNL     1      -3.068   2.986   1.219  0.00  0.00    +0.051 A 
ATOM     17  C   UNL     1      -1.867   2.313   1.204  0.00  0.00    +0.015 A 
ATOM     18  C   UNL     1      -1.294   1.931  -0.014  0.00  0.00    +0.018 A 
ATOM     19  C   UNL     1      -1.951   2.224  -1.215  0.00  0.00    +0.060 A 
ATOM     20  C   UNL     1      -3.159   2.893  -1.191  0.00  0.00    +0.163 A 
BRANCH  20  21
ATOM     21  O   UNL     1      -3.800   3.180  -2.356  0.00  0.00    -0.491 OA
ATOM     22  C   UNL     1      -3.167   2.759  -3.566  0.00  0.00    +0.277 C 
ENDBRANCH  20  21
BRANCH  18  23
ATOM     23  C   UNL     1      -0.009   1.219  -0.033  0.00  0.00    +0.258 C 
ATOM     24  O   UNL     1       0.559   0.966   1.009  0.00  0.00    -0.296 OA
ENDBRANCH  18  23
ENDBRANCH  14  15
ENDBRANCH   8  14
TORSDOF 5
