REMARK  Name = ZINC09135493
REMARK  9 active torsions:
REMARK  status: ('A' for Active; 'I' for Inactive)
REMARK    1  A    between atoms: C_1  and  C_2
REMARK    2  A    between atoms: C_5  and  C_8
REMARK    3  A    between atoms: C_8  and  N_9
REMARK    4  A    between atoms: C_10  and  C_12
REMARK    5  A    between atoms: N_14  and  C_15
REMARK    6  A    between atoms: C_15  and  C_16
REMARK    7  A    between atoms: C_16  and  C_18
REMARK    8  A    between atoms: C_16  and  N_66
REMARK    9  A    between atoms: N_27  and  C_28
REMARK                            x       y       z     vdW  Elec       q    Type
REMARK                         _______ _______ _______ _____ _____    ______ ____
ROOT
ATOM      1  C   UNL     1       2.842  -2.512   4.155  0.00  0.00    -0.020 C 
ENDROOT
BRANCH   1   2
ATOM      2  C   UNL     1       2.443  -1.670   2.971  0.00  0.00    -0.059 A 
ATOM      3  C   UNL     1       2.081  -2.275   1.781  0.00  0.00    +0.004 A 
ATOM      4  C   UNL     1       1.720  -1.502   0.698  0.00  0.00    +0.023 A 
ATOM      5  C   UNL     1       1.716  -0.109   0.794  0.00  0.00    +0.033 A 
ATOM      6  C   UNL     1       2.074   0.491   1.988  0.00  0.00    -0.026 A 
ATOM      7  C   UNL     1       2.439  -0.293   3.072  0.00  0.00    +0.007 A 
ATOM      8  C   UNL     1       2.080   1.989   2.161  0.00  0.00    +0.038 C 
ATOM      9  C   UNL     1       2.029   2.665   0.789  0.00  0.00    +0.024 C 
ATOM     10  C   UNL     1       0.926   1.985  -0.032  0.00  0.00    +0.105 C 
ATOM     11  N   UNL     1       1.346   0.616  -0.338  0.00  0.00    -0.333 N 
ATOM     12  C   UNL     1       0.311  -0.093  -1.103  0.00  0.00    +0.129 C 
ENDBRANCH   1   2
BRANCH   1  17
ATOM     13  C   UNL     1       1.979  -4.192   5.691  0.00  0.00    -0.078 C 
ATOM     14  C   UNL     1       0.609  -4.889   5.887  0.00  0.00    -0.020 C 
ATOM     15  C   UNL     1      -0.377  -3.909   5.210  0.00  0.00    -0.020 C 
ATOM     16  C   UNL     1       0.482  -3.084   4.234  0.00  0.00    -0.078 C 
ATOM     17  N   UNL     1       1.844  -3.607   4.348  0.00  0.00    +0.385 N 
ATOM     18  H   UNL     1       1.998  -4.332   3.637  0.00  0.00    -0.081 HD
ENDBRANCH   1  17
BRANCH   1  19
ATOM     19  C   UNL     1       4.229  -3.111   3.911  0.00  0.00    +0.094 C 
BRANCH  19  22
ATOM     20  C   UNL     1       5.860  -4.444   5.135  0.00  0.00    +0.299 C 
ATOM     21  O   UNL     1       6.484  -4.576   4.102  0.00  0.00    -0.265 OA
ATOM     22  N   UNL     1       4.718  -3.729   5.146  0.00  0.00    -0.309 N 
ATOM     23  H   UNL     1       4.220  -3.623   5.972  0.00  0.00    +0.149 HD
BRANCH  20  25
ATOM     24  N   UNL     1       7.502  -5.789   6.384  0.00  0.00    -0.303 N 
ATOM     25  C   UNL     1       6.359  -5.074   6.395  0.00  0.00    +0.299 C 
ATOM     26  O   UNL     1       5.736  -4.942   7.428  0.00  0.00    -0.265 OA
ATOM     27  H   UNL     1       8.000  -5.895   5.559  0.00  0.00    +0.149 HD
BRANCH  24  28
ATOM     28  C   UNL     1       7.991  -6.407   7.619  0.00  0.00    +0.140 C 
BRANCH  28  33
ATOM     29  C   UNL     1      12.916  -9.231   6.541  0.00  0.00    +0.044 C 
ATOM     30  C   UNL     1      11.632  -8.495   6.823  0.00  0.00    -0.050 A 
ATOM     31  C   UNL     1      11.666  -7.165   7.200  0.00  0.00    +0.003 A 
ATOM     32  C   UNL     1      10.488  -6.490   7.458  0.00  0.00    +0.005 A 
ATOM     33  C   UNL     1       9.275  -7.144   7.338  0.00  0.00    -0.030 A 
ATOM     34  C   UNL     1       9.242  -8.474   6.965  0.00  0.00    +0.005 A 
ATOM     35  C   UNL     1      10.419  -9.149   6.703  0.00  0.00    +0.003 A 
ENDBRANCH  28  33
ENDBRANCH  24  28
ENDBRANCH  20  25
ENDBRANCH  19  22
ENDBRANCH   1  19
TORSDOF 7
