REMARK  Name = ZINC46656743
REMARK  12 active torsions:
REMARK  status: ('A' for Active; 'I' for Inactive)
REMARK    1  A    between atoms: C_1  and  C_2
REMARK    2  A    between atoms: C_2  and  C_3
REMARK    3  A    between atoms: C_2  and  N_4
REMARK    4  A    between atoms: C_5  and  N_9
REMARK    5  A    between atoms: C_10  and  C_12
REMARK    6  A    between atoms: C_12  and  O_13
REMARK    7  A    between atoms: O_13  and  C_14
REMARK    8  A    between atoms: C_14  and  C_16
REMARK    9  A    between atoms: C_20  and  O_28
REMARK   10  A    between atoms: C_22  and  O_26
REMARK   11  A    between atoms: O_26  and  C_27
REMARK   12  A    between atoms: O_28  and  C_29
REMARK                            x       y       z     vdW  Elec       q    Type
REMARK                         _______ _______ _______ _____ _____    ______ ____
ROOT
ATOM      1  C   UNL     1      -1.813  -4.404  -6.090  0.00  0.00    +0.356 C 
ATOM      2  O   UNL     1      -0.671  -4.200  -6.456  0.00  0.00    -0.243 OA
ENDROOT
BRANCH   1   3
ATOM      3  C   UNL     1      -2.707  -5.237  -6.905  0.00  0.00    +0.125 A 
ATOM      4  C   UNL     1      -2.375  -5.837  -8.079  0.00  0.00    +0.043 A 
ATOM      5  C   UNL     1      -3.511  -6.543  -8.541  0.00  0.00    +0.008 A 
ATOM      6  C   UNL     1      -3.758  -7.333  -9.674  0.00  0.00    +0.056 A 
ATOM      7  C   UNL     1      -4.999  -7.904  -9.854  0.00  0.00    +0.124 A 
ATOM      8  C   UNL     1      -6.011  -7.701  -8.917  0.00  0.00    +0.093 A 
ATOM      9  C   UNL     1      -5.785  -6.927  -7.797  0.00  0.00    +0.147 A 
ATOM     10  C   UNL     1      -4.534  -6.340  -7.596  0.00  0.00    +0.090 A 
ATOM     11  N   UNL     1      -4.019  -5.541  -6.598  0.00  0.00    -0.346 N 
ATOM     12  H   UNL     1      -4.500  -5.240  -5.811  0.00  0.00    +0.166 HD
BRANCH   9  13
ATOM     13  O   UNL     1      -6.780  -6.736  -6.890  0.00  0.00    -0.493 OA
ATOM     14  C   UNL     1      -8.034  -7.366  -7.160  0.00  0.00    +0.277 C 
ENDBRANCH   9  13
BRANCH   7  15
ATOM     15  O   UNL     1      -5.238  -8.669 -10.952  0.00  0.00    -0.495 OA
ATOM     16  C   UNL     1      -6.546  -9.232 -11.078  0.00  0.00    +0.277 C 
ENDBRANCH   7  15
ENDBRANCH   1   3
BRANCH   1  17
ATOM     17  O   UNL     1      -2.257  -3.866  -4.937  0.00  0.00    -0.451 OA
BRANCH  17  18
ATOM     18  C   UNL     1      -1.333  -3.067  -4.195  0.00  0.00    +0.328 C 
BRANCH  18  20
ATOM     19  N   UNL     1      -1.318  -1.773  -2.087  0.00  0.00    -0.268 N 
ATOM     20  C   UNL     1      -2.002  -2.554  -2.946  0.00  0.00    +0.256 C 
ATOM     21  O   UNL     1      -3.157  -2.845  -2.713  0.00  0.00    -0.272 OA
ATOM     22  H   UNL     1      -0.395  -1.541  -2.273  0.00  0.00    +0.156 HD
BRANCH  19  24
ATOM     23  N   UNL     1      -1.372  -0.511   0.012  0.00  0.00    -0.248 N 
ATOM     24  C   UNL     1      -1.937  -1.299  -0.931  0.00  0.00    +0.123 A 
ATOM     25  C   UNL     1      -3.220  -1.544  -0.547  0.00  0.00    +0.065 A 
ATOM     26  C   UNL     1      -3.437  -0.885   0.666  0.00  0.00    +0.136 A 
ATOM     27  N   UNL     1      -2.332  -0.271   1.004  0.00  0.00    -0.178 NA
BRANCH  23  29
ATOM     28  C   UNL     1      -0.019   1.526   0.010  0.00  0.00    +0.032 C 
ATOM     29  C   UNL     1       0.002  -0.004   0.002  0.00  0.00    +0.103 C 
ATOM     30  C   UNL     1       0.742  -0.511   1.242  0.00  0.00    +0.032 C 
ENDBRANCH  23  29
ENDBRANCH  19  24
ENDBRANCH  18  20
ENDBRANCH  17  18
ENDBRANCH   1  17
TORSDOF 8
