REMARK  Name = ZINC54621633
REMARK  9 active torsions:
REMARK  status: ('A' for Active; 'I' for Inactive)
REMARK    1  A    between atoms: C_1  and  C_2
REMARK    2  A    between atoms: C_5  and  O_28
REMARK    3  A    between atoms: C_6  and  N_8
REMARK    4  A    between atoms: N_8  and  C_9
REMARK    5  A    between atoms: C_9  and  C_11
REMARK    6  A    between atoms: C_9  and  C_23
REMARK    7  A    between atoms: C_17  and  C_22
REMARK    8  A    between atoms: C_20  and  O_21
REMARK    9  A    between atoms: O_28  and  C_29
REMARK                            x       y       z     vdW  Elec       q    Type
REMARK                         _______ _______ _______ _____ _____    ______ ____
ROOT
ATOM      1  C   UNL     1       0.048  -2.069   3.671  0.00  0.00    +0.171 C 
ENDROOT
BRANCH   1   2
ATOM      2  C   UNL     1       0.551  -2.974   4.766  0.00  0.00    +0.024 A 
ATOM      3  C   UNL     1       0.629  -4.346   4.540  0.00  0.00    +0.010 A 
ATOM      4  C   UNL     1       1.079  -5.191   5.509  0.00  0.00    +0.010 A 
ATOM      5  C   UNL     1       1.473  -4.675   6.755  0.00  0.00    +0.004 A 
ATOM      6  C   UNL     1       1.944  -5.517   7.780  0.00  0.00    +0.012 A 
ATOM      7  C   UNL     1       2.309  -4.945   8.965  0.00  0.00    +0.023 A 
ATOM      8  C   UNL     1       2.209  -3.566   9.132  0.00  0.00    +0.039 A 
ATOM      9  N   UNL     1       1.770  -2.785   8.175  0.00  0.00    -0.248 NA
ATOM     10  C   UNL     1       1.397  -3.281   6.991  0.00  0.00    +0.113 A 
ATOM     11  C   UNL     1       0.930  -2.436   5.962  0.00  0.00    +0.148 A 
ATOM     12  C   UNL     1       2.617  -2.954  10.448  0.00  0.00    +0.065 C 
BRANCH  11  13
ATOM     13  O   UNL     1       0.853  -1.094   6.163  0.00  0.00    -0.504 OA
ATOM     14  H   UNL     1       0.006  -0.799   6.523  0.00  0.00    +0.292 HD
ENDBRANCH  11  13
ENDBRANCH   1   2
BRANCH   1  15
ATOM     15  C   UNL     1      -1.437  -1.870   3.827  0.00  0.00    +0.129 A 
ATOM     16  C   UNL     1      -2.034  -0.796   4.375  0.00  0.00    +0.047 A 
ATOM     17  C   UNL     1      -3.427  -1.027   4.318  0.00  0.00    +0.041 A 
ATOM     18  C   UNL     1      -3.599  -2.229   3.738  0.00  0.00    +0.195 A 
ATOM     19  O   UNL     1      -2.391  -2.732   3.438  0.00  0.00    -0.466 OA
ENDBRANCH   1  15
BRANCH   1  20
ATOM     20  N   UNL     1       0.325  -2.679   2.368  0.00  0.00    -0.328 N 
ATOM     21  H   UNL     1       0.432  -3.640   2.295  0.00  0.00    +0.147 HD
BRANCH  20  27
ATOM     22  C   UNL     1       0.223   1.787   0.315  0.00  0.00    +0.044 C 
ATOM     23  C   UNL     1       0.389   0.294   0.203  0.00  0.00    -0.048 A 
ATOM     24  C   UNL     1       0.650  -0.281  -1.028  0.00  0.00    +0.007 A 
ATOM     25  C   UNL     1       0.804  -1.650  -1.137  0.00  0.00    +0.048 A 
ATOM     26  C   UNL     1       0.697  -2.452  -0.012  0.00  0.00    +0.141 A 
ATOM     27  C   UNL     1       0.434  -1.874   1.228  0.00  0.00    +0.070 A 
ATOM     28  C   UNL     1       0.286  -0.498   1.331  0.00  0.00    +0.030 A 
BRANCH  26  29
ATOM     29  O   UNL     1       0.848  -3.799  -0.118  0.00  0.00    -0.493 OA
ATOM     30  C   UNL     1       1.116  -4.322  -1.421  0.00  0.00    +0.277 C 
ENDBRANCH  26  29
ENDBRANCH  20  27
ENDBRANCH   1  20
TORSDOF 6
