REMARK  Name = ZINC33880707
REMARK  9 active torsions:
REMARK  status: ('A' for Active; 'I' for Inactive)
REMARK    1  A    between atoms: C_1  and  C_2
REMARK    2  A    between atoms: C_2  and  C_3
REMARK    3  A    between atoms: C_3  and  C_4
REMARK    4  A    between atoms: C_4  and  C_5
REMARK    5  A    between atoms: C_6  and  C_21
REMARK    6  A    between atoms: C_7  and  C_18
REMARK    7  A    between atoms: C_8  and  C_17
REMARK    8  A    between atoms: N_9  and  C_10
REMARK    9  A    between atoms: C_10  and  C_11
REMARK                            x       y       z     vdW  Elec       q    Type
REMARK                         _______ _______ _______ _____ _____    ______ ____
ROOT
ATOM      1  C   UNL     1      -2.826  -2.585   0.015  0.00  0.00    +0.028 A 
ATOM      2  C   UNL     1      -3.560  -2.859   1.124  0.00  0.00    +0.015 A 
ATOM      3  C   UNL     1      -4.867  -3.340   0.639  0.00  0.00    +0.065 A 
ATOM      4  C   UNL     1      -4.797  -3.310  -0.726  0.00  0.00    +0.029 A 
ATOM      5  N   UNL     1      -3.582  -2.854  -1.086  0.00  0.00    -0.341 N 
ATOM      6  C   UNL     1      -5.900  -3.714  -1.670  0.00  0.00    +0.064 C 
ENDROOT
BRANCH   2   7
ATOM      7  C   UNL     1      -3.134  -2.707   2.536  0.00  0.00    -0.015 A 
ATOM      8  C   UNL     1      -2.096  -3.488   3.041  0.00  0.00    +0.010 A 
ATOM      9  C   UNL     1      -1.704  -3.343   4.356  0.00  0.00    +0.020 A 
ATOM     10  C   UNL     1      -2.338  -2.423   5.173  0.00  0.00    +0.041 A 
ATOM     11  C   UNL     1      -3.370  -1.645   4.676  0.00  0.00    +0.020 A 
ATOM     12  C   UNL     1      -3.766  -1.778   3.361  0.00  0.00    +0.010 A 
ATOM     13 CL   UNL     1      -1.840  -2.245   6.826  0.00  0.00    -0.084 Cl
ENDBRANCH   2   7
BRANCH   3  14
ATOM     14  C   UNL     1      -6.012  -3.766   1.457  0.00  0.00    +0.244 C 
ATOM     15  O   UNL     1      -6.851  -2.953   1.799  0.00  0.00    -0.270 OA
ATOM     16  N   UNL     1      -6.133  -5.056   1.829  0.00  0.00    -0.325 N 
ATOM     17  H   UNL     1      -5.465  -5.703   1.556  0.00  0.00    +0.145 HD
ATOM     18  H   UNL     1      -6.889  -5.336   2.368  0.00  0.00    +0.145 HD
ENDBRANCH   3  14
BRANCH   1  19
ATOM     19  C   UNL     1      -1.413  -2.063   0.004  0.00  0.00    +0.054 C 
BRANCH  19  20
ATOM     20  C   UNL     1      -1.433  -0.534   0.013  0.00  0.00    +0.006 C 
BRANCH  20  22
ATOM     21  C   UNL     1      -0.019   1.526   0.010  0.00  0.00    +0.004 C 
ATOM     22  C   UNL     1       0.002  -0.004   0.002  0.00  0.00    -0.003 C 
ENDBRANCH  20  22
ENDBRANCH  19  20
ENDBRANCH   1  19
BRANCH   5  23
ATOM     23  C   UNL     1      -3.134  -2.676  -2.470  0.00  0.00    +0.177 C 
BRANCH  23  24
ATOM     24  C   UNL     1      -2.488  -3.947  -2.956  0.00  0.00    +0.061 A 
ATOM     25  C   UNL     1      -2.946  -4.546  -4.115  0.00  0.00    +0.025 A 
ATOM     26  C   UNL     1      -2.345  -5.715  -4.554  0.00  0.00    +0.003 A 
ATOM     27  C   UNL     1      -1.301  -6.242  -3.808  0.00  0.00    +0.020 A 
ATOM     28  C   UNL     1      -0.898  -5.588  -2.659  0.00  0.00    +0.111 A 
ATOM     29  N   UNL     1      -1.490  -4.473  -2.274  0.00  0.00    -0.258 NA
ENDBRANCH  23  24
ENDBRANCH   5  23
TORSDOF 7
