REMARK  Name = ZINC55493361
REMARK  6 active torsions:
REMARK  status: ('A' for Active; 'I' for Inactive)
REMARK    1  A    between atoms: C_1  and  C_2
REMARK    2  A    between atoms: C_2  and  C_3
REMARK    3  A    between atoms: C_4  and  C_26
REMARK    4  A    between atoms: C_12  and  C_14
REMARK    5  A    between atoms: C_14  and  C_15
REMARK    6  A    between atoms: N_17  and  C_18
REMARK                            x       y       z     vdW  Elec       q    Type
REMARK                         _______ _______ _______ _____ _____    ______ ____
ROOT
ATOM      1  C   UNL     1       0.729  -0.512   1.220  0.00  0.00    -0.023 A 
ATOM      2  C   UNL     1       2.054  -0.725   1.180  0.00  0.00    -0.007 A 
ATOM      3  S   UNL     1       2.429  -1.302   2.825  0.00  0.00    -0.073 S 
ATOM      4  C   UNL     1       0.796  -1.241   3.517  0.00  0.00    +0.116 A 
ATOM      5  C   UNL     1       0.007  -0.769   2.452  0.00  0.00    +0.075 A 
ATOM      6  C   UNL     1      -1.389  -0.615   2.737  0.00  0.00    +0.260 A 
ATOM      7  O   UNL     1      -2.156  -0.216   1.878  0.00  0.00    -0.267 OA
ATOM      8  N   UNL     1      -1.840  -0.918   3.968  0.00  0.00    -0.310 N 
ATOM      9  H   UNL     1      -2.784  -0.816   4.167  0.00  0.00    +0.170 HD
ATOM     10  C   UNL     1      -1.001  -1.365   4.938  0.00  0.00    +0.120 A 
ATOM     11  N   UNL     1       0.275  -1.524   4.707  0.00  0.00    -0.226 NA
ATOM     12  C   UNL     1       2.998  -0.524   0.023  0.00  0.00    +0.052 C 
ENDROOT
BRANCH   1  14
ATOM     13  C   UNL     1      -0.009   1.522   0.009  0.00  0.00    +0.009 C 
ATOM     14  C   UNL     1       0.000  -0.008   0.001  0.00  0.00    +0.033 C 
ENDBRANCH   1  14
BRANCH  10  15
ATOM     15  C   UNL     1      -1.553  -1.692   6.301  0.00  0.00    +0.170 C 
BRANCH  15  16
ATOM     16  C   UNL     1      -0.435  -2.164   7.196  0.00  0.00    +0.225 C 
ATOM     17  O   UNL     1       0.698  -2.227   6.768  0.00  0.00    -0.275 OA
ATOM     18  N   UNL     1      -0.694  -2.514   8.471  0.00  0.00    -0.285 N 
ATOM     19  H   UNL     1      -1.587  -2.400   8.833  0.00  0.00    +0.155 HD
BRANCH  18  20
ATOM     20  C   UNL     1       0.324  -3.043   9.272  0.00  0.00    +0.036 A 
ATOM     21  C   UNL     1       0.032  -4.028  10.207  0.00  0.00    +0.043 A 
ATOM     22  C   UNL     1       1.040  -4.549  10.996  0.00  0.00    +0.044 A 
ATOM     23  C   UNL     1       2.338  -4.090  10.857  0.00  0.00    +0.040 A 
ATOM     24  C   UNL     1       2.631  -3.108   9.926  0.00  0.00    +0.044 A 
ATOM     25  C   UNL     1       1.628  -2.588   9.130  0.00  0.00    +0.043 A 
ATOM     26 CL   UNL     1       4.260  -2.535   9.754  0.00  0.00    -0.083 Cl
ATOM     27 CL   UNL     1       0.677  -5.780  12.165  0.00  0.00    -0.083 Cl
ENDBRANCH  18  20
ENDBRANCH  15  16
ENDBRANCH  10  15
TORSDOF 4
