REMARK  Name = ZINC40065205
REMARK  7 active torsions:
REMARK  status: ('A' for Active; 'I' for Inactive)
REMARK    1  A    between atoms: C_1  and  C_2
REMARK    2  A    between atoms: C_5  and  C_8
REMARK    3  A    between atoms: C_8  and  N_9
REMARK    4  A    between atoms: C_10  and  C_27
REMARK    5  A    between atoms: C_18  and  C_26
REMARK    6  A    between atoms: C_19  and  C_25
REMARK    7  A    between atoms: C_31  and  O_33
REMARK                            x       y       z     vdW  Elec       q    Type
REMARK                         _______ _______ _______ _____ _____    ______ ____
ROOT
ATOM      1  N   UNL     1       1.447  -4.746  -0.032  0.00  0.00    -0.279 N 
ATOM      2  C   UNL     1       2.261  -5.011  -1.229  0.00  0.00    +0.145 C 
ATOM      3  C   UNL     1       3.590  -5.469  -0.724  0.00  0.00    +0.072 A 
ATOM      4  C   UNL     1       4.803  -5.885  -1.436  0.00  0.00    +0.199 A 
ATOM      5  O   UNL     1       4.952  -5.748  -2.638  0.00  0.00    -0.287 OA
ATOM      6  C   UNL     1       5.833  -6.489  -0.553  0.00  0.00    +0.065 A 
ATOM      7  C   UNL     1       6.954  -7.113  -1.099  0.00  0.00    +0.015 A 
ATOM      8  C   UNL     1       7.891  -7.668  -0.273  0.00  0.00    +0.004 A 
ATOM      9  C   UNL     1       7.728  -7.613   1.104  0.00  0.00    -0.044 A 
ATOM     10  C   UNL     1       6.628  -7.000   1.661  0.00  0.00    -0.005 A 
ATOM     11  C   UNL     1       5.660  -6.423   0.839  0.00  0.00    +0.143 A 
ATOM     12  O   UNL     1       4.593  -5.817   1.407  0.00  0.00    -0.449 OA
ATOM     13  C   UNL     1       3.543  -5.460   0.641  0.00  0.00    +0.199 A 
ATOM     14  C   UNL     1       2.204  -5.006   1.054  0.00  0.00    +0.283 C 
ATOM     15  O   UNL     1       1.834  -4.885   2.205  0.00  0.00    -0.267 OA
ATOM     16  C   UNL     1       6.470  -6.952   3.159  0.00  0.00    +0.048 C 
ATOM     17  C   UNL     1       8.768  -8.232   2.002  0.00  0.00    +0.044 C 
ENDROOT
BRANCH   2  18
ATOM     18  C   UNL     1       2.417  -3.752  -2.041  0.00  0.00    -0.019 A 
ATOM     19  C   UNL     1       2.626  -2.541  -1.406  0.00  0.00    +0.006 A 
ATOM     20  C   UNL     1       2.770  -1.384  -2.148  0.00  0.00    +0.004 A 
ATOM     21  C   UNL     1       2.705  -1.434  -3.528  0.00  0.00    +0.045 A 
ATOM     22  C   UNL     1       2.496  -2.647  -4.167  0.00  0.00    +0.117 A 
ATOM     23  C   UNL     1       2.358  -3.808  -3.420  0.00  0.00    +0.051 A 
BRANCH  22  24
ATOM     24  O   UNL     1       2.431  -2.699  -5.524  0.00  0.00    -0.507 OA
ATOM     25  H   UNL     1       3.285  -2.845  -5.953  0.00  0.00    +0.292 HD
ENDBRANCH  22  24
ENDBRANCH   2  18
BRANCH   1  26
ATOM     26  C   UNL     1       0.059  -4.275  -0.021  0.00  0.00    +0.144 C 
BRANCH  26  31
ATOM     27  C   UNL     1      -0.018   1.503   0.010  0.00  0.00    +0.044 C 
ATOM     28  C   UNL     1       0.002  -0.004   0.002  0.00  0.00    -0.050 A 
ATOM     29  C   UNL     1       0.006  -0.689  -1.199  0.00  0.00    +0.003 A 
ATOM     30  C   UNL     1       0.025  -2.071  -1.206  0.00  0.00    +0.005 A 
ATOM     31  C   UNL     1       0.040  -2.768  -0.013  0.00  0.00    -0.030 A 
ATOM     32  C   UNL     1       0.037  -2.084   1.188  0.00  0.00    +0.005 A 
ATOM     33  C   UNL     1       0.023  -0.702   1.195  0.00  0.00    +0.003 A 
ENDBRANCH  26  31
ENDBRANCH   1  26
TORSDOF 4
