REMARK  Name = ZINC10678689
REMARK  8 active torsions:
REMARK  status: ('A' for Active; 'I' for Inactive)
REMARK    1  A    between atoms: C_1  and  N_2
REMARK    2  A    between atoms: N_2  and  C_3
REMARK    3  A    between atoms: N_2  and  S_4
REMARK    4  A    between atoms: S_4  and  C_7
REMARK    5  A    between atoms: C_10  and  C_12
REMARK    6  A    between atoms: C_12  and  N_13
REMARK    7  A    between atoms: N_13  and  S_14
REMARK    8  A    between atoms: S_14  and  C_17
REMARK                            x       y       z     vdW  Elec       q    Type
REMARK                         _______ _______ _______ _____ _____    ______ ____
ROOT
ATOM      1  C   UNL     1       1.402   3.539   0.007  0.00  0.00    +0.148 C 
ENDROOT
BRANCH   1   5
ATOM      2  C   UNL     1       1.196  -0.645  -0.013  0.00  0.00    +0.143 A 
ATOM      3  C   UNL     1       0.002  -0.004   0.002  0.00  0.00    +0.037 A 
ATOM      4  C   UNL     1      -0.017   1.378   0.010  0.00  0.00    +0.014 A 
ATOM      5  C   UNL     1       1.160   2.051   0.002  0.00  0.00    +0.007 A 
ATOM      6  S   UNL     1       2.348   0.719  -0.017  0.00  0.00    -0.072 S 
BRANCH   2   7
ATOM      7  S   UNL     1       1.526  -2.376  -0.026  0.00  0.00    +0.067 S 
ATOM      8  O   UNL     1       2.831  -2.545   0.512  0.00  0.00    -0.152 OA
ATOM      9  O   UNL     1       0.384  -3.011   0.532  0.00  0.00    -0.152 OA
BRANCH   7  11
ATOM     10  C   UNL     1       2.884  -2.819  -2.323  0.00  0.00    +0.131 C 
ATOM     11  N   UNL     1       1.603  -2.848  -1.611  0.00  0.00    -0.182 NA
ATOM     12  C   UNL     1       0.391  -3.294  -2.302  0.00  0.00    +0.131 C 
ENDBRANCH   7  11
ENDBRANCH   2   7
ENDBRANCH   1   5
BRANCH   1  13
ATOM     13  N   UNL     1       1.493   4.014   1.390  0.00  0.00    -0.185 NA
ATOM     14  H   UNL     1       1.188   3.450   2.118  0.00  0.00    +0.148 HD
BRANCH  13  15
ATOM     15  S   UNL     1       2.117   5.514   1.711  0.00  0.00    +0.059 S 
ATOM     16  O   UNL     1       2.047   5.690   3.119  0.00  0.00    -0.153 OA
ATOM     17  O   UNL     1       3.338   5.609   0.991  0.00  0.00    -0.153 OA
BRANCH  15  18
ATOM     18  C   UNL     1       1.020   6.697   1.000  0.00  0.00    +0.106 A 
ATOM     19  C   UNL     1       1.214   7.125  -0.300  0.00  0.00    +0.028 A 
ATOM     20  C   UNL     1       0.351   8.049  -0.859  0.00  0.00    +0.003 A 
ATOM     21  C   UNL     1      -0.699   8.552  -0.116  0.00  0.00    +0.015 A 
ATOM     22  C   UNL     1      -0.890   8.128   1.187  0.00  0.00    +0.020 A 
ATOM     23  C   UNL     1      -0.030   7.199   1.744  0.00  0.00    +0.043 A 
ATOM     24 BR   UNL     1      -2.328   8.817   2.205  0.00  0.00    -0.050 Br
ENDBRANCH  15  18
ENDBRANCH  13  15
ENDBRANCH   1  13
TORSDOF 6
