REMARK  Name = ZINC64165612
REMARK  9 active torsions:
REMARK  status: ('A' for Active; 'I' for Inactive)
REMARK    1  A    between atoms: C_1  and  C_2
REMARK    2  A    between atoms: C_2  and  C_3
REMARK    3  A    between atoms: C_2  and  C_4
REMARK    4  A    between atoms: C_7  and  N_10
REMARK    5  A    between atoms: C_11  and  C_13
REMARK    6  A    between atoms: C_13  and  C_15
REMARK    7  A    between atoms: C_13  and  N_25
REMARK    8  A    between atoms: C_15  and  C_16
REMARK    9  A    between atoms: C_26  and  C_28
REMARK                            x       y       z     vdW  Elec       q    Type
REMARK                         _______ _______ _______ _____ _____    ______ ____
ROOT
ATOM      1  C   UNL     1      -7.236  -3.087  -1.052  0.00  0.00    +0.163 C 
ENDROOT
BRANCH   1   3
ATOM      2  N   UNL     1      -5.320  -1.968   0.042  0.00  0.00    -0.284 N 
ATOM      3  C   UNL     1      -5.790  -2.663  -1.013  0.00  0.00    +0.238 C 
ATOM      4  O   UNL     1      -5.050  -2.946  -1.931  0.00  0.00    -0.273 OA
ATOM      5  H   UNL     1      -5.891  -1.807   0.810  0.00  0.00    +0.155 HD
BRANCH   2   9
ATOM      6  C   UNL     1      -1.418  -0.509   0.005  0.00  0.00    -0.045 A 
ATOM      7  C   UNL     1      -2.137  -0.586  -1.173  0.00  0.00    +0.006 A 
ATOM      8  C   UNL     1      -3.431  -1.069  -1.165  0.00  0.00    +0.023 A 
ATOM      9  C   UNL     1      -4.010  -1.478   0.030  0.00  0.00    +0.033 A 
ATOM     10  C   UNL     1      -3.284  -1.400   1.212  0.00  0.00    +0.023 A 
ATOM     11  C   UNL     1      -1.989  -0.921   1.195  0.00  0.00    +0.006 A 
BRANCH   6  13
ATOM     12  C   UNL     1       0.857  -0.857  -0.919  0.00  0.00    +0.012 C 
ATOM     13  C   UNL     1      -0.006   0.019  -0.008  0.00  0.00    +0.013 C 
ATOM     14  C   UNL     1      -0.004   1.456  -0.532  0.00  0.00    +0.012 C 
ENDBRANCH   6  13
ENDBRANCH   2   9
ENDBRANCH   1   3
BRANCH   1  15
ATOM     15  N   UNL     1      -7.495  -3.822  -2.292  0.00  0.00    -0.302 N 
ATOM     16  C   UNL     1      -8.743  -3.866  -2.800  0.00  0.00    +0.231 C 
ATOM     17  O   UNL     1      -9.650  -3.298  -2.231  0.00  0.00    -0.274 OA
ATOM     18  H   UNL     1      -6.769  -4.277  -2.747  0.00  0.00    +0.150 HD
BRANCH  16  19
ATOM     19  C   UNL     1      -9.010  -4.623  -4.077  0.00  0.00    +0.145 C 
ATOM     20  C   UNL     1      -8.604  -3.766  -5.276  0.00  0.00    +0.063 C 
ATOM     21  C   UNL     1      -9.086  -4.406  -6.552  0.00  0.00    -0.041 A 
ATOM     22  C   UNL     1      -8.527  -3.992  -7.752  0.00  0.00    +0.004 A 
ATOM     23  C   UNL     1      -8.943  -4.550  -8.944  0.00  0.00    +0.000 A 
ATOM     24  C   UNL     1      -9.923  -5.525  -8.942  0.00  0.00    +0.000 A 
ATOM     25  C   UNL     1     -10.479  -5.939  -7.748  0.00  0.00    +0.005 A 
ATOM     26  C   UNL     1     -10.060  -5.381  -6.549  0.00  0.00    -0.030 A 
ATOM     27  C   UNL     1     -10.688  -5.873  -5.272  0.00  0.00    +0.117 C 
ATOM     28  N   UNL     1     -10.446  -4.927  -4.179  0.00  0.00    -0.301 NA
ATOM     29  H   UNL     1     -10.804  -5.281  -3.305  0.00  0.00    +0.123 HD
ENDBRANCH  16  19
ENDBRANCH   1  15
BRANCH   1  30
ATOM     30  C   UNL     1      -7.535  -3.989   0.148  0.00  0.00    +0.065 C 
BRANCH  30  31
ATOM     31  C   UNL     1      -9.006  -4.314   0.177  0.00  0.00    -0.039 C 
ATOM     32  C   UNL     1      -9.607  -5.413  -0.333  0.00  0.00    -0.001 A 
ATOM     33  C   UNL     1      -9.090  -6.589  -1.043  0.00  0.00    +0.010 A 
ATOM     34  C   UNL     1      -9.956  -7.548  -1.441  0.00  0.00    +0.001 A 
ATOM     35  C   UNL     1     -11.332  -7.447  -1.194  0.00  0.00    +0.002 A 
ATOM     36  C   UNL     1     -11.882  -6.397  -0.548  0.00  0.00    +0.026 A 
ATOM     37  C   UNL     1     -11.063  -5.330  -0.084  0.00  0.00    +0.043 A 
ATOM     38  N   UNL     1     -11.352  -4.223   0.555  0.00  0.00    -0.380 N 
ATOM     39  C   UNL     1     -10.109  -3.480   0.790  0.00  0.00    +0.144 C 
ATOM     40  H   UNL     1     -12.239  -3.943   0.831  0.00  0.00    +0.160 HD
ENDBRANCH  30  31
ENDBRANCH   1  30
TORSDOF 7
