REMARK  Name = ZINC07597457
REMARK  5 active torsions:
REMARK  status: ('A' for Active; 'I' for Inactive)
REMARK    1  A    between atoms: C_6  and  S_7
REMARK    2  A    between atoms: S_7  and  C_8
REMARK    3  A    between atoms: C_8  and  C_9
REMARK    4  A    between atoms: C_9  and  C_10
REMARK    5  A    between atoms: C_10  and  C_11
REMARK                            x       y       z     vdW  Elec       q    Type
REMARK                         _______ _______ _______ _____ _____    ______ ____
ROOT
ATOM      1  C   UNL     1       4.649   7.720  -0.002  0.00  0.00    +0.219 C 
ATOM      2  O   UNL     1       3.654   8.412   0.011  0.00  0.00    -0.275 OA
ATOM      3  N   UNL     1       5.869   8.293  -0.011  0.00  0.00    -0.265 N 
ATOM      4  C   UNL     1       5.986   9.674  -0.005  0.00  0.00    +0.166 A 
ATOM      5  N   UNL     1       5.037  10.580   0.003  0.00  0.00    -0.222 NA
ATOM      6  C   UNL     1       5.298  11.906   0.013  0.00  0.00    +0.116 A 
ATOM      7  C   UNL     1       4.375  12.979   0.027  0.00  0.00    +0.152 A 
ATOM      8  C   UNL     1       4.811  14.280   0.029  0.00  0.00    +0.079 A 
ATOM      9  C   UNL     1       6.165  14.591   0.018  0.00  0.00    +0.127 A 
ATOM     10  C   UNL     1       7.095  13.565   0.004  0.00  0.00    +0.055 A 
ATOM     11  C   UNL     1       6.666  12.260   0.002  0.00  0.00    +0.046 A 
ATOM     12  S   UNL     1       7.467  10.674  -0.013  0.00  0.00    -0.052 S 
ATOM     13  F   UNL     1       6.570  15.879   0.020  0.00  0.00    -0.205 F 
ATOM     14  F   UNL     1       3.049  12.719   0.037  0.00  0.00    -0.203 F 
ATOM     15  H   UNL     1       6.665   7.739  -0.021  0.00  0.00    +0.157 HD
ENDROOT
BRANCH   1  16
ATOM     16  C   UNL     1       4.522   6.218  -0.008  0.00  0.00    +0.097 C 
BRANCH  16  17
ATOM     17  C   UNL     1       3.042   5.831   0.004  0.00  0.00    +0.020 C 
BRANCH  17  18
ATOM     18  C   UNL     1       2.913   4.307  -0.003  0.00  0.00    +0.075 C 
BRANCH  18  19
ATOM     19  S   UNL     1       1.158   3.848   0.011  0.00  0.00    -0.125 S 
BRANCH  19  25
ATOM     20  C   UNL     1      -0.017   1.377   0.010  0.00  0.00    +0.016 A 
ATOM     21  C   UNL     1       0.002  -0.004   0.002  0.00  0.00    +0.021 A 
ATOM     22  C   UNL     1       1.209  -0.681  -0.013  0.00  0.00    +0.041 A 
ATOM     23  C   UNL     1       2.401   0.023  -0.020  0.00  0.00    +0.021 A 
ATOM     24  C   UNL     1       2.388   1.404  -0.012  0.00  0.00    +0.016 A 
ATOM     25  C   UNL     1       1.178   2.086   0.002  0.00  0.00    +0.008 A 
ATOM     26 CL   UNL     1       1.228  -2.417  -0.022  0.00  0.00    -0.084 Cl
ENDBRANCH  19  25
ENDBRANCH  18  19
ENDBRANCH  17  18
ENDBRANCH  16  17
ENDBRANCH   1  16
TORSDOF 5
