REMARK  Name = ZINC37392255
REMARK  6 active torsions:
REMARK  status: ('A' for Active; 'I' for Inactive)
REMARK    1  A    between atoms: C_1  and  C_2
REMARK    2  A    between atoms: C_2  and  C_4
REMARK    3  A    between atoms: C_2  and  N_12
REMARK    4  A    between atoms: C_6  and  O_11
REMARK    5  A    between atoms: C_9  and  O_10
REMARK    6  A    between atoms: N_12  and  C_13
REMARK                            x       y       z     vdW  Elec       q    Type
REMARK                         _______ _______ _______ _____ _____    ______ ____
ROOT
ATOM      1  C   UNL     1      -0.019   1.526   0.010  0.00  0.00    +0.033 C 
ATOM      2  C   UNL     1       0.002  -0.004   0.002  0.00  0.00    +0.101 C 
ENDROOT
BRANCH   2   3
ATOM      3  C   UNL     1      -1.412  -0.526   0.013  0.00  0.00    +0.017 A 
ATOM      4  C   UNL     1      -2.014  -0.864   1.209  0.00  0.00    +0.054 A 
ATOM      5  C   UNL     1      -3.316  -1.343   1.219  0.00  0.00    +0.117 A 
ATOM      6  C   UNL     1      -4.012  -1.484   0.028  0.00  0.00    +0.049 A 
ATOM      7  C   UNL     1      -3.410  -1.146  -1.168  0.00  0.00    +0.049 A 
ATOM      8  C   UNL     1      -2.110  -0.661  -1.178  0.00  0.00    +0.122 A 
BRANCH   8   9
ATOM      9  O   UNL     1      -1.519  -0.323  -2.355  0.00  0.00    -0.506 OA
ATOM     10  H   UNL     1      -1.044  -1.051  -2.780  0.00  0.00    +0.292 HD
ENDBRANCH   8   9
BRANCH   5  11
ATOM     11  O   UNL     1      -3.908  -1.676   2.397  0.00  0.00    -0.507 OA
ATOM     12  H   UNL     1      -4.384  -0.947   2.818  0.00  0.00    +0.292 HD
ENDBRANCH   5  11
ENDBRANCH   2   3
BRANCH   2  13
ATOM     13  N   UNL     1       0.711  -0.489   1.189  0.00  0.00    -0.336 N 
ATOM     14  H   UNL     1       0.213  -0.731   1.986  0.00  0.00    +0.147 HD
BRANCH  13  15
ATOM     15  C   UNL     1       2.104  -0.604   1.173  0.00  0.00    +0.046 A 
ATOM     16  C   UNL     1       2.818  -0.253   0.035  0.00  0.00    +0.025 A 
ATOM     17  C   UNL     1       4.194  -0.366   0.022  0.00  0.00    +0.017 A 
ATOM     18  C   UNL     1       4.862  -0.830   1.142  0.00  0.00    +0.019 A 
ATOM     19  C   UNL     1       4.154  -1.181   2.277  0.00  0.00    +0.037 A 
ATOM     20  C   UNL     1       2.777  -1.064   2.298  0.00  0.00    +0.063 A 
ATOM     21 CL   UNL     1       1.890  -1.498   3.726  0.00  0.00    -0.082 Cl
ATOM     22 BR   UNL     1       6.747  -0.984   1.120  0.00  0.00    -0.050 Br
ENDBRANCH  13  15
ENDBRANCH   2  13
TORSDOF 5
