REMARK  Name = ZINC35374840
REMARK  11 active torsions:
REMARK  status: ('A' for Active; 'I' for Inactive)
REMARK    1  A    between atoms: C_1  and  C_2
REMARK    2  A    between atoms: C_2  and  C_3
REMARK    3  A    between atoms: C_3  and  C_4
REMARK    4  A    between atoms: C_4  and  C_5
REMARK    5  A    between atoms: C_8  and  C_11
REMARK    6  A    between atoms: C_20  and  C_24
REMARK    7  A    between atoms: N_26  and  C_27
REMARK    8  A    between atoms: C_27  and  C_28
REMARK    9  A    between atoms: C_28  and  C_30
REMARK   10  A    between atoms: C_28  and  C_31
REMARK   11  A    between atoms: C_31  and  C_32
REMARK                            x       y       z     vdW  Elec       q    Type
REMARK                         _______ _______ _______ _____ _____    ______ ____
ROOT
ATOM      1  C   UNL     1       3.432  -3.884  -6.000  0.00  0.00    +0.247 C 
ATOM      2  O   UNL     1       2.789  -4.186  -6.986  0.00  0.00    -0.270 OA
ATOM      3  N   UNL     1       4.775  -3.999  -6.010  0.00  0.00    -0.298 N 
ATOM      4  C   UNL     1       5.555  -3.766  -4.786  0.00  0.00    +0.107 C 
ATOM      5  C   UNL     1       6.431  -4.996  -4.519  0.00  0.00    +0.017 C 
ATOM      6  C   UNL     1       7.249  -5.315  -5.761  0.00  0.00    -0.016 C 
ATOM      7  C   UNL     1       6.362  -5.588  -6.965  0.00  0.00    +0.017 C 
ATOM      8  C   UNL     1       5.485  -4.367  -7.243  0.00  0.00    +0.107 C 
ATOM      9  N   UNL     1       8.217  -4.235  -6.050  0.00  0.00    +0.397 N 
ATOM     10  C   UNL     1       9.502  -4.445  -5.353  0.00  0.00    +0.028 C 
ATOM     11  C   UNL     1       9.961  -5.916  -5.582  0.00  0.00    +0.061 C 
ATOM     12  S   UNL     1       8.328  -6.765  -5.440  0.00  0.00    -0.174 S 
ATOM     13  H   UNL     1       8.384  -4.202  -7.044  0.00  0.00    -0.083 HD
ATOM     14  H   UNL     1       7.823  -3.354  -5.755  0.00  0.00    -0.083 HD
ENDROOT
BRANCH   1  18
ATOM     15  C   UNL     1       1.449  -2.461  -2.523  0.00  0.00    -0.047 A 
ATOM     16  C   UNL     1       0.918  -3.523  -3.233  0.00  0.00    +0.004 A 
ATOM     17  C   UNL     1       1.557  -3.990  -4.363  0.00  0.00    +0.013 A 
ATOM     18  C   UNL     1       2.742  -3.388  -4.790  0.00  0.00    +0.037 A 
ATOM     19  C   UNL     1       3.273  -2.317  -4.069  0.00  0.00    +0.013 A 
ATOM     20  C   UNL     1       2.621  -1.857  -2.944  0.00  0.00    +0.004 A 
BRANCH  15  21
ATOM     21  C   UNL     1       0.746  -1.957  -1.290  0.00  0.00    +0.035 C 
BRANCH  21  22
ATOM     22  C   UNL     1      -0.256  -0.870  -1.683  0.00  0.00    +0.004 C 
BRANCH  22  24
ATOM     23  C   UNL     1      -1.973   0.730  -0.823  0.00  0.00    +0.004 C 
ATOM     24  C   UNL     1      -0.971  -0.357  -0.430  0.00  0.00    -0.003 C 
ENDBRANCH  22  24
ENDBRANCH  21  22
ENDBRANCH  15  21
ENDBRANCH   1  18
BRANCH  10  25
ATOM     25  C   UNL     1      10.538  -3.501  -5.907  0.00  0.00    +0.200 C 
ATOM     26  O   UNL     1      10.242  -2.728  -6.793  0.00  0.00    -0.278 OA
ATOM     27  N   UNL     1      11.793  -3.516  -5.417  0.00  0.00    -0.316 N 
ATOM     28  H   UNL     1      12.030  -4.134  -4.707  0.00  0.00    +0.149 HD
BRANCH  27  29
ATOM     29  C   UNL     1      12.800  -2.599  -5.955  0.00  0.00    +0.107 C 
BRANCH  29  30
ATOM     30  C   UNL     1      14.130  -2.819  -5.231  0.00  0.00    +0.003 C 
ATOM     31  C   UNL     1      14.653  -4.223  -5.541  0.00  0.00    +0.009 C 
BRANCH  30  32
ATOM     32  C   UNL     1      15.147  -1.779  -5.704  0.00  0.00    +0.001 C 
ATOM     33  C   UNL     1      16.436  -1.919  -4.891  0.00  0.00    +0.004 C 
ENDBRANCH  30  32
ENDBRANCH  29  30
ENDBRANCH  27  29
ENDBRANCH  10  25
TORSDOF 8
