REMARK  Name = ZINC12987211
REMARK  5 active torsions:
REMARK  status: ('A' for Active; 'I' for Inactive)
REMARK    1  A    between atoms: C_1  and  C_2
REMARK    2  A    between atoms: C_14  and  C_16
REMARK    3  A    between atoms: C_19  and  S_25
REMARK    4  A    between atoms: C_20  and  N_22
REMARK    5  A    between atoms: S_25  and  C_26
REMARK                            x       y       z     vdW  Elec       q    Type
REMARK                         _______ _______ _______ _____ _____    ______ ____
ROOT
ATOM      1  C   UNL     1      -3.055  -1.468  -1.933  0.00  0.00    +0.019 C 
ATOM      2  C   UNL     1      -2.055  -0.363  -1.587  0.00  0.00    +0.050 C 
ATOM      3  C   UNL     1      -2.800   0.953  -1.418  0.00  0.00    +0.033 C 
ATOM      4  C   UNL     1      -1.931   2.178  -1.310  0.00  0.00    +0.115 C 
ATOM      5  N   UNL     1      -1.165   2.188  -0.054  0.00  0.00    -0.266 N 
ATOM      6  C   UNL     1       0.109   1.602  -0.045  0.00  0.00    +0.050 A 
ATOM      7  C   UNL     1       1.238   2.410  -0.013  0.00  0.00    +0.024 A 
ATOM      8  C   UNL     1       2.494   1.835  -0.088  0.00  0.00    +0.002 A 
ATOM      9  C   UNL     1       2.636   0.464  -0.195  0.00  0.00    +0.001 A 
ATOM     10  C   UNL     1       1.516  -0.350  -0.210  0.00  0.00    +0.016 A 
ATOM     11  C   UNL     1       0.262   0.225  -0.118  0.00  0.00    +0.030 A 
ATOM     12  S   UNL     1      -1.193  -0.791  -0.045  0.00  0.00    -0.120 S 
ATOM     13  C   UNL     1      -1.677   2.747   1.061  0.00  0.00    +0.251 C 
ATOM     14  O   UNL     1      -2.737   3.339   1.013  0.00  0.00    -0.270 OA
ENDROOT
BRANCH  13  15
ATOM     15  C   UNL     1      -0.949   2.640   2.339  0.00  0.00    +0.039 A 
ATOM     16  C   UNL     1      -1.053   3.659   3.291  0.00  0.00    +0.014 A 
ATOM     17  C   UNL     1      -0.379   3.559   4.475  0.00  0.00    +0.018 A 
ATOM     18  C   UNL     1       0.412   2.444   4.739  0.00  0.00    +0.038 A 
ATOM     19  C   UNL     1       0.521   1.424   3.797  0.00  0.00    +0.140 A 
ATOM     20  C   UNL     1      -0.159   1.517   2.604  0.00  0.00    +0.047 A 
BRANCH  19  21
ATOM     21  N   UNL     1       1.362   0.240   4.080  0.00  0.00    +0.058 N 
ATOM     22  O   UNL     1       1.457  -0.651   3.255  0.00  0.00    -0.126 OA
ATOM     23  O   UNL     1       1.960   0.157   5.138  0.00  0.00    -0.126 OA
ENDBRANCH  19  21
BRANCH  18  24
ATOM     24  S   UNL     1       1.278   2.322   6.270  0.00  0.00    -0.126 S 
ATOM     25  C   UNL     1       0.837   3.849   7.146  0.00  0.00    +0.090 C 
ENDBRANCH  18  24
ENDBRANCH  13  15
TORSDOF 3
