REMARK  Name = ZINC39675295
REMARK  10 active torsions:
REMARK  status: ('A' for Active; 'I' for Inactive)
REMARK    1  A    between atoms: C_1  and  C_2
REMARK    2  A    between atoms: C_2  and  C_4
REMARK    3  A    between atoms: C_2  and  N_14
REMARK    4  A    between atoms: C_4  and  C_5
REMARK    5  A    between atoms: C_5  and  C_6
REMARK    6  A    between atoms: C_9  and  O_12
REMARK    7  A    between atoms: O_12  and  C_13
REMARK    8  A    between atoms: C_15  and  C_17
REMARK    9  A    between atoms: C_28  and  C_30
REMARK   10  A    between atoms: C_30  and  C_31
REMARK                            x       y       z     vdW  Elec       q    Type
REMARK                         _______ _______ _______ _____ _____    ______ ____
ROOT
ATOM      1  C   UNL     1      -3.442  -1.177   1.191  0.00  0.00    +0.100 C 
ATOM      2  C   UNL     1      -4.400  -0.149   0.548  0.00  0.00    +0.121 C 
ATOM      3  N   UNL     1      -5.639  -0.235   1.355  0.00  0.00    -0.300 N 
ATOM      4  C   UNL     1      -5.160  -0.392   2.750  0.00  0.00    +0.115 C 
ATOM      5  C   UNL     1      -3.945  -1.333   2.637  0.00  0.00    -0.004 C 
ATOM      6  C   UNL     1      -4.368  -2.776   2.896  0.00  0.00    -0.010 C 
ATOM      7  C   UNL     1      -4.810  -2.919   4.355  0.00  0.00    -0.082 C 
ATOM      8  N   UNL     1      -3.701  -2.546   5.242  0.00  0.00    +0.379 N 
ATOM      9  C   UNL     1      -3.362  -1.131   5.052  0.00  0.00    -0.082 C 
ATOM     10  C   UNL     1      -2.859  -0.912   3.622  0.00  0.00    -0.010 C 
ATOM     11  C   UNL     1      -6.914  -0.182   0.921  0.00  0.00    +0.220 C 
ATOM     12  O   UNL     1      -7.829  -0.266   1.713  0.00  0.00    -0.275 OA
ATOM     13  H   UNL     1      -3.974  -2.699   6.202  0.00  0.00    -0.086 HD
ATOM     14  H   UNL     1      -2.896  -3.115   5.030  0.00  0.00    -0.086 HD
ENDROOT
BRANCH   1  16
ATOM     15  N   UNL     1      -0.993  -1.516   1.122  0.00  0.00    -0.312 N 
ATOM     16  C   UNL     1      -2.029  -0.655   1.181  0.00  0.00    +0.218 C 
ATOM     17  O   UNL     1      -1.823   0.539   1.225  0.00  0.00    -0.275 OA
ATOM     18  H   UNL     1      -1.158  -2.471   1.087  0.00  0.00    +0.149 HD
BRANCH  15  20
ATOM     19  C   UNL     1       0.784  -0.656  -0.321  0.00  0.00    +0.028 C 
ATOM     20  C   UNL     1       0.381  -1.009   1.112  0.00  0.00    +0.070 C 
BRANCH  20  21
ATOM     21  C   UNL     1       1.325  -2.083   1.657  0.00  0.00    +0.026 C 
BRANCH  21  22
ATOM     22  C   UNL     1       1.002  -2.346   3.129  0.00  0.00    +0.037 C 
BRANCH  22  23
ATOM     23  C   UNL     1       1.932  -3.403   3.666  0.00  0.00    -0.047 A 
ATOM     24  C   UNL     1       1.580  -4.738   3.584  0.00  0.00    +0.007 A 
ATOM     25  C   UNL     1       2.430  -5.709   4.076  0.00  0.00    +0.046 A 
ATOM     26  C   UNL     1       3.638  -5.345   4.652  0.00  0.00    +0.120 A 
ATOM     27  C   UNL     1       3.989  -4.005   4.734  0.00  0.00    +0.046 A 
ATOM     28  C   UNL     1       3.138  -3.038   4.235  0.00  0.00    +0.007 A 
BRANCH  26  29
ATOM     29  O   UNL     1       4.476  -6.298   5.137  0.00  0.00    -0.495 OA
ATOM     30  C   UNL     1       5.703  -5.850   5.718  0.00  0.00    +0.277 C 
ENDBRANCH  26  29
ENDBRANCH  22  23
ENDBRANCH  21  22
ENDBRANCH  20  21
ENDBRANCH  15  20
ENDBRANCH   1  16
BRANCH  11  31
ATOM     31  C   UNL     1      -7.203  -0.017  -0.549  0.00  0.00    +0.131 C 
BRANCH  31  32
ATOM     32  C   UNL     1      -8.693   0.013  -0.768  0.00  0.00    -0.039 A 
ATOM     33  C   UNL     1      -9.382  -1.164  -0.995  0.00  0.00    +0.005 A 
ATOM     34  C   UNL     1     -10.749  -1.137  -1.196  0.00  0.00    +0.020 A 
ATOM     35  C   UNL     1     -11.429   0.068  -1.170  0.00  0.00    +0.041 A 
ATOM     36  C   UNL     1     -10.739   1.245  -0.943  0.00  0.00    +0.020 A 
ATOM     37  C   UNL     1      -9.372   1.216  -0.736  0.00  0.00    +0.005 A 
ATOM     38 CL   UNL     1     -13.146   0.102  -1.423  0.00  0.00    -0.084 Cl
ENDBRANCH  31  32
ENDBRANCH  11  31
TORSDOF 8
