REMARK  Name = ZINC44593005
REMARK  2 active torsions:
REMARK  status: ('A' for Active; 'I' for Inactive)
REMARK    1  A    between atoms: C_5  and  C_7
REMARK    2  A    between atoms: C_9  and  C_12
REMARK                            x       y       z     vdW  Elec       q    Type
REMARK                         _______ _______ _______ _____ _____    ______ ____
ROOT
ATOM      1  C   UNL     1       1.246  -2.166  -0.023  0.00  0.00    +0.203 A 
ATOM      2  N   UNL     1       0.167  -2.970  -0.022  0.00  0.00    -0.190 NA
ATOM      3  C   UNL     1       0.541  -4.217  -0.032  0.00  0.00    +0.249 A 
ATOM      4  O   UNL     1       1.879  -4.260  -0.040  0.00  0.00    -0.336 OA
ATOM      5  N   UNL     1       2.323  -2.911  -0.039  0.00  0.00    -0.056 NA
ENDROOT
BRANCH   3   6
ATOM      6  C   UNL     1      -0.378  -5.412  -0.034  0.00  0.00    +0.175 C 
ATOM      7  C   UNL     1      -0.397  -6.041  -1.424  0.00  0.00    -0.011 A 
ATOM      8  C   UNL     1      -0.442  -5.308  -2.607  0.00  0.00    +0.013 A 
ATOM      9  C   UNL     1      -0.454  -5.948  -3.800  0.00  0.00    +0.046 A 
ATOM     10  S   UNL     1      -0.403  -7.663  -3.298  0.00  0.00    -0.101 S 
ATOM     11  C   UNL     1      -0.370  -7.397  -1.548  0.00  0.00    -0.004 A 
ATOM     12  C   UNL     1      -0.324  -8.395  -0.437  0.00  0.00    +0.058 C 
ATOM     13  C   UNL     1      -0.668  -7.657   0.868  0.00  0.00    +0.087 C 
ATOM     14  N   UNL     1       0.107  -6.408   0.929  0.00  0.00    -0.302 NA
ATOM     15  H   UNL     1       1.091  -6.589   0.798  0.00  0.00    +0.123 HD
ENDBRANCH   3   6
BRANCH   1  20
ATOM     16  C   UNL     1      -0.017   1.376   0.010  0.00  0.00    +0.001 A 
ATOM     17  C   UNL     1       1.170   2.087   0.002  0.00  0.00    +0.001 A 
ATOM     18  C   UNL     1       2.382   1.420  -0.013  0.00  0.00    +0.016 A 
ATOM     19  C   UNL     1       2.413   0.039  -0.022  0.00  0.00    +0.029 A 
ATOM     20  C   UNL     1       1.219  -0.682  -0.014  0.00  0.00    +0.036 A 
ATOM     21  C   UNL     1       0.002  -0.004   0.002  0.00  0.00    +0.013 A 
ATOM     22 BR   UNL     1       4.070  -0.872  -0.044  0.00  0.00    -0.050 Br
ENDBRANCH   1  20
TORSDOF 2
