REMARK  Name = ZINC36588858
REMARK  13 active torsions:
REMARK  status: ('A' for Active; 'I' for Inactive)
REMARK    1  A    between atoms: C_1  and  C_2
REMARK    2  A    between atoms: C_5  and  S_8
REMARK    3  A    between atoms: S_8  and  C_11
REMARK    4  A    between atoms: C_11  and  N_12
REMARK    5  A    between atoms: C_13  and  C_15
REMARK    6  A    between atoms: C_15  and  C_17
REMARK    7  A    between atoms: C_15  and  N_24
REMARK    8  A    between atoms: C_22  and  O_23
REMARK    9  A    between atoms: N_24  and  C_33
REMARK   10  A    between atoms: C_25  and  C_27
REMARK   11  A    between atoms: C_33  and  C_34
REMARK   12  A    between atoms: C_33  and  C_35
REMARK   13  A    between atoms: C_33  and  C_36
REMARK                            x       y       z     vdW  Elec       q    Type
REMARK                         _______ _______ _______ _____ _____    ______ ____
ROOT
ATOM      1  C   UNL     1       1.814  -6.739   2.697  0.00  0.00    +0.196 C 
ENDROOT
BRANCH   1   2
ATOM      2  C   UNL     1       0.973  -5.488   2.730  0.00  0.00    +0.023 A 
ATOM      3  C   UNL     1      -0.406  -5.582   2.718  0.00  0.00    +0.009 A 
ATOM      4  C   UNL     1      -1.177  -4.435   2.748  0.00  0.00    +0.001 A 
ATOM      5  C   UNL     1      -0.572  -3.192   2.790  0.00  0.00    +0.004 A 
ATOM      6  C   UNL     1       0.805  -3.094   2.803  0.00  0.00    +0.046 A 
ATOM      7  C   UNL     1       1.582  -4.243   2.778  0.00  0.00    +0.122 A 
BRANCH   7   8
ATOM      8  O   UNL     1       2.938  -4.149   2.796  0.00  0.00    -0.506 OA
ATOM      9  H   UNL     1       3.334  -4.016   1.924  0.00  0.00    +0.292 HD
ENDBRANCH   7   8
ENDBRANCH   1   2
BRANCH   1  11
ATOM     10  N   UNL     1       1.005  -7.723   0.577  0.00  0.00    -0.294 N 
ATOM     11  C   UNL     1       1.092  -7.809   1.919  0.00  0.00    +0.239 C 
ATOM     12  O   UNL     1       0.590  -8.747   2.500  0.00  0.00    -0.273 OA
ATOM     13  H   UNL     1       1.351  -6.942   0.117  0.00  0.00    +0.150 HD
BRANCH  10  14
ATOM     14  C   UNL     1       0.388  -8.809  -0.188  0.00  0.00    +0.278 C 
BRANCH  14  15
ATOM     15  S   UNL     1      -1.360  -8.424  -0.483  0.00  0.00    +0.013 S 
ATOM     16  O   UNL     1      -1.976  -7.992   0.722  0.00  0.00    -0.168 OA
ATOM     17  O   UNL     1      -1.957  -9.439  -1.279  0.00  0.00    -0.168 OA
BRANCH  15  22
ATOM     18  C   UNL     1      -1.299  -3.536  -4.019  0.00  0.00    +0.044 C 
ATOM     19  C   UNL     1      -1.314  -4.757  -3.136  0.00  0.00    -0.050 A 
ATOM     20  C   UNL     1      -1.311  -6.018  -3.701  0.00  0.00    +0.005 A 
ATOM     21  C   UNL     1      -1.325  -7.138  -2.891  0.00  0.00    +0.027 A 
ATOM     22  C   UNL     1      -1.341  -6.997  -1.516  0.00  0.00    +0.090 A 
ATOM     23  C   UNL     1      -1.343  -5.735  -0.951  0.00  0.00    +0.027 A 
ATOM     24  C   UNL     1      -1.325  -4.615  -1.761  0.00  0.00    +0.005 A 
ENDBRANCH  15  22
ENDBRANCH  14  15
ENDBRANCH  10  14
ENDBRANCH   1  11
BRANCH   1  25
ATOM     25  N   UNL     1       2.050  -7.205   4.065  0.00  0.00    -0.277 N 
ATOM     26  C   UNL     1       2.403  -8.486   4.289  0.00  0.00    +0.248 C 
ATOM     27  O   UNL     1       2.509  -8.898   5.428  0.00  0.00    -0.270 OA
BRANCH  26  28
ATOM     28  C   UNL     1       2.662  -9.392   3.149  0.00  0.00    +0.037 A 
ATOM     29  C   UNL     1       3.017  -8.868   1.905  0.00  0.00    +0.013 A 
ATOM     30  C   UNL     1       3.259  -9.718   0.846  0.00  0.00    +0.001 A 
ATOM     31  C   UNL     1       3.148 -11.087   1.015  0.00  0.00    +0.000 A 
ATOM     32  C   UNL     1       2.796 -11.613   2.245  0.00  0.00    +0.001 A 
ATOM     33  C   UNL     1       2.559 -10.774   3.314  0.00  0.00    +0.013 A 
ENDBRANCH  26  28
BRANCH  25  34
ATOM     34  C   UNL     1       1.901  -6.279   5.191  0.00  0.00    +0.030 C 
ATOM     35  C   UNL     1       0.646  -5.427   4.988  0.00  0.00    +0.031 C 
ATOM     36  C   UNL     1       1.773  -7.074   6.492  0.00  0.00    +0.031 C 
ATOM     37  C   UNL     1       3.129  -5.369   5.268  0.00  0.00    +0.031 C 
ENDBRANCH  25  34
ENDBRANCH   1  25
TORSDOF 9
