REMARK  Name = ZINC09358182
REMARK  16 active torsions:
REMARK  status: ('A' for Active; 'I' for Inactive)
REMARK    1  A    between atoms: C_1  and  C_2
REMARK    2  A    between atoms: C_2  and  C_4
REMARK    3  A    between atoms: C_2  and  C_12
REMARK    4  A    between atoms: C_4  and  C_5
REMARK    5  A    between atoms: C_5  and  C_7
REMARK    6  A    between atoms: C_5  and  C_8
REMARK    7  A    between atoms: C_8  and  O_10
REMARK    8  A    between atoms: O_10  and  C_11
REMARK    9  A    between atoms: C_29  and  C_31
REMARK   10  A    between atoms: C_31  and  C_33
REMARK   11  A    between atoms: C_31  and  C_34
REMARK   12  A    between atoms: C_34  and  C_35
REMARK   13  A    between atoms: C_35  and  C_37
REMARK   14  A    between atoms: C_35  and  C_38
REMARK   15  A    between atoms: C_38  and  O_40
REMARK   16  A    between atoms: O_40  and  C_41
REMARK                            x       y       z     vdW  Elec       q    Type
REMARK                         _______ _______ _______ _____ _____    ______ ____
ROOT
ATOM      1  C   UNL     1       1.536  -0.316  -0.339  0.00  0.00    +0.219 C 
ATOM      2  O   UNL     1       2.424   0.492  -0.517  0.00  0.00    -0.275 OA
ATOM      3  N   UNL     1       0.325   0.097   0.085  0.00  0.00    -0.297 N 
ATOM      4  C   UNL     1      -0.125   1.498  -0.075  0.00  0.00    +0.136 C 
ATOM      5  C   UNL     1       1.064   2.427   0.176  0.00  0.00    +0.179 C 
ATOM      6  O   UNL     1       1.674   2.093   1.424  0.00  0.00    -0.377 OA
ATOM      7  C   UNL     1       1.815   3.200   2.316  0.00  0.00    +0.179 C 
ATOM      8  C   UNL     1       3.080   3.019   3.158  0.00  0.00    +0.136 C 
ATOM      9  N   UNL     1       2.672   2.672   4.545  0.00  0.00    -0.297 N 
ATOM     10  C   UNL     1       3.238   1.392   5.049  0.00  0.00    +0.136 C 
ATOM     11  C   UNL     1       2.079   0.494   5.487  0.00  0.00    +0.179 C 
ATOM     12  O   UNL     1       2.217  -0.791   4.878  0.00  0.00    -0.376 OA
ATOM     13  C   UNL     1       1.065  -1.626   5.015  0.00  0.00    +0.188 C 
ATOM     14  C   UNL     1       0.859  -2.426   3.728  0.00  0.00    +0.188 C 
ATOM     15  O   UNL     1      -0.096  -1.759   2.900  0.00  0.00    -0.376 OA
ATOM     16  C   UNL     1       0.156  -1.891   1.500  0.00  0.00    +0.179 C 
ATOM     17  C   UNL     1      -0.632  -0.825   0.737  0.00  0.00    +0.136 C 
ATOM     18  C   UNL     1       1.859   3.451   5.284  0.00  0.00    +0.219 C 
ATOM     19  O   UNL     1       1.368   4.448   4.798  0.00  0.00    -0.275 OA
ENDROOT
BRANCH   1  21
ATOM     20  C   UNL     1       0.627  -2.366  -1.396  0.00  0.00    +0.017 C 
ATOM     21  C   UNL     1       1.788  -1.780  -0.591  0.00  0.00    +0.073 C 
BRANCH  21  22
ATOM     22  C   UNL     1       3.090  -1.946  -1.378  0.00  0.00    +0.027 C 
BRANCH  22  23
ATOM     23  C   UNL     1       3.406  -3.434  -1.533  0.00  0.00    +0.095 C 
ATOM     24  C   UNL     1       4.601  -3.607  -2.473  0.00  0.00    +0.019 C 
BRANCH  23  25
ATOM     25  C   UNL     1       3.738  -4.021  -0.185  0.00  0.00    +0.310 C 
ATOM     26  O   UNL     1       3.724  -3.320   0.798  0.00  0.00    -0.251 OA
BRANCH  25  27
ATOM     27  O   UNL     1       4.050  -5.322  -0.078  0.00  0.00    -0.468 OA
ATOM     28  C   UNL     1       4.359  -5.818   1.251  0.00  0.00    +0.280 C 
ENDBRANCH  25  27
ENDBRANCH  23  25
ENDBRANCH  22  23
ENDBRANCH  21  22
ENDBRANCH   1  21
BRANCH  18  29
ATOM     29  C   UNL     1       1.559   3.085   6.715  0.00  0.00    +0.073 C 
ATOM     30  C   UNL     1       2.830   3.222   7.554  0.00  0.00    +0.017 C 
BRANCH  29  31
ATOM     31  C   UNL     1       0.480   4.021   7.265  0.00  0.00    +0.027 C 
BRANCH  31  32
ATOM     32  C   UNL     1       0.088   3.572   8.675  0.00  0.00    +0.095 C 
ATOM     33  C   UNL     1      -0.857   4.605   9.293  0.00  0.00    +0.019 C 
BRANCH  32  34
ATOM     34  C   UNL     1      -0.606   2.237   8.602  0.00  0.00    +0.310 C 
ATOM     35  O   UNL     1      -0.770   1.698   7.532  0.00  0.00    -0.251 OA
BRANCH  34  36
ATOM     36  O   UNL     1      -1.043   1.645   9.725  0.00  0.00    -0.468 OA
ATOM     37  C   UNL     1      -1.702   0.359   9.579  0.00  0.00    +0.280 C 
ENDBRANCH  34  36
ENDBRANCH  32  34
ENDBRANCH  31  32
ENDBRANCH  29  31
ENDBRANCH  18  29
TORSDOF 10
