REMARK  Name = ZINC21881936
REMARK  7 active torsions:
REMARK  status: ('A' for Active; 'I' for Inactive)
REMARK    1  A    between atoms: C_1  and  C_2
REMARK    2  A    between atoms: N_5  and  S_8
REMARK    3  A    between atoms: S_8  and  C_11
REMARK    4  A    between atoms: C_19  and  N_21
REMARK    5  A    between atoms: N_21  and  C_22
REMARK    6  A    between atoms: C_25  and  S_28
REMARK    7  A    between atoms: S_28  and  N_31
REMARK                            x       y       z     vdW  Elec       q    Type
REMARK                         _______ _______ _______ _____ _____    ______ ____
ROOT
ATOM      1  C   UNL     1       1.841   3.337  -2.997  0.00  0.00    +0.106 A 
ATOM      2  C   UNL     1       3.224   3.171  -3.022  0.00  0.00    +0.030 A 
ATOM      3  C   UNL     1       3.854   2.694  -4.131  0.00  0.00    +0.030 A 
ATOM      4  C   UNL     1       3.104   2.375  -5.276  0.00  0.00    +0.073 A 
ATOM      5  C   UNL     1       1.699   2.551  -5.251  0.00  0.00    +0.002 A 
ATOM      6  C   UNL     1       1.082   3.038  -4.088  0.00  0.00    +0.038 A 
ATOM      7  C   UNL     1       0.946   2.231  -6.399  0.00  0.00    +0.013 A 
ATOM      8  C   UNL     1       1.607   1.763  -7.495  0.00  0.00    +0.044 A 
ATOM      9  C   UNL     1       3.000   1.611  -7.458  0.00  0.00    +0.124 A 
ATOM     10  N   UNL     1       3.698   1.911  -6.381  0.00  0.00    -0.232 NA
ENDROOT
BRANCH   1  11
ATOM     11  S   UNL     1       1.065   3.950  -1.539  0.00  0.00    +0.061 S 
ATOM     12  O   UNL     1      -0.162   4.538  -1.948  0.00  0.00    -0.153 OA
ATOM     13  O   UNL     1       2.057   4.675  -0.825  0.00  0.00    -0.153 OA
BRANCH  11  18
ATOM     14  C   UNL     1       0.677  -1.585  -0.093  0.00  0.00    +0.007 C 
ATOM     15  C   UNL     1       0.472  -0.085   0.128  0.00  0.00    -0.012 C 
ATOM     16  C   UNL     1      -0.397   0.482  -0.997  0.00  0.00    +0.020 C 
ATOM     17  C   UNL     1      -0.629   1.976  -0.754  0.00  0.00    +0.110 C 
ATOM     18  N   UNL     1       0.674   2.639  -0.605  0.00  0.00    -0.177 NA
ATOM     19  C   UNL     1       1.624   2.116   0.387  0.00  0.00    +0.110 C 
ATOM     20  C   UNL     1       1.830   0.620   0.131  0.00  0.00    +0.020 C 
ENDBRANCH  11  18
ENDBRANCH   1  11
BRANCH   9  21
ATOM     21  N   UNL     1       3.660   1.133  -8.581  0.00  0.00    -0.299 N 
ATOM     22  H   UNL     1       4.759   1.133  -8.615  0.00  0.00    +0.154 HD
BRANCH  21  23
ATOM     23  C   UNL     1       2.927   0.653  -9.670  0.00  0.00    +0.032 A 
ATOM     24  C   UNL     1       1.824  -0.165  -9.461  0.00  0.00    +0.025 A 
ATOM     25  C   UNL     1       1.099  -0.633 -10.539  0.00  0.00    +0.030 A 
ATOM     26  C   UNL     1       1.476  -0.298 -11.826  0.00  0.00    +0.105 A 
ATOM     27  C   UNL     1       2.577   0.512 -12.039  0.00  0.00    +0.030 A 
ATOM     28  C   UNL     1       3.303   0.988 -10.965  0.00  0.00    +0.025 A 
BRANCH  26  29
ATOM     29  S   UNL     1       0.552  -0.903 -13.199  0.00  0.00    +0.056 S 
ATOM     30  O   UNL     1      -0.752  -1.192 -12.715  0.00  0.00    -0.153 OA
ATOM     31  O   UNL     1       0.784  -0.002 -14.273  0.00  0.00    -0.153 OA
BRANCH  29  32
ATOM     32  N   UNL     1       1.224  -2.350 -13.642  0.00  0.00    -0.204 NA
ATOM     33  H   UNL     1       0.673  -2.763 -14.499  0.00  0.00    +0.144 HD
ATOM     34  H   UNL     1       1.169  -3.053 -12.797  0.00  0.00    +0.144 HD
ENDBRANCH  29  32
ENDBRANCH  26  29
ENDBRANCH  21  23
ENDBRANCH   9  21
TORSDOF 6
