REMARK  Name = ZINC44945328
REMARK  9 active torsions:
REMARK  status: ('A' for Active; 'I' for Inactive)
REMARK    1  A    between atoms: C_3  and  C_8
REMARK    2  A    between atoms: C_8  and  S_9
REMARK    3  A    between atoms: S_9  and  C_10
REMARK    4  A    between atoms: C_10  and  C_11
REMARK    5  A    between atoms: C_11  and  C_12
REMARK    6  A    between atoms: C_12  and  N_13
REMARK    7  A    between atoms: C_14  and  C_16
REMARK    8  A    between atoms: N_21  and  C_23
REMARK    9  A    between atoms: C_23  and  C_24
REMARK                            x       y       z     vdW  Elec       q    Type
REMARK                         _______ _______ _______ _____ _____    ______ ____
ROOT
ATOM      1  N   UNL     1       8.173   4.825   4.057  0.00  0.00    -0.315 N 
ATOM      2  C   UNL     1       9.327   5.512   4.169  0.00  0.00    +0.214 C 
ATOM      3  O   UNL     1       9.916   5.874   3.172  0.00  0.00    -0.276 OA
ATOM      4  H   UNL     1       7.702   4.535   4.854  0.00  0.00    +0.149 HD
ENDROOT
BRANCH   2   5
ATOM      5  C   UNL     1       9.886   5.830   5.532  0.00  0.00    +0.058 C 
ATOM      6  C   UNL     1       8.877   6.677   6.313  0.00  0.00    +0.009 C 
ATOM      7  C   UNL     1       9.486   7.060   7.665  0.00  0.00    -0.018 C 
ATOM      8  C   UNL     1      10.805   7.799   7.433  0.00  0.00    -0.078 C 
ATOM      9  N   UNL     1      11.736   6.928   6.705  0.00  0.00    +0.383 N 
ATOM     10  C   UNL     1      11.191   6.614   5.378  0.00  0.00    -0.066 C 
ATOM     11  H   UNL     1      11.870   6.073   7.223  0.00  0.00    -0.081 HD
BRANCH   9  12
ATOM     12  C   UNL     1      13.027   7.612   6.553  0.00  0.00    -0.043 C 
BRANCH  12  13
ATOM     13  C   UNL     1      13.650   7.817   7.909  0.00  0.00    -0.064 A 
ATOM     14  C   UNL     1      13.381   8.968   8.627  0.00  0.00    +0.003 A 
ATOM     15  C   UNL     1      13.952   9.156   9.871  0.00  0.00    +0.015 A 
ATOM     16  C   UNL     1      14.793   8.193  10.399  0.00  0.00    +0.018 A 
ATOM     17  C   UNL     1      15.062   7.041   9.681  0.00  0.00    +0.015 A 
ATOM     18  C   UNL     1      14.486   6.852   8.439  0.00  0.00    +0.003 A 
ATOM     19 BR   UNL     1      15.574   8.449  12.102  0.00  0.00    -0.050 Br
ENDBRANCH  12  13
ENDBRANCH   9  12
ENDBRANCH   2   5
BRANCH   1  20
ATOM     20  C   UNL     1       7.630   4.515   2.732  0.00  0.00    +0.105 C 
BRANCH  20  21
ATOM     21  C   UNL     1       6.324   3.734   2.887  0.00  0.00    +0.029 C 
BRANCH  21  22
ATOM     22  C   UNL     1       5.756   3.411   1.503  0.00  0.00    +0.071 C 
BRANCH  22  23
ATOM     23  S   UNL     1       4.207   2.485   1.686  0.00  0.00    -0.156 S 
BRANCH  23  24
ATOM     24  C   UNL     1       3.672   2.184  -0.021  0.00  0.00    +0.104 C 
BRANCH  24  27
ATOM     25  C   UNL     1      -0.017   1.378   0.010  0.00  0.00    +0.002 A 
ATOM     26  C   UNL     1       1.171   2.086   0.002  0.00  0.00    +0.004 A 
ATOM     27  C   UNL     1       2.378   1.412  -0.013  0.00  0.00    -0.036 A 
ATOM     28  C   UNL     1       2.398   0.029  -0.021  0.00  0.00    +0.024 A 
ATOM     29  C   UNL     1       1.210  -0.679  -0.013  0.00  0.00    +0.041 A 
ATOM     30  C   UNL     1       0.002  -0.004   0.002  0.00  0.00    +0.020 A 
ATOM     31 CL   UNL     1       1.234  -2.415  -0.024  0.00  0.00    -0.084 Cl
ENDBRANCH  24  27
ENDBRANCH  23  24
ENDBRANCH  22  23
ENDBRANCH  21  22
ENDBRANCH  20  21
ENDBRANCH   1  20
TORSDOF 9
