REMARK  Name = ZINC32754856
REMARK  13 active torsions:
REMARK  status: ('A' for Active; 'I' for Inactive)
REMARK    1  A    between atoms: C_1  and  C_2
REMARK    2  A    between atoms: C_2  and  O_3
REMARK    3  A    between atoms: O_3  and  C_4
REMARK    4  A    between atoms: C_4  and  C_6
REMARK    5  A    between atoms: C_7  and  C_20
REMARK    6  A    between atoms: C_12  and  C_14
REMARK    7  A    between atoms: C_17  and  C_19
REMARK    8  A    between atoms: C_20  and  N_21
REMARK    9  A    between atoms: C_24  and  C_27
REMARK   10  A    between atoms: N_29  and  C_30
REMARK   11  A    between atoms: C_30  and  C_31
REMARK   12  A    between atoms: C_31  and  O_32
REMARK   13  A    between atoms: O_32  and  C_33
REMARK                            x       y       z     vdW  Elec       q    Type
REMARK                         _______ _______ _______ _____ _____    ______ ____
ROOT
ATOM      1  C   UNL     1       3.345   1.026   1.249  0.00  0.00    +0.082 C 
ATOM      2  C   UNL     1       3.868   2.153   1.779  0.00  0.00    +0.038 C 
ATOM      3  N   UNL     1       4.210   3.212   0.987  0.00  0.00    -0.271 N 
ATOM      4  C   UNL     1       4.062   3.222  -0.344  0.00  0.00    +0.304 C 
ATOM      5  O   UNL     1       4.396   4.212  -0.965  0.00  0.00    -0.252 OA
ATOM      6  N   UNL     1       3.554   2.171  -1.017  0.00  0.00    -0.285 N 
ATOM      7  C   UNL     1       3.153   0.977  -0.254  0.00  0.00    +0.179 C 
ATOM      8  H   UNL     1       4.634   4.121   1.438  0.00  0.00    +0.156 HD
ATOM      9  H   UNL     1       3.436   2.190  -2.111  0.00  0.00    +0.151 HD
ENDROOT
BRANCH   7  10
ATOM     10  C   UNL     1       1.693   0.720  -0.527  0.00  0.00    +0.130 A 
ATOM     11  C   UNL     1       1.127  -0.486  -0.709  0.00  0.00    +0.047 A 
ATOM     12  C   UNL     1      -0.249  -0.263  -0.940  0.00  0.00    +0.045 A 
ATOM     13  C   UNL     1      -0.444   1.067  -0.875  0.00  0.00    +0.102 A 
ATOM     14  O   UNL     1       0.736   1.657  -0.628  0.00  0.00    -0.463 OA
ATOM     15  C   UNL     1      -1.763   1.774  -1.057  0.00  0.00    +0.086 C 
ENDBRANCH   7  10
BRANCH   1  16
ATOM     16  C   UNL     1       2.989  -0.070   2.068  0.00  0.00    +0.339 C 
ATOM     17  O   UNL     1       3.255  -0.055   3.255  0.00  0.00    -0.245 OA
BRANCH  16  18
ATOM     18  O   UNL     1       2.355  -1.135   1.532  0.00  0.00    -0.462 OA
BRANCH  18  20
ATOM     19  C   UNL     1       1.316  -3.314   1.637  0.00  0.00    +0.048 C 
ATOM     20  C   UNL     1       2.026  -2.207   2.418  0.00  0.00    +0.229 C 
ENDBRANCH  18  20
ENDBRANCH  16  18
ENDBRANCH   1  16
BRANCH   2  21
ATOM     21  C   UNL     1       4.076   2.244   3.269  0.00  0.00    +0.135 C 
BRANCH  21  22
ATOM     22  N   UNL     1       5.352   1.609   3.624  0.00  0.00    -0.297 NA
ATOM     23  C   UNL     1       6.450   2.137   2.805  0.00  0.00    +0.085 C 
ATOM     24  C   UNL     1       7.731   1.354   3.099  0.00  0.00    +0.028 C 
ATOM     25  C   UNL     1       8.071   1.482   4.587  0.00  0.00    +0.077 C 
ATOM     26  C   UNL     1       6.893   0.969   5.418  0.00  0.00    +0.028 C 
ATOM     27  C   UNL     1       5.636   1.764   5.057  0.00  0.00    +0.085 C 
BRANCH  25  28
ATOM     28  C   UNL     1       9.299   0.663   4.894  0.00  0.00    +0.216 C 
ATOM     29  O   UNL     1       9.238  -0.241   5.700  0.00  0.00    -0.276 OA
ATOM     30  N   UNL     1      10.464   0.937   4.275  0.00  0.00    -0.313 N 
ATOM     31  H   UNL     1      10.519   1.758   3.545  0.00  0.00    +0.149 HD
BRANCH  30  32
ATOM     32  C   UNL     1      11.657   0.141   4.574  0.00  0.00    +0.132 C 
BRANCH  32  33
ATOM     33  C   UNL     1      12.834   0.654   3.743  0.00  0.00    +0.178 C 
BRANCH  33  34
ATOM     34  O   UNL     1      13.158   1.986   4.146  0.00  0.00    -0.381 OA
ATOM     35  C   UNL     1      14.250   2.563   3.427  0.00  0.00    +0.194 C 
ENDBRANCH  33  34
ENDBRANCH  32  33
ENDBRANCH  30  32
ENDBRANCH  25  28
ENDBRANCH  21  22
ENDBRANCH   2  21
TORSDOF 10
