REMARK  Name = ZINC01822133
REMARK  5 active torsions:
REMARK  status: ('A' for Active; 'I' for Inactive)
REMARK    1  A    between atoms: C_1  and  O_2
REMARK    2  A    between atoms: O_2  and  C_3
REMARK    3  A    between atoms: C_6  and  N_9
REMARK    4  A    between atoms: N_16  and  N_17
REMARK    5  A    between atoms: C_18  and  C_20
REMARK                            x       y       z     vdW  Elec       q    Type
REMARK                         _______ _______ _______ _____ _____    ______ ____
ROOT
ATOM      1  N   UNL     1      -4.891  -2.581   0.029  0.00  0.00    -0.248 N 
ATOM      2  C   UNL     1      -4.944  -3.927  -0.069  0.00  0.00    +0.264 A 
ATOM      3  O   UNL     1      -3.922  -4.583  -0.195  0.00  0.00    -0.267 OA
ATOM      4  C   UNL     1      -6.196  -4.554  -0.022  0.00  0.00    +0.050 A 
ATOM      5  C   UNL     1      -7.330  -3.772   0.126  0.00  0.00    +0.084 A 
ATOM      6  N   UNL     1      -7.219  -2.440   0.186  0.00  0.00    -0.214 NA
ATOM      7  C   UNL     1      -6.039  -1.857   0.148  0.00  0.00    +0.220 A 
ATOM      8  N   UNL     1      -5.964  -0.491   0.224  0.00  0.00    -0.233 N 
ATOM      9  C   UNL     1      -8.649  -4.433   0.244  0.00  0.00    +0.004 A 
ATOM     10  C   UNL     1      -9.826  -3.705   0.086  0.00  0.00    +0.010 A 
ATOM     11  C   UNL     1     -11.045  -4.347   0.181  0.00  0.00    +0.001 A 
ATOM     12  C   UNL     1     -11.095  -5.707   0.429  0.00  0.00    +0.000 A 
ATOM     13  C   UNL     1      -9.928  -6.432   0.594  0.00  0.00    +0.004 A 
ATOM     14  C   UNL     1      -8.704  -5.800   0.512  0.00  0.00    -0.037 A 
ATOM     15  C   UNL     1      -7.434  -6.574   0.744  0.00  0.00    +0.047 C 
ATOM     16  C   UNL     1      -6.310  -6.049  -0.147  0.00  0.00    +0.007 C 
ATOM     17  C   UNL     1      -4.986  -6.693   0.277  0.00  0.00    +0.012 C 
ATOM     18  C   UNL     1      -5.096  -8.213   0.148  0.00  0.00    +0.001 C 
ATOM     19  C   UNL     1      -5.395  -8.582  -1.307  0.00  0.00    +0.000 C 
ATOM     20  C   UNL     1      -6.714  -7.935  -1.735  0.00  0.00    +0.001 C 
ATOM     21  C   UNL     1      -6.604  -6.415  -1.605  0.00  0.00    +0.012 C 
ATOM     22  H   UNL     1      -5.108  -0.046   0.125  0.00  0.00    +0.173 HD
ENDROOT
BRANCH   1  26
ATOM     23  C   UNL     1      -1.202  -0.635  -0.017  0.00  0.00    +0.120 A 
ATOM     24  C   UNL     1      -1.873  -0.877  -1.206  0.00  0.00    +0.047 A 
ATOM     25  C   UNL     1      -3.094  -1.522  -1.192  0.00  0.00    +0.030 A 
ATOM     26  C   UNL     1      -3.651  -1.927   0.014  0.00  0.00    +0.053 A 
ATOM     27  C   UNL     1      -2.979  -1.685   1.204  0.00  0.00    +0.030 A 
ATOM     28  C   UNL     1      -1.755  -1.046   1.188  0.00  0.00    +0.047 A 
BRANCH  23  30
ATOM     29  C   UNL     1       0.510   0.394  -1.307  0.00  0.00    +0.277 C 
ATOM     30  O   UNL     1       0.000  -0.001  -0.031  0.00  0.00    -0.495 OA
ENDBRANCH  23  30
ENDBRANCH   1  26
BRANCH   8  31
ATOM     31  N   UNL     1      -7.124   0.263   0.445  0.00  0.00    -0.230 N 
ATOM     32  C   UNL     1      -7.051   1.607   0.520  0.00  0.00    +0.261 C 
ATOM     33  O   UNL     1      -5.978   2.164   0.396  0.00  0.00    -0.269 OA
ATOM     34  H   UNL     1      -7.981  -0.182   0.545  0.00  0.00    +0.173 HD
BRANCH  32  35
ATOM     35  C   UNL     1      -8.277   2.403   0.754  0.00  0.00    +0.055 A 
ATOM     36  C   UNL     1      -9.521   1.781   0.906  0.00  0.00    +0.034 A 
ATOM     37  C   UNL     1     -10.638   2.563   1.123  0.00  0.00    +0.111 A 
ATOM     38  N   UNL     1     -10.545   3.876   1.188  0.00  0.00    -0.262 NA
ATOM     39  C   UNL     1      -9.394   4.503   1.050  0.00  0.00    +0.126 A 
ATOM     40  C   UNL     1      -8.223   3.799   0.835  0.00  0.00    +0.048 A 
ATOM     41 BR   UNL     1      -6.576   4.709   0.648  0.00  0.00    -0.048 Br
ENDBRANCH  32  35
ENDBRANCH   8  31
TORSDOF 4
