REMARK  Name = ZINC65786642
REMARK  4 active torsions:
REMARK  status: ('A' for Active; 'I' for Inactive)
REMARK    1  A    between atoms: C_1  and  C_2
REMARK    2  A    between atoms: C_2  and  C_3
REMARK    3  A    between atoms: C_2  and  C_4
REMARK    4  A    between atoms: C_14  and  C_16
REMARK                            x       y       z     vdW  Elec       q    Type
REMARK                         _______ _______ _______ _____ _____    ______ ____
ROOT
ATOM      1  C   UNL     1      -1.171  -1.401   0.345  0.00  0.00    -0.044 A 
ATOM      2  C   UNL     1      -2.186  -0.494   0.591  0.00  0.00    +0.006 A 
ATOM      3  C   UNL     1      -3.490  -0.933   0.701  0.00  0.00    +0.024 A 
ATOM      4  C   UNL     1      -3.782  -2.286   0.563  0.00  0.00    +0.040 A 
ATOM      5  C   UNL     1      -2.765  -3.193   0.314  0.00  0.00    -0.026 A 
ATOM      6  C   UNL     1      -1.460  -2.744   0.202  0.00  0.00    +0.009 A 
ATOM      7  C   UNL     1      -3.046  -4.664   0.149  0.00  0.00    +0.038 C 
ATOM      8  C   UNL     1      -4.389  -5.027   0.780  0.00  0.00    +0.024 C 
ATOM      9  C   UNL     1      -5.463  -4.069   0.246  0.00  0.00    +0.114 C 
ATOM     10  N   UNL     1      -5.111  -2.711   0.683  0.00  0.00    -0.266 N 
ATOM     11  C   UNL     1      -6.051  -1.889   1.190  0.00  0.00    +0.267 C 
ATOM     12  O   UNL     1      -5.730  -0.813   1.655  0.00  0.00    -0.268 OA
ENDROOT
BRANCH  11  13
ATOM     13  C   UNL     1      -7.476  -2.298   1.181  0.00  0.00    +0.106 A 
ATOM     14  C   UNL     1      -7.993  -2.846   0.053  0.00  0.00    +0.082 A 
ATOM     15  C   UNL     1      -9.355  -3.246   0.019  0.00  0.00    +0.190 A 
ATOM     16  O   UNL     1      -9.841  -3.741  -0.984  0.00  0.00    -0.287 OA
ATOM     17  C   UNL     1     -10.162  -3.043   1.234  0.00  0.00    +0.045 A 
ATOM     18  C   UNL     1     -11.508  -3.409   1.281  0.00  0.00    +0.014 A 
ATOM     19  C   UNL     1     -12.225  -3.206   2.427  0.00  0.00    +0.001 A 
ATOM     20  C   UNL     1     -11.626  -2.637   3.543  0.00  0.00    +0.002 A 
ATOM     21  C   UNL     1     -10.299  -2.268   3.518  0.00  0.00    +0.026 A 
ATOM     22  C   UNL     1      -9.549  -2.467   2.362  0.00  0.00    +0.051 A 
ATOM     23  N   UNL     1      -8.221  -2.114   2.309  0.00  0.00    -0.350 N 
ATOM     24  H   UNL     1      -7.805  -1.721   3.092  0.00  0.00    +0.166 HD
ENDBRANCH  11  13
BRANCH   1  26
ATOM     25  C   UNL     1       0.359   0.083  -0.923  0.00  0.00    +0.012 C 
ATOM     26  C   UNL     1       0.253  -0.921   0.226  0.00  0.00    +0.013 C 
ATOM     27  C   UNL     1       0.674  -0.246   1.533  0.00  0.00    +0.012 C 
ENDBRANCH   1  26
TORSDOF 2
