REMARK  Name = ZINC53890529
REMARK  6 active torsions:
REMARK  status: ('A' for Active; 'I' for Inactive)
REMARK    1  A    between atoms: C_1  and  C_2
REMARK    2  A    between atoms: C_5  and  C_7
REMARK    3  A    between atoms: C_9  and  C_24
REMARK    4  A    between atoms: C_10  and  C_12
REMARK    5  A    between atoms: C_17  and  C_20
REMARK    6  A    between atoms: C_20  and  C_21
REMARK                            x       y       z     vdW  Elec       q    Type
REMARK                         _______ _______ _______ _____ _____    ______ ____
ROOT
ATOM      1  C   UNL     1       4.871  -5.819  -0.047  0.00  0.00    +0.255 C 
ATOM      2  O   UNL     1       4.804  -7.031   0.045  0.00  0.00    -0.269 OA
ATOM      3  N   UNL     1       6.073  -5.217  -0.144  0.00  0.00    -0.297 N 
ATOM      4  C   UNL     1       6.178  -3.751  -0.127  0.00  0.00    +0.108 C 
ATOM      5  C   UNL     1       7.173  -3.341   0.963  0.00  0.00    +0.023 C 
ATOM      6  C   UNL     1       8.502  -4.065   0.734  0.00  0.00    +0.001 C 
ATOM      7  C   UNL     1       8.284  -5.577   0.824  0.00  0.00    +0.023 C 
ATOM      8  C   UNL     1       7.302  -6.012  -0.262  0.00  0.00    +0.108 C 
ENDROOT
BRANCH   1  12
ATOM      9  C   UNL     1       1.608  -3.297  -0.320  0.00  0.00    +0.144 A 
ATOM     10  N   UNL     1       1.477  -4.366   0.465  0.00  0.00    -0.240 NA
ATOM     11  C   UNL     1       2.447  -5.223   0.618  0.00  0.00    +0.058 A 
ATOM     12  C   UNL     1       3.647  -5.017  -0.052  0.00  0.00    +0.097 A 
ATOM     13  S   UNL     1       3.277  -3.502  -0.928  0.00  0.00    -0.059 S 
ATOM     14  C   UNL     1       2.270  -6.423   1.513  0.00  0.00    +0.067 C 
BRANCH   9  19
ATOM     15  C   UNL     1      -0.440   0.851  -2.244  0.00  0.00    +0.086 C 
ATOM     16  C   UNL     1      -0.266  -0.419  -1.451  0.00  0.00    +0.103 A 
ATOM     17  C   UNL     1      -1.197  -0.979  -0.650  0.00  0.00    +0.045 A 
ATOM     18  C   UNL     1      -0.627  -2.144  -0.107  0.00  0.00    +0.052 A 
ATOM     19  C   UNL     1       0.637  -2.236  -0.612  0.00  0.00    +0.160 A 
ATOM     20  O   UNL     1       0.837  -1.183  -1.430  0.00  0.00    -0.458 OA
ENDBRANCH   9  19
ENDBRANCH   1  12
BRANCH   6  21
ATOM     21  C   UNL     1       9.509  -3.631   1.802  0.00  0.00    +0.099 C 
BRANCH  21  22
ATOM     22  C   UNL     1      10.852  -4.248   1.505  0.00  0.00    +0.211 C 
ATOM     23  O   UNL     1      10.990  -4.963   0.536  0.00  0.00    -0.276 OA
ATOM     24  N   UNL     1      11.899  -4.004   2.317  0.00  0.00    -0.329 N 
ATOM     25  H   UNL     1      11.789  -3.431   3.093  0.00  0.00    +0.145 HD
ATOM     26  H   UNL     1      12.764  -4.401   2.127  0.00  0.00    +0.145 HD
ENDBRANCH  21  22
ENDBRANCH   6  21
TORSDOF 4
