REMARK  Name = ZINC13112538
REMARK  11 active torsions:
REMARK  status: ('A' for Active; 'I' for Inactive)
REMARK    1  A    between atoms: C_1  and  C_2
REMARK    2  A    between atoms: C_3  and  N_15
REMARK    3  A    between atoms: N_6  and  C_9
REMARK    4  A    between atoms: N_7  and  C_8
REMARK    5  A    between atoms: N_15  and  C_16
REMARK    6  A    between atoms: C_19  and  C_22
REMARK    7  A    between atoms: C_22  and  N_23
REMARK    8  A    between atoms: N_23  and  C_24
REMARK    9  A    between atoms: C_24  and  C_25
REMARK   10  A    between atoms: N_28  and  C_32
REMARK   11  A    between atoms: C_32  and  C_33
REMARK                            x       y       z     vdW  Elec       q    Type
REMARK                         _______ _______ _______ _____ _____    ______ ____
ROOT
ATOM      1  C   UNL     1      -1.927   2.848  -6.316  0.00  0.00    +0.031 A 
ATOM      2  C   UNL     1      -0.837   3.660  -6.030  0.00  0.00    +0.023 A 
ATOM      3  C   UNL     1       0.061   3.289  -5.049  0.00  0.00    +0.003 A 
ATOM      4  C   UNL     1      -0.123   2.109  -4.352  0.00  0.00    -0.064 A 
ATOM      5  C   UNL     1      -1.204   1.295  -4.637  0.00  0.00    +0.003 A 
ATOM      6  C   UNL     1      -2.109   1.663  -5.613  0.00  0.00    +0.023 A 
ENDROOT
BRANCH   1   7
ATOM      7  N   UNL     1      -2.836   3.220  -7.308  0.00  0.00    -0.309 N 
ATOM      8  H   UNL     1      -2.765   4.213  -7.775  0.00  0.00    +0.152 HD
BRANCH   7  11
ATOM      9  C   UNL     1      -5.847   3.783  -7.126  0.00  0.00    +0.067 C 
ATOM     10  C   UNL     1      -5.179   2.535  -7.646  0.00  0.00    +0.059 A 
ATOM     11  C   UNL     1      -3.847   2.323  -7.710  0.00  0.00    +0.119 A 
ATOM     12  C   UNL     1      -3.647   0.990  -8.281  0.00  0.00    +0.293 A 
ATOM     13  O   UNL     1      -2.578   0.448  -8.498  0.00  0.00    -0.264 OA
ATOM     14  N   UNL     1      -4.871   0.476  -8.519  0.00  0.00    -0.216 N 
ATOM     15  N   UNL     1      -5.824   1.426  -8.132  0.00  0.00    -0.282 N 
ATOM     16  C   UNL     1      -7.276   1.262  -8.231  0.00  0.00    +0.171 C 
BRANCH  14  17
ATOM     17  C   UNL     1      -5.142  -0.783  -9.063  0.00  0.00    +0.067 A 
ATOM     18  C   UNL     1      -6.086  -1.610  -8.467  0.00  0.00    +0.028 A 
ATOM     19  C   UNL     1      -6.354  -2.852  -9.010  0.00  0.00    +0.002 A 
ATOM     20  C   UNL     1      -5.676  -3.276 -10.138  0.00  0.00    +0.000 A 
ATOM     21  C   UNL     1      -4.732  -2.457 -10.730  0.00  0.00    +0.002 A 
ATOM     22  C   UNL     1      -4.463  -1.213 -10.196  0.00  0.00    +0.028 A 
ENDBRANCH  14  17
ENDBRANCH   7  11
ENDBRANCH   1   7
BRANCH   4  23
ATOM     23  C   UNL     1       0.859   1.707  -3.282  0.00  0.00    -0.047 C 
BRANCH  23  24
ATOM     24  N   UNL     1       0.426   2.253  -1.989  0.00  0.00    +0.383 N 
ATOM     25  H   UNL     1       0.381   3.350  -2.051  0.00  0.00    -0.085 HD
ATOM     26  H   UNL     1      -0.570   1.859  -1.739  0.00  0.00    -0.085 HD
BRANCH  24  27
ATOM     27  C   UNL     1       1.362   1.880  -0.920  0.00  0.00    -0.049 C 
BRANCH  27  28
ATOM     28  C   UNL     1       0.879   2.466   0.408  0.00  0.00    +0.115 C 
ATOM     29  C   UNL     1       1.914   2.180   1.500  0.00  0.00    +0.114 C 
ATOM     30  N   UNL     1       1.410   2.677   2.788  0.00  0.00    -0.294 NA
ATOM     31  C   UNL     1       0.129   2.039   3.128  0.00  0.00    +0.113 C 
ATOM     32  C   UNL     1      -0.887   2.327   2.020  0.00  0.00    +0.175 C 
ATOM     33  O   UNL     1      -0.367   1.865   0.770  0.00  0.00    -0.376 OA
BRANCH  30  34
ATOM     34  C   UNL     1       2.399   2.472   3.855  0.00  0.00    +0.119 C 
BRANCH  34  35
ATOM     35  C   UNL     1       1.954   3.199   5.098  0.00  0.00    -0.033 A 
ATOM     36  C   UNL     1       2.346   4.508   5.311  0.00  0.00    +0.005 A 
ATOM     37  C   UNL     1       1.934   5.176   6.449  0.00  0.00    +0.000 A 
ATOM     38  C   UNL     1       1.140   4.532   7.379  0.00  0.00    +0.000 A 
ATOM     39  C   UNL     1       0.753   3.222   7.169  0.00  0.00    +0.000 A 
ATOM     40  C   UNL     1       1.160   2.555   6.029  0.00  0.00    +0.005 A 
ENDBRANCH  34  35
ENDBRANCH  30  34
ENDBRANCH  27  28
ENDBRANCH  24  27
ENDBRANCH  23  24
ENDBRANCH   4  23
TORSDOF 9
