REMARK  Name = ZINC41630220
REMARK  9 active torsions:
REMARK  status: ('A' for Active; 'I' for Inactive)
REMARK    1  A    between atoms: C_1  and  C_2
REMARK    2  A    between atoms: C_2  and  C_3
REMARK    3  A    between atoms: C_3  and  C_5
REMARK    4  A    between atoms: C_3  and  S_17
REMARK    5  A    between atoms: N_7  and  C_8
REMARK    6  A    between atoms: C_12  and  C_14
REMARK    7  A    between atoms: C_14  and  C_16
REMARK    8  A    between atoms: S_17  and  C_18
REMARK    9  A    between atoms: C_24  and  N_26
REMARK                            x       y       z     vdW  Elec       q    Type
REMARK                         _______ _______ _______ _____ _____    ______ ____
ROOT
ATOM      1  C   UNL     1       0.530  -0.259  -1.295  0.00  0.00    +0.140 C 
ENDROOT
BRANCH   1   2
ATOM      2  C   UNL     1       0.338  -1.750  -1.394  0.00  0.00    +0.231 C 
ATOM      3  O   UNL     1       1.254  -2.498  -1.124  0.00  0.00    -0.274 OA
ATOM      4  N   UNL     1      -0.851  -2.253  -1.782  0.00  0.00    -0.285 N 
ATOM      5  H   UNL     1      -1.603  -1.659  -1.931  0.00  0.00    +0.155 HD
BRANCH   4   6
ATOM      6  C   UNL     1      -1.000  -3.631  -1.971  0.00  0.00    +0.034 A 
ATOM      7  C   UNL     1      -1.823  -4.109  -2.985  0.00  0.00    +0.023 A 
ATOM      8  C   UNL     1      -1.974  -5.470  -3.176  0.00  0.00    +0.002 A 
ATOM      9  C   UNL     1      -1.310  -6.365  -2.363  0.00  0.00    +0.011 A 
ATOM     10  C   UNL     1      -0.479  -5.896  -1.340  0.00  0.00    +0.019 A 
ATOM     11  C   UNL     1      -0.323  -4.520  -1.151  0.00  0.00    +0.034 A 
BRANCH  10  12
ATOM     12  C   UNL     1       0.231  -6.847  -0.470  0.00  0.00    +0.160 C 
ATOM     13  O   UNL     1       0.951  -6.437   0.415  0.00  0.00    -0.292 OA
ATOM     14  C   UNL     1       0.064  -8.330  -0.681  0.00  0.00    +0.091 C 
ENDBRANCH  10  12
ENDBRANCH   4   6
ENDBRANCH   1   2
BRANCH   1  16
ATOM     15  C   UNL     1       0.108   1.756   0.120  0.00  0.00    +0.005 C 
ATOM     16  C   UNL     1       0.043   0.229   0.071  0.00  0.00    +0.020 C 
ENDBRANCH   1  16
BRANCH   1  17
ATOM     17  S   UNL     1       2.289   0.139  -1.488  0.00  0.00    -0.075 S 
BRANCH  17  18
ATOM     18  C   UNL     1       2.626  -0.225  -3.178  0.00  0.00    +0.171 A 
ATOM     19  N   UNL     1       3.906  -0.139  -3.637  0.00  0.00    -0.302 N 
ATOM     20  H   UNL     1       4.620   0.120  -3.034  0.00  0.00    +0.171 HD
ATOM     21  C   UNL     1       4.182  -0.414  -4.929  0.00  0.00    +0.254 A 
ATOM     22  O   UNL     1       5.326  -0.340  -5.349  0.00  0.00    -0.268 OA
ATOM     23  C   UNL     1       3.136  -0.785  -5.779  0.00  0.00    +0.113 A 
ATOM     24  C   UNL     1       1.850  -0.858  -5.263  0.00  0.00    +0.124 A 
ATOM     25  N   UNL     1       1.636  -0.579  -3.972  0.00  0.00    -0.209 NA
BRANCH  24  26
ATOM     26  N   UNL     1       0.795  -1.221  -6.077  0.00  0.00    -0.343 N 
ATOM     27  H   UNL     1       0.953  -1.427  -7.011  0.00  0.00    +0.144 HD
ATOM     28  H   UNL     1      -0.103  -1.271  -5.713  0.00  0.00    +0.144 HD
ENDBRANCH  24  26
ENDBRANCH  17  18
ENDBRANCH   1  17
TORSDOF 7
