REMARK  Name = ZINC21175423
REMARK  7 active torsions:
REMARK  status: ('A' for Active; 'I' for Inactive)
REMARK    1  A    between atoms: C_1  and  C_2
REMARK    2  A    between atoms: C_15  and  C_17
REMARK    3  A    between atoms: C_17  and  C_19
REMARK    4  A    between atoms: C_17  and  S_20
REMARK    5  A    between atoms: S_20  and  C_21
REMARK    6  A    between atoms: N_31  and  C_32
REMARK    7  A    between atoms: C_32  and  C_33
REMARK                            x       y       z     vdW  Elec       q    Type
REMARK                         _______ _______ _______ _____ _____    ______ ____
ROOT
ATOM      1  C   UNL     1       2.301  -8.127   0.768  0.00  0.00    +0.117 C 
ATOM      2  C   UNL     1       1.067  -8.886   1.259  0.00  0.00    +0.027 C 
ENDROOT
BRANCH   1  16
ATOM      3  C   UNL     1      -0.019   1.526   0.010  0.00  0.00    +0.008 C 
ATOM      4  C   UNL     1       0.002  -0.004   0.002  0.00  0.00    -0.009 C 
ATOM      5  C   UNL     1       0.726  -0.501  -1.253  0.00  0.00    +0.008 C 
ATOM      6  C   UNL     1       0.536  -2.011  -1.397  0.00  0.00    +0.037 C 
ATOM      7  C   UNL     1       0.949  -2.688  -0.093  0.00  0.00    -0.023 A 
ATOM      8  C   UNL     1       1.031  -1.976   1.055  0.00  0.00    -0.004 A 
ATOM      9  S   UNL     1       1.537  -3.145   2.292  0.00  0.00    -0.073 S 
ATOM     10  C   UNL     1       1.637  -4.581   1.270  0.00  0.00    +0.116 A 
ATOM     11  C   UNL     1       1.271  -4.101  -0.007  0.00  0.00    +0.075 A 
ATOM     12  C   UNL     1       1.257  -5.054  -1.081  0.00  0.00    +0.260 A 
ATOM     13  O   UNL     1       0.955  -4.742  -2.220  0.00  0.00    -0.267 OA
ATOM     14  N   UNL     1       1.599  -6.321  -0.747  0.00  0.00    -0.309 N 
ATOM     15  H   UNL     1       1.603  -6.997  -1.443  0.00  0.00    +0.170 HD
ATOM     16  C   UNL     1       1.938  -6.688   0.512  0.00  0.00    +0.124 A 
ATOM     17  N   UNL     1       1.962  -5.845   1.522  0.00  0.00    -0.225 NA
ATOM     18  C   UNL     1       0.751  -0.516   1.241  0.00  0.00    +0.046 C 
ENDBRANCH   1  16
BRANCH   1  19
ATOM     19  S   UNL     1       3.602  -8.207   2.031  0.00  0.00    -0.077 S 
BRANCH  19  20
ATOM     20  C   UNL     1       4.016  -9.918   2.109  0.00  0.00    +0.173 A 
ATOM     21  N   UNL     1       3.383 -10.750   1.319  0.00  0.00    -0.223 NA
ATOM     22  C   UNL     1       3.649 -12.072   1.327  0.00  0.00    +0.079 A 
ATOM     23  C   UNL     1       2.974 -12.960   0.484  0.00  0.00    +0.028 A 
ATOM     24  C   UNL     1       3.276 -14.292   0.524  0.00  0.00    +0.002 A 
ATOM     25  C   UNL     1       4.245 -14.779   1.391  0.00  0.00    +0.001 A 
ATOM     26  C   UNL     1       4.922 -13.936   2.228  0.00  0.00    +0.015 A 
ATOM     27  C   UNL     1       4.635 -12.572   2.208  0.00  0.00    +0.065 A 
ATOM     28  C   UNL     1       5.331 -11.619   3.083  0.00  0.00    +0.263 A 
ATOM     29  O   UNL     1       6.190 -11.988   3.862  0.00  0.00    -0.267 OA
ATOM     30  N   UNL     1       4.985 -10.314   2.986  0.00  0.00    -0.283 N 
BRANCH  30  31
ATOM     31  C   UNL     1       5.652  -9.320   3.830  0.00  0.00    +0.154 C 
BRANCH  31  32
ATOM     32  C   UNL     1       4.894  -9.171   5.124  0.00  0.00    -0.013 C 
ATOM     33  C   UNL     1       5.512  -9.332   6.268  0.00  0.00    +0.005 C 
ENDBRANCH  31  32
ENDBRANCH  30  31
ENDBRANCH  19  20
ENDBRANCH   1  19
TORSDOF 5
