REMARK  Name = ZINC22895082
REMARK  9 active torsions:
REMARK  status: ('A' for Active; 'I' for Inactive)
REMARK    1  A    between atoms: C_1  and  C_2
REMARK    2  A    between atoms: C_2  and  C_3
REMARK    3  A    between atoms: C_4  and  C_28
REMARK    4  A    between atoms: C_6  and  C_8
REMARK    5  A    between atoms: N_10  and  N_11
REMARK    6  A    between atoms: C_12  and  C_14
REMARK    7  A    between atoms: C_15  and  C_27
REMARK    8  A    between atoms: C_17  and  C_26
REMARK    9  A    between atoms: C_19  and  C_23
REMARK                            x       y       z     vdW  Elec       q    Type
REMARK                         _______ _______ _______ _____ _____    ______ ____
ROOT
ATOM      1  N   UNL     1      -5.882   1.677  -2.436  0.00  0.00    -0.230 N 
ATOM      2  C   UNL     1      -6.850   2.523  -2.030  0.00  0.00    +0.267 C 
ATOM      3  O   UNL     1      -6.714   3.722  -2.183  0.00  0.00    -0.268 OA
ATOM      4  H   UNL     1      -6.006   0.593  -2.298  0.00  0.00    +0.173 HD
ENDROOT
BRANCH   2   5
ATOM      5  C   UNL     1      -8.072   1.996  -1.404  0.00  0.00    +0.081 A 
ATOM      6  C   UNL     1      -9.144   2.684  -0.931  0.00  0.00    -0.020 A 
ATOM      7  C   UNL     1     -10.226   1.989  -0.365  0.00  0.00    +0.032 A 
ATOM      8  C   UNL     1     -11.432   2.495   0.180  0.00  0.00    +0.050 A 
ATOM      9  N   UNL     1     -12.319   1.658   0.669  0.00  0.00    -0.236 NA
ATOM     10  C   UNL     1     -12.132   0.349   0.673  0.00  0.00    +0.134 A 
ATOM     11  N   UNL     1     -11.033  -0.189   0.181  0.00  0.00    -0.225 NA
ATOM     12  C   UNL     1     -10.092   0.576  -0.327  0.00  0.00    +0.113 A 
ATOM     13  S   UNL     1      -8.506   0.297  -1.072  0.00  0.00    -0.064 S 
ATOM     14  C   UNL     1     -11.694   3.979   0.200  0.00  0.00    +0.066 C 
ATOM     15  C   UNL     1      -9.175   4.188  -1.017  0.00  0.00    +0.046 C 
BRANCH  10  16
ATOM     16  C   UNL     1     -13.197  -0.547   1.251  0.00  0.00    +0.057 C 
ATOM     17  C   UNL     1     -12.857  -2.030   1.421  0.00  0.00    +0.012 C 
ATOM     18  C   UNL     1     -13.826  -1.587   0.321  0.00  0.00    +0.012 C 
ENDBRANCH  10  16
ENDBRANCH   2   5
BRANCH   1  21
ATOM     19  C   UNL     1      -3.750   1.334  -3.438  0.00  0.00    +0.267 C 
ATOM     20  O   UNL     1      -3.887   0.134  -3.285  0.00  0.00    -0.268 OA
ATOM     21  N   UNL     1      -4.718   2.179  -3.033  0.00  0.00    -0.230 N 
ATOM     22  H   UNL     1      -4.595   3.264  -3.170  0.00  0.00    +0.173 HD
BRANCH  19  26
ATOM     23  C   UNL     1      -0.536   3.269  -5.131  0.00  0.00    -0.007 A 
ATOM     24  C   UNL     1      -0.417   1.916  -5.092  0.00  0.00    -0.040 A 
ATOM     25  C   UNL     1      -1.430   1.170  -4.543  0.00  0.00    +0.024 A 
ATOM     26  C   UNL     1      -2.533   1.859  -4.062  0.00  0.00    +0.076 A 
ATOM     27  S   UNL     1      -2.082   3.552  -4.398  0.00  0.00    -0.088 S 
ATOM     28  C   UNL     1       0.813   1.243  -5.643  0.00  0.00    +0.044 C 
BRANCH  23  30
ATOM     29  C   UNL     1       0.136   4.527  -7.160  0.00  0.00    +0.009 C 
ATOM     30  C   UNL     1       0.438   4.279  -5.681  0.00  0.00    +0.039 C 
ENDBRANCH  23  30
ENDBRANCH  19  26
ENDBRANCH   1  21
TORSDOF 5
