REMARK  Name = ZINC67240730
REMARK  5 active torsions:
REMARK  status: ('A' for Active; 'I' for Inactive)
REMARK    1  A    between atoms: C_3  and  C_9
REMARK    2  A    between atoms: C_9  and  N_10
REMARK    3  A    between atoms: C_11  and  N_26
REMARK    4  A    between atoms: C_12  and  C_15
REMARK    5  A    between atoms: N_17  and  C_18
REMARK                            x       y       z     vdW  Elec       q    Type
REMARK                         _______ _______ _______ _____ _____    ______ ____
ROOT
ATOM      1  N   UNL     1       4.200   2.207   1.344  0.00  0.00    -0.226 N 
ATOM      2  C   UNL     1       3.962   3.148   2.287  0.00  0.00    +0.147 A 
ATOM      3  C   UNL     1       4.705   2.782   3.403  0.00  0.00    +0.188 A 
ATOM      4  N   UNL     1       5.363   1.645   3.110  0.00  0.00    -0.123 NA
ATOM      5  N   UNL     1       5.084   1.278   1.909  0.00  0.00    -0.063 NA
ENDROOT
BRANCH   3   6
ATOM      6  C   UNL     1       4.762   3.508   4.677  0.00  0.00    +0.272 C 
ATOM      7  O   UNL     1       4.120   4.531   4.824  0.00  0.00    -0.268 OA
ATOM      8  N   UNL     1       5.527   3.041   5.685  0.00  0.00    -0.279 N 
ATOM      9  H   UNL     1       5.987   2.192   5.591  0.00  0.00    +0.155 HD
BRANCH   8  10
ATOM     10  C   UNL     1       5.656   3.781   6.866  0.00  0.00    +0.052 A 
ATOM     11  C   UNL     1       4.583   4.522   7.343  0.00  0.00    +0.026 A 
ATOM     12  C   UNL     1       4.713   5.251   8.509  0.00  0.00    +0.022 A 
ATOM     13  C   UNL     1       5.911   5.245   9.201  0.00  0.00    +0.042 A 
ATOM     14  C   UNL     1       6.982   4.508   8.728  0.00  0.00    +0.041 A 
ATOM     15  C   UNL     1       6.856   3.771   7.565  0.00  0.00    +0.064 A 
ATOM     16 CL   UNL     1       8.198   2.841   6.976  0.00  0.00    -0.082 Cl
ATOM     17 CL   UNL     1       6.071   6.163  10.666  0.00  0.00    -0.083 Cl
ENDBRANCH   8  10
ENDBRANCH   3   6
BRANCH   2  18
ATOM     18  N   UNL     1       3.144   4.253   2.165  0.00  0.00    -0.341 N 
ATOM     19  H   UNL     1       2.669   4.415   1.336  0.00  0.00    +0.144 HD
ATOM     20  H   UNL     1       3.045   4.867   2.909  0.00  0.00    +0.144 HD
ENDBRANCH   2  18
BRANCH   1  21
ATOM     21  C   UNL     1       3.636   2.165  -0.008  0.00  0.00    +0.184 C 
BRANCH  21  24
ATOM     22  C   UNL     1      -0.053   1.367   0.050  0.00  0.00    +0.039 A 
ATOM     23  C   UNL     1       1.136   2.072   0.032  0.00  0.00    +0.010 A 
ATOM     24  C   UNL     1       2.341   1.395   0.012  0.00  0.00    -0.008 A 
ATOM     25  C   UNL     1       2.358   0.011   0.011  0.00  0.00    +0.049 A 
ATOM     26  C   UNL     1       1.169  -0.695   0.029  0.00  0.00    +0.058 A 
ATOM     27  C   UNL     1      -0.038  -0.017   0.048  0.00  0.00    +0.125 A 
ATOM     28  F   UNL     1      -1.200  -0.706   0.066  0.00  0.00    -0.205 F 
ATOM     29 CL   UNL     1       3.872  -0.838  -0.014  0.00  0.00    -0.083 Cl
ENDBRANCH  21  24
ENDBRANCH   1  21
TORSDOF 5
