REMARK  Name = ZINC01656292
REMARK  11 active torsions:
REMARK  status: ('A' for Active; 'I' for Inactive)
REMARK    1  A    between atoms: C_1  and  C_2
REMARK    2  A    between atoms: C_4  and  N_12
REMARK    3  A    between atoms: N_12  and  C_13
REMARK    4  A    between atoms: C_13  and  C_14
REMARK    5  A    between atoms: C_14  and  C_15
REMARK    6  A    between atoms: C_15  and  C_16
REMARK    7  A    between atoms: C_16  and  C_17
REMARK    8  A    between atoms: C_17  and  C_18
REMARK    9  A    between atoms: C_18  and  N_19
REMARK   10  A    between atoms: N_19  and  C_20
REMARK   11  A    between atoms: C_22  and  C_30
REMARK                            x       y       z     vdW  Elec       q    Type
REMARK                         _______ _______ _______ _____ _____    ______ ____
ROOT
ATOM      1  C   UNL     1      -7.173   2.255   0.088  0.00  0.00    +0.002 C 
ENDROOT
BRANCH   1   2
ATOM      2  C   UNL     1      -6.368   2.511   1.364  0.00  0.00    +0.019 C 
BRANCH   2   3
ATOM      3  C   UNL     1      -4.893   2.197   1.107  0.00  0.00    +0.101 C 
BRANCH   3   4
ATOM      4  N   UNL     1      -4.122   2.442   2.328  0.00  0.00    -0.343 N 
ATOM      5  H   UNL     1      -4.569   2.756   3.130  0.00  0.00    +0.146 HD
BRANCH   4   9
ATOM      6  C   UNL     1      -0.013   1.086   0.008  0.00  0.00    +0.063 C 
ATOM      7  C   UNL     1      -0.718   1.572   1.248  0.00  0.00    +0.015 A 
ATOM      8  C   UNL     1      -2.089   1.784   1.204  0.00  0.00    +0.044 A 
ATOM      9  C   UNL     1      -2.752   2.225   2.339  0.00  0.00    +0.038 A 
ATOM     10  C   UNL     1      -1.985   2.455   3.506  0.00  0.00    +0.021 A 
ATOM     11  C   UNL     1      -2.580   2.909   4.692  0.00  0.00    +0.031 A 
ATOM     12  C   UNL     1      -1.808   3.119   5.796  0.00  0.00    +0.042 A 
ATOM     13  C   UNL     1      -0.433   2.888   5.759  0.00  0.00    +0.022 A 
ATOM     14  C   UNL     1       0.174   2.447   4.624  0.00  0.00    +0.028 A 
ATOM     15  C   UNL     1      -0.590   2.220   3.466  0.00  0.00    +0.048 A 
ATOM     16 CL   UNL     1      -2.545   3.680   7.264  0.00  0.00    -0.084 Cl
ATOM     17  N   UNL     1       0.061   1.775   2.335  0.00  0.00    -0.358 N 
ATOM     18  H   UNL     1       1.074   1.608   2.319  0.00  0.00    +0.166 HD
ENDBRANCH   4   9
ENDBRANCH   3   4
ENDBRANCH   2   3
ENDBRANCH   1   2
BRANCH   1  19
ATOM     19  C   UNL     1      -8.649   2.569   0.345  0.00  0.00    +0.002 C 
BRANCH  19  20
ATOM     20  C   UNL     1      -9.454   2.313  -0.930  0.00  0.00    +0.019 C 
BRANCH  20  21
ATOM     21  C   UNL     1     -10.929   2.627  -0.674  0.00  0.00    +0.101 C 
BRANCH  21  22
ATOM     22  N   UNL     1     -11.700   2.382  -1.895  0.00  0.00    -0.343 N 
ATOM     23  H   UNL     1     -11.253   2.068  -2.696  0.00  0.00    +0.146 HD
BRANCH  22  24
ATOM     24  C   UNL     1     -13.070   2.598  -1.905  0.00  0.00    +0.038 A 
ATOM     25  C   UNL     1     -13.732   3.041  -0.771  0.00  0.00    +0.044 A 
ATOM     26  C   UNL     1     -15.104   3.253  -0.815  0.00  0.00    +0.015 A 
ATOM     27  C   UNL     1     -15.232   2.604  -3.033  0.00  0.00    +0.048 A 
ATOM     28  C   UNL     1     -13.837   2.368  -3.073  0.00  0.00    +0.021 A 
ATOM     29  C   UNL     1     -13.242   1.914  -4.258  0.00  0.00    +0.031 A 
ATOM     30  C   UNL     1     -14.014   1.704  -5.362  0.00  0.00    +0.042 A 
ATOM     31  C   UNL     1     -15.388   1.936  -5.326  0.00  0.00    +0.022 A 
ATOM     32  C   UNL     1     -15.996   2.377  -4.191  0.00  0.00    +0.028 A 
ATOM     33 CL   UNL     1     -13.278   1.142  -6.830  0.00  0.00    -0.084 Cl
ATOM     34  C   UNL     1     -15.809   3.739   0.425  0.00  0.00    +0.063 C 
ATOM     35  N   UNL     1     -15.883   3.050  -1.902  0.00  0.00    -0.358 N 
ATOM     36  H   UNL     1     -16.895   3.217  -1.886  0.00  0.00    +0.166 HD
ENDBRANCH  22  24
ENDBRANCH  21  22
ENDBRANCH  20  21
ENDBRANCH  19  20
ENDBRANCH   1  19
TORSDOF 9
