REMARK  Name = ZINC39218222
REMARK  6 active torsions:
REMARK  status: ('A' for Active; 'I' for Inactive)
REMARK    1  A    between atoms: C_4  and  C_7
REMARK    2  A    between atoms: C_9  and  C_34
REMARK    3  A    between atoms: C_10  and  N_33
REMARK    4  A    between atoms: N_11  and  N_19
REMARK    5  A    between atoms: N_19  and  C_20
REMARK    6  A    between atoms: C_21  and  C_27
REMARK                            x       y       z     vdW  Elec       q    Type
REMARK                         _______ _______ _______ _____ _____    ______ ____
ROOT
ATOM      1  C   UNL     1       3.423  -0.854  -1.191  0.00  0.00    +0.097 C 
ATOM      2  C   UNL     1       3.665  -1.397   0.187  0.00  0.00    +0.078 C 
ATOM      3  C   UNL     1       3.497  -2.717   0.460  0.00  0.00    +0.119 C 
ATOM      4  N   UNL     1       3.107  -3.583  -0.534  0.00  0.00    -0.211 N 
ATOM      5  C   UNL     1       3.263  -3.247  -1.851  0.00  0.00    +0.039 C 
ATOM      6  C   UNL     1       3.425  -1.959  -2.217  0.00  0.00    +0.026 C 
ATOM      7  C   UNL     1       3.601  -1.607  -3.567  0.00  0.00    +0.162 C 
ATOM      8  O   UNL     1       3.738  -0.437  -3.865  0.00  0.00    -0.292 OA
ATOM      9  C   UNL     1       3.625  -2.652  -4.649  0.00  0.00    +0.080 C 
ATOM     10  C   UNL     1       4.137  -3.970  -4.059  0.00  0.00    +0.014 C 
ATOM     11  C   UNL     1       3.244  -4.351  -2.880  0.00  0.00    +0.053 C 
ENDROOT
BRANCH   1  15
ATOM     12  C   UNL     1      -0.359   1.129  -1.275  0.00  0.00    +0.000 A 
ATOM     13  C   UNL     1       0.806   1.867  -1.173  0.00  0.00    +0.000 A 
ATOM     14  C   UNL     1       2.030   1.225  -1.145  0.00  0.00    +0.004 A 
ATOM     15  C   UNL     1       2.089  -0.154  -1.220  0.00  0.00    -0.035 A 
ATOM     16  C   UNL     1       0.924  -0.892  -1.321  0.00  0.00    +0.004 A 
ATOM     17  C   UNL     1      -0.300  -0.250  -1.350  0.00  0.00    +0.000 A 
ENDBRANCH   1  15
BRANCH   3  18
ATOM     18  N   UNL     1       3.718  -3.188   1.732  0.00  0.00    -0.344 N 
ATOM     19  H   UNL     1       3.994  -2.578   2.434  0.00  0.00    +0.144 HD
ATOM     20  H   UNL     1       3.599  -4.130   1.928  0.00  0.00    +0.144 HD
ENDBRANCH   3  18
BRANCH   4  21
ATOM     21  N   UNL     1       2.546  -4.821  -0.195  0.00  0.00    -0.260 N 
ATOM     22  H   UNL     1       3.051  -5.638  -0.336  0.00  0.00    +0.170 HD
BRANCH  21  23
ATOM     23  C   UNL     1       1.303  -4.879   0.328  0.00  0.00    +0.059 C 
ATOM     24  C   UNL     1       0.760  -6.070   0.801  0.00  0.00    +0.110 C 
ATOM     25  N   UNL     1      -0.463  -6.111   1.312  0.00  0.00    -0.155 NA
ATOM     26  N   UNL     1      -1.260  -5.121   1.430  0.00  0.00    -0.080 NA
ATOM     27  C   UNL     1      -0.952  -3.875   1.042  0.00  0.00    +0.260 C 
ATOM     28  O   UNL     1      -1.741  -2.962   1.174  0.00  0.00    -0.272 OA
ATOM     29  C   UNL     1       0.422  -3.645   0.437  0.00  0.00    +0.153 C 
BRANCH  24  30
ATOM     30  C   UNL     1       1.563  -7.315   0.733  0.00  0.00    +0.003 A 
ATOM     31  C   UNL     1       2.886  -7.319   1.171  0.00  0.00    +0.010 A 
ATOM     32  C   UNL     1       3.629  -8.480   1.105  0.00  0.00    +0.001 A 
ATOM     33  C   UNL     1       3.062  -9.639   0.606  0.00  0.00    +0.000 A 
ATOM     34  C   UNL     1       1.750  -9.641   0.169  0.00  0.00    +0.001 A 
ATOM     35  C   UNL     1       0.996  -8.487   0.235  0.00  0.00    +0.010 A 
ENDBRANCH  24  30
ENDBRANCH  21  23
ENDBRANCH   4  21
BRANCH   2  36
ATOM     36  C   UNL     1       4.079  -0.509   1.231  0.00  0.00    +0.099 C 
ATOM     37  N   UNL     1       4.407   0.196   2.060  0.00  0.00    -0.191 NA
ENDBRANCH   2  36
TORSDOF 6
