REMARK  Name = ZINC45605990
REMARK  11 active torsions:
REMARK  status: ('A' for Active; 'I' for Inactive)
REMARK    1  A    between atoms: C_1  and  C_2
REMARK    2  A    between atoms: C_2  and  C_3
REMARK    3  A    between atoms: C_2  and  C_4
REMARK    4  A    between atoms: C_2  and  C_5
REMARK    5  A    between atoms: C_8  and  C_11
REMARK    6  A    between atoms: C_11  and  N_12
REMARK    7  A    between atoms: N_12  and  C_13
REMARK    8  A    between atoms: N_12  and  C_14
REMARK    9  A    between atoms: C_14  and  C_15
REMARK   10  A    between atoms: C_24  and  S_26
REMARK   11  A    between atoms: S_26  and  N_29
REMARK                            x       y       z     vdW  Elec       q    Type
REMARK                         _______ _______ _______ _____ _____    ______ ____
ROOT
ATOM      1  C   UNL     1       3.211  -0.250  -8.075  0.00  0.00    +0.203 C 
ATOM      2  O   UNL     1       2.555   0.751  -7.880  0.00  0.00    -0.277 OA
ATOM      3  N   UNL     1       3.857  -0.415  -9.246  0.00  0.00    -0.272 N 
ATOM      4  C   UNL     1       4.672  -1.580  -9.599  0.00  0.00    +0.118 C 
ATOM      5  C   UNL     1       5.186  -1.297 -11.020  0.00  0.00    +0.056 C 
ATOM      6  C   UNL     1       4.603   0.052 -11.375  0.00  0.00    -0.023 A 
ATOM      7  C   UNL     1       3.841   0.498 -10.306  0.00  0.00    +0.040 A 
ATOM      8  C   UNL     1       3.193   1.730 -10.403  0.00  0.00    +0.026 A 
ATOM      9  C   UNL     1       3.307   2.487 -11.549  0.00  0.00    +0.030 A 
ATOM     10  C   UNL     1       4.065   2.032 -12.612  0.00  0.00    +0.105 A 
ATOM     11  C   UNL     1       4.718   0.816 -12.520  0.00  0.00    +0.034 A 
ENDROOT
BRANCH  10  12
ATOM     12  S   UNL     1       4.208   3.002 -14.076  0.00  0.00    +0.056 S 
ATOM     13  O   UNL     1       4.527   2.104 -15.129  0.00  0.00    -0.153 OA
ATOM     14  O   UNL     1       3.066   3.847 -14.115  0.00  0.00    -0.153 OA
BRANCH  12  15
ATOM     15  N   UNL     1       5.522   3.991 -13.881  0.00  0.00    -0.204 NA
ATOM     16  H   UNL     1       6.042   3.951 -13.063  0.00  0.00    +0.144 HD
ATOM     17  H   UNL     1       5.772   4.609 -14.585  0.00  0.00    +0.144 HD
ENDBRANCH  12  15
ENDBRANCH  10  12
BRANCH   1  18
ATOM     18  C   UNL     1       3.305  -1.309  -7.007  0.00  0.00    +0.019 C 
BRANCH  18  19
ATOM     19  N   UNL     1       2.520  -0.895  -5.837  0.00  0.00    +0.386 N 
ATOM     20  C   UNL     1       1.097  -0.833  -6.198  0.00  0.00    -0.095 C 
ATOM     21  H   UNL     1       2.829   0.015  -5.529  0.00  0.00    -0.081 HD
BRANCH  19  22
ATOM     22  C   UNL     1       2.707  -1.868  -4.752  0.00  0.00    -0.043 C 
BRANCH  22  26
ATOM     23  C   UNL     1       0.707  -0.490  -1.238  0.00  0.00    -0.042 A 
ATOM     24  C   UNL     1       0.036  -1.284  -2.148  0.00  0.00    +0.004 A 
ATOM     25  C   UNL     1       0.683  -1.730  -3.286  0.00  0.00    +0.002 A 
ATOM     26  C   UNL     1       2.001  -1.381  -3.513  0.00  0.00    -0.064 A 
ATOM     27  C   UNL     1       2.672  -0.586  -2.603  0.00  0.00    +0.002 A 
ATOM     28  C   UNL     1       2.024  -0.137  -1.467  0.00  0.00    +0.004 A 
BRANCH  23  30
ATOM     29  C   UNL     1      -0.019   1.526   0.010  0.00  0.00    +0.015 C 
ATOM     30  C   UNL     1       0.002  -0.004   0.002  0.00  0.00    -0.013 C 
ATOM     31  C   UNL     1       0.742  -0.511   1.242  0.00  0.00    +0.015 C 
ATOM     32  C   UNL     1      -1.433  -0.534   0.013  0.00  0.00    +0.015 C 
ENDBRANCH  23  30
ENDBRANCH  22  26
ENDBRANCH  19  22
ENDBRANCH  18  19
ENDBRANCH   1  18
TORSDOF 7
