REMARK  Name = ZINC39878829
REMARK  5 active torsions:
REMARK  status: ('A' for Active; 'I' for Inactive)
REMARK    1  A    between atoms: C_1  and  C_2
REMARK    2  A    between atoms: N_15  and  C_25
REMARK    3  A    between atoms: C_16  and  C_18
REMARK    4  A    between atoms: C_28  and  O_31
REMARK    5  A    between atoms: O_31  and  C_32
REMARK                            x       y       z     vdW  Elec       q    Type
REMARK                         _______ _______ _______ _____ _____    ______ ____
ROOT
ATOM      1  C   UNL     1      -0.018   1.503   0.010  0.00  0.00    +0.044 C 
ATOM      2  C   UNL     1       0.002  -0.004   0.002  0.00  0.00    -0.050 A 
ATOM      3  C   UNL     1       0.006  -0.689  -1.205  0.00  0.00    +0.007 A 
ATOM      4  C   UNL     1       0.021  -2.065  -1.235  0.00  0.00    +0.047 A 
ATOM      5  C   UNL     1       0.035  -2.790  -0.043  0.00  0.00    +0.139 A 
ATOM      6  C   UNL     1       0.037  -2.086   1.172  0.00  0.00    +0.065 A 
ATOM      7  C   UNL     1       0.023  -0.692   1.183  0.00  0.00    +0.018 A 
ATOM      8  C   UNL     1       0.068  -2.849   2.446  0.00  0.00    +0.199 A 
ATOM      9  O   UNL     1      -0.097  -2.332   3.537  0.00  0.00    -0.287 OA
ATOM     10  C   UNL     1       0.314  -4.283   2.265  0.00  0.00    +0.072 A 
ATOM     11  C   UNL     1       0.294  -4.850   1.023  0.00  0.00    +0.199 A 
ATOM     12  O   UNL     1       0.043  -4.142  -0.096  0.00  0.00    -0.450 OA
ATOM     13  C   UNL     1       0.583  -6.287   1.166  0.00  0.00    +0.287 C 
ATOM     14  O   UNL     1       0.644  -7.080   0.247  0.00  0.00    -0.266 OA
ATOM     15  N   UNL     1       0.771  -6.595   2.466  0.00  0.00    -0.253 N 
ATOM     16  C   UNL     1       0.615  -5.362   3.254  0.00  0.00    +0.150 C 
ENDROOT
BRANCH  16  17
ATOM     17  C   UNL     1      -0.527  -5.508   4.227  0.00  0.00    -0.021 A 
ATOM     18  C   UNL     1      -1.668  -6.194   3.855  0.00  0.00    +0.006 A 
ATOM     19  C   UNL     1      -2.715  -6.329   4.748  0.00  0.00    +0.001 A 
ATOM     20  C   UNL     1      -2.622  -5.777   6.012  0.00  0.00    +0.015 A 
ATOM     21  C   UNL     1      -1.480  -5.090   6.384  0.00  0.00    +0.018 A 
ATOM     22  C   UNL     1      -0.430  -4.961   5.492  0.00  0.00    +0.021 A 
ATOM     23 BR   UNL     1      -1.352  -4.335   8.112  0.00  0.00    -0.050 Br
ENDBRANCH  16  17
BRANCH  15  24
ATOM     24  C   UNL     1       1.063  -7.865   2.975  0.00  0.00    +0.038 A 
ATOM     25  C   UNL     1       1.227  -8.044   4.343  0.00  0.00    +0.027 A 
ATOM     26  C   UNL     1       1.515  -9.297   4.846  0.00  0.00    +0.047 A 
ATOM     27  C   UNL     1       1.641 -10.378   3.985  0.00  0.00    +0.120 A 
ATOM     28  C   UNL     1       1.477 -10.200   2.618  0.00  0.00    +0.047 A 
ATOM     29  C   UNL     1       1.184  -8.949   2.115  0.00  0.00    +0.027 A 
BRANCH  27  30
ATOM     30  O   UNL     1       1.925 -11.612   4.480  0.00  0.00    -0.495 OA
ATOM     31  C   UNL     1       2.040 -12.679   3.537  0.00  0.00    +0.277 C 
ENDBRANCH  27  30
ENDBRANCH  15  24
TORSDOF 3
