REMARK  Name = ZINC02751490
REMARK  8 active torsions:
REMARK  status: ('A' for Active; 'I' for Inactive)
REMARK    1  A    between atoms: C_1  and  C_2
REMARK    2  A    between atoms: C_2  and  C_3
REMARK    3  A    between atoms: C_2  and  C_4
REMARK    4  A    between atoms: C_4  and  O_5
REMARK    5  A    between atoms: O_5  and  C_6
REMARK    6  A    between atoms: C_9  and  C_12
REMARK    7  A    between atoms: N_14  and  C_15
REMARK    8  A    between atoms: C_16  and  C_26
REMARK                            x       y       z     vdW  Elec       q    Type
REMARK                         _______ _______ _______ _____ _____    ______ ____
ROOT
ATOM      1  C   UNL     1      -0.842   1.487   3.728  0.00  0.00    +0.085 A 
ATOM      2  C   UNL     1      -0.160   1.131   2.580  0.00  0.00    +0.068 A 
ATOM      3  C   UNL     1      -0.701   1.565   1.287  0.00  0.00    -0.023 A 
ATOM      4  C   UNL     1      -1.788   2.345   1.389  0.00  0.00    -0.004 A 
ATOM      5  S   UNL     1      -2.164   2.414   3.122  0.00  0.00    -0.077 S 
ATOM      6  C   UNL     1      -2.552   3.040   0.297  0.00  0.00    +0.043 C 
ATOM      7  C   UNL     1      -1.768   4.320  -0.045  0.00  0.00    +0.005 C 
ATOM      8  C   UNL     1      -0.319   3.927  -0.358  0.00  0.00    +0.000 C 
ATOM      9  C   UNL     1      -0.400   3.026  -1.571  0.00  0.00    +0.000 C 
ATOM     10  C   UNL     1      -0.723   1.577  -1.247  0.00  0.00    +0.005 C 
ATOM     11  C   UNL     1      -0.013   1.086   0.008  0.00  0.00    +0.037 C 
ENDROOT
BRANCH   2  12
ATOM     12  C   UNL     1       1.073   0.340   2.652  0.00  0.00    +0.244 C 
ATOM     13  O   UNL     1       2.150   0.899   2.744  0.00  0.00    -0.270 OA
ATOM     14  N   UNL     1       1.013  -1.006   2.618  0.00  0.00    -0.325 N 
ATOM     15  H   UNL     1       0.154  -1.452   2.545  0.00  0.00    +0.145 HD
ATOM     16  H   UNL     1       1.828  -1.529   2.665  0.00  0.00    +0.145 HD
ENDBRANCH   2  12
BRANCH   1  19
ATOM     17  C   UNL     1      -1.329   1.619   6.041  0.00  0.00    +0.249 C 
ATOM     18  O   UNL     1      -2.311   2.289   5.786  0.00  0.00    -0.270 OA
ATOM     19  N   UNL     1      -0.537   1.177   5.044  0.00  0.00    -0.275 N 
ATOM     20  H   UNL     1       0.246   0.643   5.248  0.00  0.00    +0.156 HD
BRANCH  17  24
ATOM     21  C   UNL     1      -0.397   0.669  10.073  0.00  0.00    +0.121 A 
ATOM     22  C   UNL     1      -1.520   1.436   9.784  0.00  0.00    +0.046 A 
ATOM     23  C   UNL     1      -1.825   1.746   8.477  0.00  0.00    +0.016 A 
ATOM     24  C   UNL     1      -1.005   1.289   7.442  0.00  0.00    +0.037 A 
ATOM     25  C   UNL     1       0.120   0.514   7.737  0.00  0.00    +0.016 A 
ATOM     26  C   UNL     1       0.422   0.213   9.047  0.00  0.00    +0.046 A 
BRANCH  21  27
ATOM     27  O   UNL     1      -0.099   0.365  11.362  0.00  0.00    -0.492 OA
BRANCH  27  28
ATOM     28  C   UNL     1       1.069  -0.426  11.588  0.00  0.00    +0.232 C 
BRANCH  28  30
ATOM     29  C   UNL     1       0.073  -1.507  13.609  0.00  0.00    +0.010 C 
ATOM     30  C   UNL     1       1.240  -0.664  13.090  0.00  0.00    +0.020 C 
ATOM     31  C   UNL     1       2.555  -1.405  13.342  0.00  0.00    +0.010 C 
ENDBRANCH  28  30
ENDBRANCH  27  28
ENDBRANCH  21  27
ENDBRANCH  17  24
ENDBRANCH   1  19
TORSDOF 6
