REMARK  Name = ZINC37845923
REMARK  8 active torsions:
REMARK  status: ('A' for Active; 'I' for Inactive)
REMARK    1  A    between atoms: C_1  and  C_2
REMARK    2  A    between atoms: C_2  and  N_3
REMARK    3  A    between atoms: C_7  and  C_8
REMARK    4  A    between atoms: N_10  and  C_11
REMARK    5  A    between atoms: N_10  and  C_12
REMARK    6  A    between atoms: C_12  and  C_14
REMARK    7  A    between atoms: C_12  and  C_15
REMARK    8  A    between atoms: C_18  and  C_20
REMARK                            x       y       z     vdW  Elec       q    Type
REMARK                         _______ _______ _______ _____ _____    ______ ____
ROOT
ATOM      1  C   UNL     1      -1.833  -0.160  -2.139  0.00  0.00    +0.263 C 
ATOM      2  O   UNL     1      -2.674   0.004  -3.004  0.00  0.00    -0.268 OA
ATOM      3  N   UNL     1      -0.538   0.107  -2.399  0.00  0.00    -0.292 N 
ATOM      4  C   UNL     1       0.459   0.011  -1.330  0.00  0.00    +0.133 C 
ENDROOT
BRANCH   1   9
ATOM      5  N   UNL     1      -3.488  -1.067  -0.445  0.00  0.00    -0.342 N 
ATOM      6  C   UNL     1      -3.453  -1.449   0.856  0.00  0.00    +0.101 A 
ATOM      7  C   UNL     1      -2.194  -1.280   1.329  0.00  0.00    +0.036 A 
ATOM      8  C   UNL     1      -1.410  -0.773   0.287  0.00  0.00    +0.047 A 
ATOM      9  C   UNL     1      -2.229  -0.650  -0.815  0.00  0.00    +0.106 A 
ATOM     10 BR   UNL     1      -1.603  -1.662   3.084  0.00  0.00    -0.049 Br
BRANCH   5  12
ATOM     11  C   UNL     1      -4.661  -2.388  -2.135  0.00  0.00    +0.027 C 
ATOM     12  C   UNL     1      -4.667  -1.098  -1.313  0.00  0.00    +0.118 C 
ENDBRANCH   5  12
ENDBRANCH   1   9
BRANCH   3  13
ATOM     13  C   UNL     1      -0.127   0.494  -3.751  0.00  0.00    +0.110 C 
ATOM     14  C   UNL     1       0.988  -0.437  -4.231  0.00  0.00    +0.034 C 
BRANCH  13  15
ATOM     15  C   UNL     1       0.376   1.914  -3.736  0.00  0.00    +0.010 A 
ATOM     16  C   UNL     1       0.092   2.929  -4.589  0.00  0.00    +0.013 A 
ATOM     17  C   UNL     1       0.676   4.165  -4.378  0.00  0.00    +0.011 A 
ATOM     18  C   UNL     1       1.514   4.324  -3.325  0.00  0.00    -0.013 A 
ATOM     19  S   UNL     1       1.493   2.699  -2.586  0.00  0.00    -0.097 S 
ATOM     20  C   UNL     1       2.264   5.556  -2.888  0.00  0.00    +0.051 C 
ENDBRANCH  13  15
ENDBRANCH   3  13
TORSDOF 4
