REMARK  Name = ZINC16811795
REMARK  4 active torsions:
REMARK  status: ('A' for Active; 'I' for Inactive)
REMARK    1  A    between atoms: C_16  and  S_18
REMARK    2  A    between atoms: S_18  and  C_19
REMARK    3  A    between atoms: C_19  and  C_20
REMARK    4  A    between atoms: C_23  and  C_26
REMARK                            x       y       z     vdW  Elec       q    Type
REMARK                         _______ _______ _______ _____ _____    ______ ____
ROOT
ATOM      1  C   UNL     1      -1.177   3.562   0.033  0.00  0.00    +0.001 A 
ATOM      2  C   UNL     1       0.037   4.237   0.025  0.00  0.00    +0.002 A 
ATOM      3  C   UNL     1       1.228   3.547   0.009  0.00  0.00    +0.028 A 
ATOM      4  C   UNL     1       1.219   2.149   0.002  0.00  0.00    +0.077 A 
ATOM      5  C   UNL     1      -0.018   1.467   0.010  0.00  0.00    +0.043 A 
ATOM      6  C   UNL     1      -1.211   2.184   0.031  0.00  0.00    +0.013 A 
ATOM      7  C   UNL     1       0.002  -0.004   0.002  0.00  0.00    +0.150 A 
ATOM      8  N   UNL     1      -0.948  -0.910   0.007  0.00  0.00    -0.227 NA
ATOM      9  C   UNL     1      -0.398  -2.148  -0.005  0.00  0.00    +0.090 A 
ATOM     10  C   UNL     1      -0.941  -3.438  -0.007  0.00  0.00    +0.030 A 
ATOM     11  C   UNL     1      -0.114  -4.525  -0.021  0.00  0.00    +0.002 A 
ATOM     12  C   UNL     1       1.265  -4.364  -0.034  0.00  0.00    +0.002 A 
ATOM     13  C   UNL     1       1.823  -3.103  -0.032  0.00  0.00    +0.028 A 
ATOM     14  C   UNL     1       0.999  -1.986  -0.018  0.00  0.00    +0.076 A 
ATOM     15  N   UNL     1       1.233  -0.623  -0.013  0.00  0.00    -0.271 N 
ATOM     16  C   UNL     1       2.379   0.128  -0.021  0.00  0.00    +0.176 A 
ATOM     17  N   UNL     1       2.372   1.437  -0.014  0.00  0.00    -0.223 NA
ENDROOT
BRANCH  16  18
ATOM     18  S   UNL     1       3.931  -0.705  -0.040  0.00  0.00    -0.083 S 
BRANCH  18  19
ATOM     19  C   UNL     1       5.051   0.717  -0.043  0.00  0.00    +0.112 C 
BRANCH  19  20
ATOM     20  C   UNL     1       6.478   0.233  -0.060  0.00  0.00    -0.037 A 
ATOM     21  C   UNL     1       7.144   0.011   1.133  0.00  0.00    +0.005 A 
ATOM     22  C   UNL     1       8.449  -0.437   1.125  0.00  0.00    +0.013 A 
ATOM     23  C   UNL     1       9.101  -0.656  -0.090  0.00  0.00    +0.037 A 
ATOM     24  C   UNL     1       8.425  -0.425  -1.289  0.00  0.00    +0.013 A 
ATOM     25  C   UNL     1       7.119   0.018  -1.267  0.00  0.00    +0.005 A 
BRANCH  23  26
ATOM     26  C   UNL     1      10.501  -1.131  -0.106  0.00  0.00    +0.242 C 
ATOM     27  O   UNL     1      11.066  -1.321  -1.165  0.00  0.00    -0.270 OA
ATOM     28  N   UNL     1      11.150  -1.353   1.054  0.00  0.00    -0.325 N 
ATOM     29  H   UNL     1      10.699  -1.201   1.899  0.00  0.00    +0.145 HD
ATOM     30  H   UNL     1      12.069  -1.665   1.043  0.00  0.00    +0.145 HD
ENDBRANCH  23  26
ENDBRANCH  19  20
ENDBRANCH  18  19
ENDBRANCH  16  18
TORSDOF 4
