REMARK  Name = ZINC09069995
REMARK  12 active torsions:
REMARK  status: ('A' for Active; 'I' for Inactive)
REMARK    1  A    between atoms: C_1  and  C_2
REMARK    2  A    between atoms: C_2  and  C_3
REMARK    3  A    between atoms: C_2  and  O_4
REMARK    4  A    between atoms: O_4  and  C_5
REMARK    5  A    between atoms: C_8  and  C_11
REMARK    6  A    between atoms: C_14  and  C_15
REMARK    7  A    between atoms: C_14  and  O_22
REMARK    8  A    between atoms: N_27  and  C_28
REMARK    9  A    between atoms: C_28  and  C_29
REMARK   10  A    between atoms: C_29  and  N_58
REMARK   11  A    between atoms: C_30  and  N_58
REMARK   12  A    between atoms: C_31  and  N_58
REMARK                            x       y       z     vdW  Elec       q    Type
REMARK                         _______ _______ _______ _____ _____    ______ ____
ROOT
ATOM      1  C   UNL     1       5.260   1.223  -0.312  0.00  0.00    +0.144 C 
ATOM      2  C   UNL     1       3.830   1.710  -0.290  0.00  0.00    +0.071 C 
ATOM      3  C   UNL     1       2.689   0.934  -0.292  0.00  0.00    +0.133 C 
ATOM      4  C   UNL     1       3.895   3.113  -0.273  0.00  0.00    +0.249 C 
ATOM      5  O   UNL     1       2.944   3.872  -0.257  0.00  0.00    -0.282 OA
ATOM      6  C   UNL     1       5.330   3.510  -0.276  0.00  0.00    +0.288 C 
ATOM      7  O   UNL     1       5.735   4.654  -0.261  0.00  0.00    -0.266 OA
ATOM      8  N   UNL     1       6.110   2.417  -0.301  0.00  0.00    -0.285 N 
ENDROOT
BRANCH   3   9
ATOM      9  C   UNL     1       1.369   1.562  -0.109  0.00  0.00    +0.017 A 
ATOM     10  C   UNL     1       1.112   2.338   1.027  0.00  0.00    +0.013 A 
ATOM     11  C   UNL     1      -0.126   2.919   1.194  0.00  0.00    +0.021 A 
ATOM     12  C   UNL     1      -1.112   2.745   0.235  0.00  0.00    +0.041 A 
ATOM     13  C   UNL     1      -0.864   1.978  -0.892  0.00  0.00    +0.021 A 
ATOM     14  C   UNL     1       0.368   1.387  -1.070  0.00  0.00    +0.013 A 
ATOM     15 CL   UNL     1      -2.667   3.486   0.451  0.00  0.00    -0.084 Cl
ENDBRANCH   3   9
BRANCH   1  19
ATOM     16  C   UNL     1       6.046  -1.165   3.143  0.00  0.00    +0.121 A 
ATOM     17  C   UNL     1       5.805  -1.772   1.919  0.00  0.00    +0.046 A 
ATOM     18  C   UNL     1       5.551  -0.998   0.804  0.00  0.00    +0.009 A 
ATOM     19  C   UNL     1       5.537   0.381   0.906  0.00  0.00    -0.022 A 
ATOM     20  C   UNL     1       5.782   0.988   2.124  0.00  0.00    +0.009 A 
ATOM     21  C   UNL     1       6.030   0.218   3.244  0.00  0.00    +0.046 A 
BRANCH  16  22
ATOM     22  O   UNL     1       6.295  -1.925   4.242  0.00  0.00    -0.489 OA
BRANCH  22  24
ATOM     23  C   UNL     1       7.670  -3.781   3.529  0.00  0.00    +0.051 C 
ATOM     24  C   UNL     1       6.304  -3.343   4.063  0.00  0.00    +0.167 C 
ATOM     25  C   UNL     1       6.036  -4.028   5.404  0.00  0.00    +0.051 C 
ENDBRANCH  22  24
ENDBRANCH  16  22
ENDBRANCH   1  19
BRANCH   3  26
ATOM     26  O   UNL     1       2.782  -0.402  -0.462  0.00  0.00    -0.506 OA
ATOM     27  H   UNL     1       1.868  -0.806  -0.437  0.00  0.00    +0.292 HD
ENDBRANCH   3  26
BRANCH   8  28
ATOM     28  C   UNL     1       7.575   2.418  -0.316  0.00  0.00    +0.090 C 
BRANCH  28  29
ATOM     29  C   UNL     1       8.070   2.442  -1.764  0.00  0.00    -0.060 C 
BRANCH  29  32
ATOM     30  C   UNL     1      10.052   2.228  -3.139  0.00  0.00    -0.097 C 
ATOM     31  C   UNL     1      10.071   3.688  -1.207  0.00  0.00    -0.097 C 
ATOM     32  N   UNL     1       9.548   2.422  -1.763  0.00  0.00    +0.377 N 
ATOM     33  H   UNL     1       9.870   1.642  -1.177  0.00  0.00    -0.083 HD
ENDBRANCH  29  32
ENDBRANCH  28  29
ENDBRANCH   8  28
TORSDOF 8
