REMARK  Name = ZINC09427727
REMARK  10 active torsions:
REMARK  status: ('A' for Active; 'I' for Inactive)
REMARK    1  A    between atoms: C_1  and  C_2
REMARK    2  A    between atoms: C_2  and  C_3
REMARK    3  A    between atoms: C_3  and  C_4
REMARK    4  A    between atoms: C_4  and  C_5
REMARK    5  A    between atoms: C_5  and  C_6
REMARK    6  A    between atoms: C_11  and  C_41
REMARK    7  A    between atoms: C_18  and  C_33
REMARK    8  A    between atoms: C_23  and  C_25
REMARK    9  A    between atoms: C_36  and  O_39
REMARK   10  A    between atoms: O_39  and  C_40
REMARK                            x       y       z     vdW  Elec       q    Type
REMARK                         _______ _______ _______ _____ _____    ______ ____
ROOT
ATOM      1  C   UNL     1      -1.878  -2.005   1.959  0.00  0.00    +0.221 C 
ATOM      2  O   UNL     1      -2.326  -0.999   2.467  0.00  0.00    -0.275 OA
ATOM      3  N   UNL     1      -1.346  -1.956   0.722  0.00  0.00    -0.258 N 
ATOM      4  C   UNL     1      -0.840  -3.116   0.159  0.00  0.00    +0.059 A 
ATOM      5  C   UNL     1      -1.625  -4.226  -0.072  0.00  0.00    +0.028 A 
ATOM      6  C   UNL     1      -1.093  -5.338  -0.699  0.00  0.00    -0.049 A 
ATOM      7  C   UNL     1       0.233  -5.337  -1.097  0.00  0.00    +0.005 A 
ATOM      8  C   UNL     1       1.035  -4.242  -0.863  0.00  0.00    +0.025 A 
ATOM      9  C   UNL     1       0.524  -3.109  -0.217  0.00  0.00    +0.053 A 
ATOM     10  N   UNL     1       1.319  -2.062   0.033  0.00  0.00    -0.316 N 
ATOM     11  C   UNL     1       1.216  -0.783  -0.009  0.00  0.00    +0.017 C 
ATOM     12  C   UNL     1       2.539  -0.030  -0.077  0.00  0.00    +0.059 C 
ATOM     13  C   UNL     1       2.408   1.298   0.666  0.00  0.00    +0.032 C 
ATOM     14  C   UNL     1       1.301   2.114  -0.009  0.00  0.00    +0.088 C 
ATOM     15  C   UNL     1       0.033   1.313  -0.000  0.00  0.00    +0.163 C 
ATOM     16  C   UNL     1       0.018  -0.036   0.002  0.00  0.00    +0.037 C 
ATOM     17  C   UNL     1      -1.319  -0.699   0.018  0.00  0.00    +0.147 C 
ATOM     18  O   UNL     1      -1.147   1.971  -0.001  0.00  0.00    -0.292 OA
ATOM     19  C   UNL     1      -1.954  -6.549  -0.949  0.00  0.00    +0.044 C 
ATOM     20  H   UNL     1       2.266  -2.528   0.344  0.00  0.00    +0.152 HD
ENDROOT
BRANCH  17  21
ATOM     21  C   UNL     1      -1.753  -0.936  -1.405  0.00  0.00    -0.022 A 
ATOM     22  C   UNL     1      -0.918  -1.607  -2.279  0.00  0.00    +0.008 A 
ATOM     23  C   UNL     1      -1.318  -1.829  -3.584  0.00  0.00    +0.038 A 
ATOM     24  C   UNL     1      -2.550  -1.370  -4.018  0.00  0.00    +0.123 A 
ATOM     25  C   UNL     1      -3.383  -0.693  -3.143  0.00  0.00    +0.038 A 
ATOM     26  C   UNL     1      -2.983  -0.477  -1.837  0.00  0.00    +0.008 A 
ATOM     27  F   UNL     1      -2.939  -1.582  -5.294  0.00  0.00    -0.205 F 
ENDBRANCH  17  21
BRANCH  13  28
ATOM     28  C   UNL     1       3.711   2.052   0.595  0.00  0.00    -0.043 A 
ATOM     29  C   UNL     1       4.237   2.406  -0.634  0.00  0.00    +0.007 A 
ATOM     30  C   UNL     1       5.429   3.102  -0.701  0.00  0.00    +0.046 A 
ATOM     31  C   UNL     1       6.103   3.436   0.464  0.00  0.00    +0.120 A 
ATOM     32  C   UNL     1       5.575   3.075   1.696  0.00  0.00    +0.046 A 
ATOM     33  C   UNL     1       4.381   2.384   1.758  0.00  0.00    +0.007 A 
BRANCH  31  34
ATOM     34  O   UNL     1       7.277   4.117   0.400  0.00  0.00    -0.495 OA
ATOM     35  C   UNL     1       7.761   4.455  -0.901  0.00  0.00    +0.277 C 
ENDBRANCH  31  34
ENDBRANCH  13  28
BRANCH   1  36
ATOM     36  C   UNL     1      -1.917  -3.311   2.711  0.00  0.00    +0.096 C 
BRANCH  36  37
ATOM     37  C   UNL     1      -2.567  -3.092   4.079  0.00  0.00    +0.009 C 
BRANCH  37  38
ATOM     38  C   UNL     1      -2.606  -4.417   4.843  0.00  0.00    +0.000 C 
BRANCH  38  40
ATOM     39  C   UNL     1      -3.295  -5.523   6.975  0.00  0.00    +0.004 C 
ATOM     40  C   UNL     1      -3.256  -4.198   6.211  0.00  0.00    -0.003 C 
ENDBRANCH  38  40
ENDBRANCH  37  38
ENDBRANCH  36  37
ENDBRANCH   1  36
TORSDOF 7
