REMARK  Name = ZINC67382488
REMARK  8 active torsions:
REMARK  status: ('A' for Active; 'I' for Inactive)
REMARK    1  A    between atoms: C_1  and  C_2
REMARK    2  A    between atoms: C_2  and  C_3
REMARK    3  A    between atoms: C_2  and  C_4
REMARK    4  A    between atoms: C_2  and  N_19
REMARK    5  A    between atoms: C_4  and  N_5
REMARK    6  A    between atoms: N_8  and  N_9
REMARK    7  A    between atoms: C_10  and  C_12
REMARK    8  A    between atoms: C_12  and  C_13
REMARK                            x       y       z     vdW  Elec       q    Type
REMARK                         _______ _______ _______ _____ _____    ______ ____
ROOT
ATOM      1  N   UNL     1      -1.390  -1.964  -0.383  0.00  0.00    -0.300 N 
ATOM      2  C   UNL     1      -2.527  -2.627  -0.672  0.00  0.00    +0.316 C 
ATOM      3  O   UNL     1      -3.577  -2.021  -0.768  0.00  0.00    -0.251 OA
ATOM      4  N   UNL     1      -2.501  -3.962  -0.854  0.00  0.00    -0.218 N 
ATOM      5  H   UNL     1      -0.553  -2.447  -0.306  0.00  0.00    +0.150 HD
ATOM      6  H   UNL     1      -3.319  -4.440  -1.061  0.00  0.00    +0.174 HD
ENDROOT
BRANCH   4   7
ATOM      7  N   UNL     1      -1.291  -4.661  -0.742  0.00  0.00    -0.233 N 
ATOM      8  C   UNL     1      -1.265  -5.996  -0.924  0.00  0.00    +0.229 C 
ATOM      9  O   UNL     1      -2.288  -6.593  -1.184  0.00  0.00    -0.274 OA
ATOM     10  H   UNL     1      -0.473  -4.183  -0.534  0.00  0.00    +0.173 HD
BRANCH   8  11
ATOM     11  C   UNL     1       0.036  -6.747  -0.804  0.00  0.00    +0.101 C 
BRANCH  11  12
ATOM     12  C   UNL     1      -0.210  -8.236  -1.054  0.00  0.00    -0.002 C 
ATOM     13  C   UNL     1      -0.665  -8.442  -2.501  0.00  0.00    +0.004 C 
ATOM     14  C   UNL     1      -0.911  -9.931  -2.751  0.00  0.00    +0.000 C 
ATOM     15  C   UNL     1       0.384 -10.710  -2.508  0.00  0.00    +0.000 C 
ATOM     16  C   UNL     1       0.839 -10.504  -1.061  0.00  0.00    +0.000 C 
ATOM     17  C   UNL     1       1.085  -9.015  -0.811  0.00  0.00    +0.004 C 
ENDBRANCH  11  12
ENDBRANCH   8  11
ENDBRANCH   4   7
BRANCH   1  18
ATOM     18  C   UNL     1      -1.419  -0.512  -0.186  0.00  0.00    +0.093 C 
BRANCH  18  20
ATOM     19  C   UNL     1       0.811  -0.206  -1.269  0.00  0.00    -0.008 C 
ATOM     20  C   UNL     1       0.008   0.003   0.015  0.00  0.00    -0.055 C 
ATOM     21  C   UNL     1      -0.032   1.495   0.354  0.00  0.00    -0.008 C 
BRANCH  20  22
ATOM     22  N   UNL     1       0.644  -0.732   1.117  0.00  0.00    +0.384 N 
ATOM     23  C   UNL     1      -0.154  -0.569   2.337  0.00  0.00    -0.078 C 
ATOM     24  C   UNL     1       0.459  -1.399   3.467  0.00  0.00    -0.019 C 
ATOM     25  C   UNL     1       1.891  -0.921   3.724  0.00  0.00    -0.004 C 
ATOM     26  C   UNL     1       2.695  -1.027   2.425  0.00  0.00    -0.019 C 
ATOM     27  C   UNL     1       1.998  -0.211   1.333  0.00  0.00    -0.078 C 
ATOM     28  H   UNL     1       0.695  -1.712   0.880  0.00  0.00    -0.081 HD
ENDBRANCH  20  22
ENDBRANCH  18  20
ENDBRANCH   1  18
TORSDOF 6
