REMARK  Name = ZINC39403997
REMARK  6 active torsions:
REMARK  status: ('A' for Active; 'I' for Inactive)
REMARK    1  A    between atoms: C_1  and  C_2
REMARK    2  A    between atoms: C_6  and  N_9
REMARK    3  A    between atoms: C_7  and  C_8
REMARK    4  A    between atoms: C_16  and  C_18
REMARK    5  A    between atoms: C_23  and  C_24
REMARK    6  A    between atoms: C_28  and  C_31
REMARK                            x       y       z     vdW  Elec       q    Type
REMARK                         _______ _______ _______ _____ _____    ______ ____
ROOT
ATOM      1  N   UNL     1      -2.022  -5.910   4.006  0.00  0.00    -0.285 N 
ATOM      2  C   UNL     1      -0.906  -5.775   3.221  0.00  0.00    +0.200 A 
ATOM      3  N   UNL     1       0.136  -5.021   3.668  0.00  0.00    -0.295 N 
ATOM      4  H   UNL     1       0.082  -4.587   4.533  0.00  0.00    +0.172 HD
ATOM      5  C   UNL     1       1.243  -4.877   2.909  0.00  0.00    +0.253 A 
ATOM      6  O   UNL     1       2.182  -4.204   3.303  0.00  0.00    -0.268 OA
ATOM      7  C   UNL     1       1.296  -5.514   1.662  0.00  0.00    +0.098 A 
ATOM      8  C   UNL     1       0.206  -6.271   1.253  0.00  0.00    +0.083 A 
ATOM      9  N   UNL     1      -0.864  -6.381   2.054  0.00  0.00    -0.215 NA
ATOM     10  H   UNL     1      -2.029  -5.546   4.905  0.00  0.00    +0.155 HD
ENDROOT
BRANCH   8  11
ATOM     11  C   UNL     1       0.227  -6.958  -0.058  0.00  0.00    +0.040 A 
ATOM     12  C   UNL     1       0.434  -6.240  -1.241  0.00  0.00    +0.126 A 
ATOM     13  N   UNL     1       0.447  -6.889  -2.390  0.00  0.00    -0.222 NA
ATOM     14  C   UNL     1       0.267  -8.202  -2.433  0.00  0.00    +0.218 A 
ATOM     15  N   UNL     1       0.067  -8.917  -1.334  0.00  0.00    -0.219 NA
ATOM     16  C   UNL     1       0.047  -8.342  -0.145  0.00  0.00    +0.052 A 
ATOM     17  C   UNL     1      -0.174  -9.165   1.098  0.00  0.00    +0.066 C 
ATOM     18  N   UNL     1       0.287  -8.843  -3.656  0.00  0.00    -0.300 N 
ATOM     19  C   UNL     1       0.085 -10.296  -3.743  0.00  0.00    +0.108 C 
ATOM     20  C   UNL     1       1.253 -10.910  -4.522  0.00  0.00    +0.022 C 
ATOM     21  C   UNL     1       1.380 -10.210  -5.878  0.00  0.00    -0.011 C 
ATOM     22  C   UNL     1       1.673  -8.724  -5.661  0.00  0.00    +0.022 C 
ATOM     23  C   UNL     1       0.505  -8.084  -4.895  0.00  0.00    +0.108 C 
ATOM     24  C   UNL     1       2.524 -10.844  -6.673  0.00  0.00    +0.007 C 
ENDBRANCH   8  11
BRANCH   1  30
ATOM     25  C   UNL     1      -5.989  -8.698   4.819  0.00  0.00    +0.044 C 
ATOM     26  C   UNL     1      -5.090  -7.932   3.883  0.00  0.00    -0.046 A 
ATOM     27  C   UNL     1      -5.381  -7.884   2.531  0.00  0.00    +0.004 A 
ATOM     28  C   UNL     1      -4.559  -7.182   1.669  0.00  0.00    +0.002 A 
ATOM     29  C   UNL     1      -3.445  -6.526   2.155  0.00  0.00    +0.023 A 
ATOM     30  C   UNL     1      -3.150  -6.572   3.511  0.00  0.00    +0.037 A 
ATOM     31  C   UNL     1      -3.981  -7.274   4.376  0.00  0.00    -0.026 A 
ATOM     32  C   UNL     1      -3.668  -7.321   5.849  0.00  0.00    +0.046 C 
ENDBRANCH   1  30
TORSDOF 2
