REMARK  Name = ZINC02131421
REMARK  9 active torsions:
REMARK  status: ('A' for Active; 'I' for Inactive)
REMARK    1  A    between atoms: C_1  and  C_2
REMARK    2  A    between atoms: C_2  and  C_3
REMARK    3  A    between atoms: C_3  and  C_4
REMARK    4  A    between atoms: C_4  and  N_53
REMARK    5  A    between atoms: C_5  and  N_53
REMARK    6  A    between atoms: C_6  and  C_7
REMARK    7  A    between atoms: C_6  and  N_53
REMARK    8  A    between atoms: C_8  and  O_30
REMARK    9  A    between atoms: C_17  and  C_18
REMARK                            x       y       z     vdW  Elec       q    Type
REMARK                         _______ _______ _______ _____ _____    ______ ____
ROOT
ATOM      1  C   UNL     1      -1.155   8.492   2.222  0.00  0.00    +0.020 A 
ATOM      2  C   UNL     1      -1.636   7.806   3.325  0.00  0.00    +0.122 A 
ATOM      3  C   UNL     1      -1.607   6.414   3.360  0.00  0.00    +0.046 A 
ATOM      4  C   UNL     1      -1.104   5.707   2.304  0.00  0.00    +0.016 A 
ATOM      5  C   UNL     1      -0.616   6.384   1.185  0.00  0.00    +0.026 A 
ATOM      6  C   UNL     1      -0.642   7.788   1.143  0.00  0.00    +0.144 A 
ATOM      7  O   UNL     1      -0.169   8.440   0.059  0.00  0.00    -0.422 OA
ATOM      8  C   UNL     1       0.335   7.786  -1.000  0.00  0.00    +0.338 A 
ATOM      9  O   UNL     1       0.748   8.427  -1.951  0.00  0.00    -0.245 OA
ATOM     10  C   UNL     1       0.403   6.386  -1.041  0.00  0.00    +0.101 A 
ATOM     11  C   UNL     1      -0.068   5.648   0.032  0.00  0.00    +0.006 A 
ENDROOT
BRANCH  11  12
ATOM     12  C   UNL     1      -0.018   4.174   0.025  0.00  0.00    +0.068 A 
ATOM     13  C   UNL     1       1.196   3.511   0.009  0.00  0.00    +0.027 A 
ATOM     14  C   UNL     1       1.199   2.093   0.002  0.00  0.00    +0.020 A 
ATOM     15  C   UNL     1       2.413   1.391  -0.013  0.00  0.00    +0.031 A 
ATOM     16  C   UNL     1       2.406   0.015  -0.020  0.00  0.00    +0.042 A 
ATOM     17  C   UNL     1       1.203  -0.680  -0.013  0.00  0.00    +0.023 A 
ATOM     18  C   UNL     1       0.002  -0.004   0.002  0.00  0.00    +0.048 A 
ATOM     19  C   UNL     1      -0.017   1.386   0.010  0.00  0.00    +0.139 A 
ATOM     20  O   UNL     1      -1.198   2.042   0.019  0.00  0.00    -0.422 OA
ATOM     21  C   UNL     1      -1.254   3.384   0.032  0.00  0.00    +0.345 A 
ATOM     22  O   UNL     1      -2.334   3.945   0.045  0.00  0.00    -0.245 OA
ATOM     23 CL   UNL     1       3.907  -0.857  -0.039  0.00  0.00    -0.084 Cl
ENDBRANCH  11  12
BRANCH   2  24
ATOM     24  O   UNL     1      -2.138   8.495   4.381  0.00  0.00    -0.506 OA
ATOM     25  H   UNL     1      -3.087   8.670   4.322  0.00  0.00    +0.292 HD
ENDBRANCH   2  24
BRANCH   1  26
ATOM     26  C   UNL     1      -1.191   9.998   2.194  0.00  0.00    -0.036 C 
BRANCH  26  28
ATOM     27  C   UNL     1      -2.556  10.069   0.195  0.00  0.00    -0.096 C 
ATOM     28  N   UNL     1      -2.484  10.434   1.626  0.00  0.00    +0.381 N 
ATOM     29  H   UNL     1      -3.245   9.963   2.129  0.00  0.00    -0.082 HD
BRANCH  28  30
ATOM     30  C   UNL     1      -2.638  11.896   1.783  0.00  0.00    -0.079 C 
BRANCH  30  31
ATOM     31  C   UNL     1      -4.065  12.286   1.395  0.00  0.00    -0.019 C 
BRANCH  31  33
ATOM     32  C   UNL     1      -5.675  14.185   1.185  0.00  0.00    +0.004 C 
ATOM     33  C   UNL     1      -4.247  13.795   1.573  0.00  0.00    -0.005 C 
ENDBRANCH  31  33
ENDBRANCH  30  31
ENDBRANCH  28  30
ENDBRANCH  26  28
ENDBRANCH   1  26
TORSDOF 7
