REMARK  Name = ZINC03051393
REMARK  7 active torsions:
REMARK  status: ('A' for Active; 'I' for Inactive)
REMARK    1  A    between atoms: C_10  and  C_11
REMARK    2  A    between atoms: N_13  and  C_14
REMARK    3  A    between atoms: C_14  and  C_16
REMARK    4  A    between atoms: C_14  and  N_20
REMARK    5  A    between atoms: N_20  and  C_21
REMARK    6  A    between atoms: C_21  and  N_23
REMARK    7  A    between atoms: N_23  and  C_24
REMARK                            x       y       z     vdW  Elec       q    Type
REMARK                         _______ _______ _______ _____ _____    ______ ____
ROOT
ATOM      1  C   UNL     1      -5.980   3.904  -0.259  0.00  0.00    +0.211 C 
ENDROOT
BRANCH   1   4
ATOM      2  C   UNL     1      -3.717   4.495  -0.940  0.00  0.00    +0.246 C 
ATOM      3  O   UNL     1      -4.020   5.667  -0.826  0.00  0.00    -0.270 OA
ATOM      4  N   UNL     1      -4.626   3.535  -0.679  0.00  0.00    -0.289 N 
ATOM      5  H   UNL     1      -4.351   2.475  -0.782  0.00  0.00    +0.151 HD
BRANCH   2  15
ATOM      6  C   UNL     1       0.408   7.037  -2.566  0.00  0.00    +0.001 A 
ATOM      7  C   UNL     1      -0.875   7.411  -2.171  0.00  0.00    +0.001 A 
ATOM      8  C   UNL     1      -1.786   6.479  -1.777  0.00  0.00    +0.009 A 
ATOM      9  C   UNL     1      -1.432   5.123  -1.767  0.00  0.00    -0.006 A 
ATOM     10  C   UNL     1      -0.129   4.740  -2.168  0.00  0.00    -0.017 A 
ATOM     11  C   UNL     1       0.786   5.729  -2.570  0.00  0.00    +0.008 A 
ATOM     12  C   UNL     1       0.228   3.381  -2.160  0.00  0.00    +0.008 A 
ATOM     13  C   UNL     1      -0.676   2.439  -1.768  0.00  0.00    +0.001 A 
ATOM     14  C   UNL     1      -1.960   2.794  -1.375  0.00  0.00    +0.013 A 
ATOM     15  C   UNL     1      -2.353   4.125  -1.363  0.00  0.00    +0.044 A 
ENDBRANCH   2  15
ENDBRANCH   1   4
BRANCH   1  16
ATOM     16  C   UNL     1      -7.000   3.063  -1.030  0.00  0.00    +0.225 C 
ATOM     17 CL   UNL     1      -6.719   1.315  -0.687  0.00  0.00    -0.080 Cl
ATOM     18 CL   UNL     1      -8.666   3.516  -0.512  0.00  0.00    -0.080 Cl
ATOM     19 CL   UNL     1      -6.816   3.365  -2.797  0.00  0.00    -0.080 Cl
ENDBRANCH   1  16
BRANCH   1  20
ATOM     20  N   UNL     1      -6.130   3.658   1.177  0.00  0.00    -0.305 N 
ATOM     21  H   UNL     1      -6.241   2.629   1.550  0.00  0.00    +0.150 HD
BRANCH  20  22
ATOM     22  C   UNL     1      -6.131   4.692   2.042  0.00  0.00    +0.136 C 
ATOM     23  S   UNL     1      -5.958   6.293   1.461  0.00  0.00    -0.019 S 
BRANCH  22  24
ATOM     24  N   UNL     1      -6.269   4.466   3.363  0.00  0.00    -0.297 N 
ATOM     25  H   UNL     1      -6.289   3.434   3.745  0.00  0.00    +0.154 HD
BRANCH  24  26
ATOM     26  C   UNL     1      -6.386   5.543   4.249  0.00  0.00    +0.033 A 
ATOM     27  C   UNL     1      -5.717   5.519   5.466  0.00  0.00    +0.026 A 
ATOM     28  C   UNL     1      -5.829   6.586   6.336  0.00  0.00    +0.040 A 
ATOM     29  C   UNL     1      -6.617   7.674   6.001  0.00  0.00    +0.124 A 
ATOM     30  C   UNL     1      -7.290   7.697   4.791  0.00  0.00    +0.040 A 
ATOM     31  C   UNL     1      -7.176   6.635   3.916  0.00  0.00    +0.026 A 
ATOM     32  F   UNL     1      -6.730   8.714   6.856  0.00  0.00    -0.205 F 
ENDBRANCH  24  26
ENDBRANCH  22  24
ENDBRANCH  20  22
ENDBRANCH   1  20
TORSDOF 7
