REMARK  Name = ZINC38784349
REMARK  8 active torsions:
REMARK  status: ('A' for Active; 'I' for Inactive)
REMARK    1  A    between atoms: C_1  and  C_2
REMARK    2  A    between atoms: C_2  and  C_4
REMARK    3  A    between atoms: C_7  and  N_10
REMARK    4  A    between atoms: C_11  and  C_13
REMARK    5  A    between atoms: C_13  and  C_14
REMARK    6  A    between atoms: C_22  and  C_24
REMARK    7  A    between atoms: C_24  and  N_25
REMARK    8  A    between atoms: N_28  and  C_31
REMARK                            x       y       z     vdW  Elec       q    Type
REMARK                         _______ _______ _______ _____ _____    ______ ____
ROOT
ATOM      1  C   UNL     1      -0.085  -6.349  -5.787  0.00  0.00    +0.170 C 
ATOM      2  C   UNL     1       0.030  -7.090  -7.091  0.00  0.00    +0.234 C 
ATOM      3  O   UNL     1       0.853  -6.713  -7.899  0.00  0.00    -0.274 OA
ATOM      4  N   UNL     1      -0.730  -8.141  -7.400  0.00  0.00    -0.312 N 
ATOM      5  C   UNL     1      -1.816  -8.647  -6.572  0.00  0.00    +0.123 C 
ATOM      6  C   UNL     1      -1.641  -8.207  -5.118  0.00  0.00    +0.127 C 
ATOM      7  N   UNL     1      -1.319  -6.769  -5.106  0.00  0.00    -0.289 N 
ATOM      8  C   UNL     1      -2.123  -5.874  -4.498  0.00  0.00    +0.200 C 
ATOM      9  O   UNL     1      -1.878  -4.689  -4.574  0.00  0.00    -0.278 OA
ATOM     10  H   UNL     1      -0.548  -8.600  -8.235  0.00  0.00    +0.149 HD
ENDROOT
BRANCH   1  11
ATOM     11  C   UNL     1      -0.133  -4.844  -6.054  0.00  0.00    +0.128 C 
BRANCH  11  13
ATOM     12  N   UNL     1      -1.514  -3.270  -7.372  0.00  0.00    -0.285 N 
ATOM     13  C   UNL     1      -1.324  -4.526  -6.921  0.00  0.00    +0.219 C 
ATOM     14  O   UNL     1      -2.112  -5.401  -7.213  0.00  0.00    -0.275 OA
ATOM     15  H   UNL     1      -0.850  -2.586  -7.193  0.00  0.00    +0.155 HD
BRANCH  12  19
ATOM     16  C   UNL     1      -4.946  -2.329  -9.526  0.00  0.00    +0.017 A 
ATOM     17  C   UNL     1      -4.385  -1.389  -8.652  0.00  0.00    +0.013 A 
ATOM     18  C   UNL     1      -3.254  -1.703  -7.944  0.00  0.00    +0.024 A 
ATOM     19  C   UNL     1      -2.663  -2.955  -8.093  0.00  0.00    +0.033 A 
ATOM     20  C   UNL     1      -3.217  -3.892  -8.960  0.00  0.00    +0.024 A 
ATOM     21  C   UNL     1      -4.351  -3.589  -9.668  0.00  0.00    +0.013 A 
BRANCH  16  23
ATOM     22  C   UNL     1      -6.796  -0.640 -10.131  0.00  0.00    +0.091 C 
ATOM     23  C   UNL     1      -6.158  -1.997 -10.286  0.00  0.00    +0.160 C 
ATOM     24  O   UNL     1      -6.645  -2.814 -11.038  0.00  0.00    -0.292 OA
ENDBRANCH  16  23
ENDBRANCH  12  19
ENDBRANCH  11  13
ENDBRANCH   1  11
BRANCH   8  25
ATOM     25  C   UNL     1      -3.328  -6.347  -3.726  0.00  0.00    +0.019 C 
BRANCH  25  26
ATOM     26  N   UNL     1      -4.035  -5.188  -3.164  0.00  0.00    +0.387 N 
ATOM     27  C   UNL     1      -3.171  -4.518  -2.184  0.00  0.00    -0.059 C 
ATOM     28  C   UNL     1      -3.861  -3.245  -1.683  0.00  0.00    +0.086 C 
ATOM     29  N   UNL     1      -5.192  -3.607  -1.171  0.00  0.00    -0.331 N 
ATOM     30  C   UNL     1      -6.066  -4.423  -2.028  0.00  0.00    +0.086 C 
ATOM     31  C   UNL     1      -5.271  -5.640  -2.514  0.00  0.00    -0.059 C 
ATOM     32  H   UNL     1      -4.262  -4.543  -3.905  0.00  0.00    -0.081 HD
BRANCH  29  33
ATOM     33  C   UNL     1      -5.614  -3.189   0.095  0.00  0.00    +0.065 A 
ATOM     34  C   UNL     1      -6.287  -1.983   0.240  0.00  0.00    +0.026 A 
ATOM     35  C   UNL     1      -6.704  -1.572   1.492  0.00  0.00    +0.002 A 
ATOM     36  C   UNL     1      -6.450  -2.360   2.600  0.00  0.00    +0.003 A 
ATOM     37  C   UNL     1      -5.780  -3.561   2.461  0.00  0.00    +0.040 A 
ATOM     38  C   UNL     1      -5.366  -3.982   1.210  0.00  0.00    +0.144 A 
ATOM     39  F   UNL     1      -4.716  -5.158   1.073  0.00  0.00    -0.204 F 
ENDBRANCH  29  33
ENDBRANCH  25  26
ENDBRANCH   8  25
TORSDOF 7
