REMARK  Name = ZINC08777883
REMARK  11 active torsions:
REMARK  status: ('A' for Active; 'I' for Inactive)
REMARK    1  A    between atoms: C_1  and  C_2
REMARK    2  A    between atoms: C_5  and  N_8
REMARK    3  A    between atoms: N_8  and  C_9
REMARK    4  A    between atoms: C_9  and  N_21
REMARK    5  A    between atoms: N_13  and  C_20
REMARK    6  A    between atoms: N_16  and  C_19
REMARK    7  A    between atoms: N_21  and  C_22
REMARK    8  A    between atoms: C_22  and  C_23
REMARK    9  A    between atoms: C_23  and  C_24
REMARK   10  A    between atoms: C_25  and  C_38
REMARK   11  A    between atoms: C_33  and  C_34
REMARK                            x       y       z     vdW  Elec       q    Type
REMARK                         _______ _______ _______ _____ _____    ______ ____
ROOT
ATOM      1  C   UNL     1       3.413  -5.436  -2.665  0.00  0.00    +0.105 C 
ATOM      2  C   UNL     1       4.179  -6.609  -2.644  0.00  0.00    +0.135 C 
ATOM      3  C   UNL     1       4.564  -7.208  -1.413  0.00  0.00    +0.262 C 
ATOM      4  O   UNL     1       4.233  -6.710  -0.353  0.00  0.00    -0.269 OA
ATOM      5  N   UNL     1       5.296  -8.340  -1.438  0.00  0.00    -0.224 N 
ATOM      6  C   UNL     1       5.671  -8.894  -2.603  0.00  0.00    +0.317 C 
ATOM      7  O   UNL     1       6.336  -9.911  -2.585  0.00  0.00    -0.252 OA
ATOM      8  N   UNL     1       5.334  -8.357  -3.788  0.00  0.00    -0.224 N 
ATOM      9  C   UNL     1       4.598  -7.229  -3.853  0.00  0.00    +0.262 C 
ATOM     10  O   UNL     1       4.296  -6.750  -4.931  0.00  0.00    -0.269 OA
ATOM     11  C   UNL     1       5.772  -9.006  -5.026  0.00  0.00    +0.143 C 
ATOM     12  C   UNL     1       5.694  -8.971  -0.177  0.00  0.00    +0.143 C 
ENDROOT
BRANCH   1  13
ATOM     13  N   UNL     1       2.979  -4.927  -3.852  0.00  0.00    -0.302 N 
ATOM     14  H   UNL     1       2.100  -5.162  -4.189  0.00  0.00    +0.153 HD
BRANCH  13  19
ATOM     15  C   UNL     1       6.311  -1.427  -6.824  0.00  0.00    +0.044 C 
ATOM     16  C   UNL     1       5.426  -2.357  -6.034  0.00  0.00    -0.050 A 
ATOM     17  C   UNL     1       4.140  -2.621  -6.470  0.00  0.00    +0.005 A 
ATOM     18  C   UNL     1       3.326  -3.473  -5.748  0.00  0.00    +0.023 A 
ATOM     19  C   UNL     1       3.801  -4.064  -4.585  0.00  0.00    +0.032 A 
ATOM     20  C   UNL     1       5.091  -3.793  -4.147  0.00  0.00    +0.023 A 
ATOM     21  C   UNL     1       5.901  -2.945  -4.876  0.00  0.00    +0.005 A 
ENDBRANCH  13  19
ENDBRANCH   1  13
BRANCH   1  22
ATOM     22  N   UNL     1       3.102  -4.805  -1.498  0.00  0.00    -0.331 N 
ATOM     23  H   UNL     1       3.343  -5.208  -0.650  0.00  0.00    +0.147 HD
BRANCH  22  24
ATOM     24  C   UNL     1       2.404  -3.518  -1.526  0.00  0.00    +0.107 C 
BRANCH  24  25
ATOM     25  C   UNL     1       2.286  -2.971  -0.102  0.00  0.00    +0.056 C 
BRANCH  25  26
ATOM     26  C   UNL     1       1.463  -1.708  -0.115  0.00  0.00    -0.018 A 
ATOM     27  C   UNL     1       0.124  -1.628  -0.063  0.00  0.00    +0.017 A 
ATOM     28  N   UNL     1      -0.266  -0.316  -0.095  0.00  0.00    -0.357 N 
ATOM     29  H   UNL     1      -1.185  -0.008  -0.069  0.00  0.00    +0.166 HD
ATOM     30  C   UNL     1       0.841   0.499  -0.170  0.00  0.00    +0.059 A 
ATOM     31  C   UNL     1       1.972  -0.337  -0.185  0.00  0.00    +0.004 A 
ATOM     32  C   UNL     1       3.250   0.221  -0.258  0.00  0.00    +0.010 A 
ATOM     33  C   UNL     1       3.395   1.579  -0.313  0.00  0.00    +0.001 A 
ATOM     34  C   UNL     1       2.282   2.408  -0.298  0.00  0.00    +0.014 A 
ATOM     35  C   UNL     1       1.012   1.879  -0.227  0.00  0.00    +0.079 A 
ATOM     36  C   UNL     1      -0.811  -2.807   0.018  0.00  0.00    +0.063 C 
BRANCH  35  37
ATOM     37  C   UNL     1      -0.188   2.790  -0.218  0.00  0.00    +0.419 C 
ATOM     38  F   UNL     1       0.237   4.121  -0.283  0.00  0.00    -0.166 F 
ATOM     39  F   UNL     1      -0.998   2.506  -1.322  0.00  0.00    -0.166 F 
ATOM     40  F   UNL     1      -0.917   2.590   0.959  0.00  0.00    -0.166 F 
ENDBRANCH  35  37
ENDBRANCH  25  26
ENDBRANCH  24  25
ENDBRANCH  22  24
ENDBRANCH   1  22
TORSDOF 7
