REMARK  Name = ZINC50359664
REMARK  7 active torsions:
REMARK  status: ('A' for Active; 'I' for Inactive)
REMARK    1  A    between atoms: C_1  and  C_2
REMARK    2  A    between atoms: C_2  and  C_3
REMARK    3  A    between atoms: C_2  and  C_4
REMARK    4  A    between atoms: N_6  and  C_7
REMARK    5  A    between atoms: C_10  and  N_13
REMARK    6  A    between atoms: N_13  and  C_14
REMARK    7  A    between atoms: C_14  and  C_15
REMARK                            x       y       z     vdW  Elec       q    Type
REMARK                         _______ _______ _______ _____ _____    ______ ____
ROOT
ATOM      1  C   UNL     1      -2.971  -2.286  -0.072  0.00  0.00    +0.034 A 
ATOM      2  C   UNL     1      -3.998  -1.356  -0.159  0.00  0.00    +0.025 A 
ATOM      3  C   UNL     1      -5.309  -1.781  -0.238  0.00  0.00    +0.025 A 
ATOM      4  C   UNL     1      -5.601  -3.139  -0.232  0.00  0.00    +0.028 A 
ATOM      5  C   UNL     1      -4.573  -4.069  -0.145  0.00  0.00    +0.025 A 
ATOM      6  C   UNL     1      -3.262  -3.643  -0.071  0.00  0.00    +0.025 A 
ENDROOT
BRANCH   1   9
ATOM      7  C   UNL     1      -0.664  -2.565  -0.591  0.00  0.00    +0.220 C 
ATOM      8  O   UNL     1      -0.924  -3.622  -1.126  0.00  0.00    -0.275 OA
ATOM      9  N   UNL     1      -1.640  -1.854   0.008  0.00  0.00    -0.285 N 
ATOM     10  H   UNL     1      -1.421  -1.044   0.494  0.00  0.00    +0.155 HD
BRANCH   7  12
ATOM     11  C   UNL     1       1.655  -3.037  -1.333  0.00  0.00    +0.017 C 
ATOM     12  C   UNL     1       0.751  -2.047  -0.594  0.00  0.00    +0.069 C 
ATOM     13  C   UNL     1       0.797  -0.691  -1.300  0.00  0.00    +0.017 C 
ENDBRANCH   7  12
ENDBRANCH   1   9
BRANCH   4  14
ATOM     14  N   UNL     1      -6.929  -3.570  -0.311  0.00  0.00    -0.337 N 
ATOM     15  H   UNL     1      -7.647  -2.920  -0.371  0.00  0.00    +0.147 HD
BRANCH  14  16
ATOM     16  C   UNL     1      -7.236  -5.002  -0.304  0.00  0.00    +0.176 C 
BRANCH  16  17
ATOM     17  C   UNL     1      -8.728  -5.197  -0.400  0.00  0.00    +0.124 A 
ATOM     18  C   UNL     1      -9.433  -5.324  -1.538  0.00  0.00    +0.062 A 
ATOM     19  C   UNL     1     -10.787  -5.487  -1.165  0.00  0.00    +0.070 A 
ATOM     20  C   UNL     1     -10.829  -5.449   0.181  0.00  0.00    +0.184 A 
ATOM     21  O   UNL     1      -9.577  -5.277   0.638  0.00  0.00    -0.450 OA
ATOM     22 BR   UNL     1     -12.383  -5.614   1.245  0.00  0.00    -0.007 Br
ATOM     23 BR   UNL     1     -12.258  -5.714  -2.332  0.00  0.00    -0.046 Br
ENDBRANCH  16  17
ENDBRANCH  14  16
ENDBRANCH   4  14
TORSDOF 5
