REMARK  Name = ZINC02858058
REMARK  8 active torsions:
REMARK  status: ('A' for Active; 'I' for Inactive)
REMARK    1  A    between atoms: C_1  and  C_2
REMARK    2  A    between atoms: C_9  and  N_15
REMARK    3  A    between atoms: C_10  and  C_11
REMARK    4  A    between atoms: C_11  and  O_13
REMARK    5  A    between atoms: O_13  and  C_14
REMARK    6  A    between atoms: N_15  and  C_16
REMARK    7  A    between atoms: C_16  and  N_18
REMARK    8  A    between atoms: N_18  and  C_19
REMARK                            x       y       z     vdW  Elec       q    Type
REMARK                         _______ _______ _______ _____ _____    ______ ____
ROOT
ATOM      1  N   UNL     1       2.337  -5.789  -1.687  0.00  0.00    -0.291 N 
ATOM      2  H   UNL     1       2.088  -6.496  -1.072  0.00  0.00    +0.154 HD
ENDROOT
BRANCH   1  10
ATOM      3  C   UNL     1       2.729   1.743   0.383  0.00  0.00    +0.008 C 
ATOM      4  C   UNL     1       2.261   0.289   0.288  0.00  0.00    -0.009 C 
ATOM      5  C   UNL     1       2.717  -0.479   1.532  0.00  0.00    +0.008 C 
ATOM      6  C   UNL     1       2.051  -1.856   1.566  0.00  0.00    +0.037 C 
ATOM      7  C   UNL     1       2.292  -2.550   0.231  0.00  0.00    -0.021 A 
ATOM      8  C   UNL     1       2.659  -1.848  -0.862  0.00  0.00    -0.004 A 
ATOM      9  S   UNL     1       2.818  -3.057  -2.146  0.00  0.00    -0.077 S 
ATOM     10  C   UNL     1       2.403  -4.478  -1.245  0.00  0.00    +0.086 A 
ATOM     11  C   UNL     1       2.151  -3.983   0.028  0.00  0.00    +0.091 A 
ATOM     12  C   UNL     1       2.879  -0.369  -0.954  0.00  0.00    +0.046 C 
BRANCH  11  13
ATOM     13  C   UNL     1       1.758  -4.870   1.124  0.00  0.00    +0.342 C 
ATOM     14  O   UNL     1       0.581  -5.103   1.326  0.00  0.00    -0.245 OA
BRANCH  13  15
ATOM     15  O   UNL     1       2.701  -5.429   1.910  0.00  0.00    -0.464 OA
ATOM     16  C   UNL     1       2.238  -6.298   2.978  0.00  0.00    +0.280 C 
ENDBRANCH  13  15
ENDBRANCH  11  13
ENDBRANCH   1  10
BRANCH   1  17
ATOM     17  C   UNL     1       2.619  -6.081  -2.973  0.00  0.00    +0.139 C 
ATOM     18  S   UNL     1       3.058  -4.832  -4.058  0.00  0.00    -0.018 S 
BRANCH  17  19
ATOM     19  N   UNL     1       2.555  -7.357  -3.403  0.00  0.00    -0.297 N 
ATOM     20  H   UNL     1       2.366  -8.072  -2.775  0.00  0.00    +0.154 HD
BRANCH  19  21
ATOM     21  C   UNL     1       2.761  -7.650  -4.755  0.00  0.00    +0.033 A 
ATOM     22  C   UNL     1       3.819  -7.068  -5.441  0.00  0.00    +0.023 A 
ATOM     23  C   UNL     1       4.017  -7.360  -6.775  0.00  0.00    +0.006 A 
ATOM     24  C   UNL     1       3.165  -8.232  -7.434  0.00  0.00    -0.044 A 
ATOM     25  C   UNL     1       2.111  -8.813  -6.753  0.00  0.00    -0.042 A 
ATOM     26  C   UNL     1       1.912  -8.527  -5.414  0.00  0.00    +0.027 A 
ATOM     27  C   UNL     1       1.336  -9.718  -7.688  0.00  0.00    +0.036 C 
ATOM     28  C   UNL     1       2.279  -9.967  -8.883  0.00  0.00    +0.009 C 
ATOM     29  C   UNL     1       3.170  -8.707  -8.871  0.00  0.00    +0.036 C 
ENDBRANCH  19  21
ENDBRANCH  17  19
ENDBRANCH   1  17
TORSDOF 6
