REMARK  Name = ZINC37368641
REMARK  9 active torsions:
REMARK  status: ('A' for Active; 'I' for Inactive)
REMARK    1  A    between atoms: C_1  and  C_2
REMARK    2  A    between atoms: C_2  and  C_3
REMARK    3  A    between atoms: C_3  and  C_4
REMARK    4  A    between atoms: C_4  and  C_5
REMARK    5  A    between atoms: C_5  and  C_6
REMARK    6  A    between atoms: C_6  and  O_7
REMARK    7  A    between atoms: O_7  and  C_8
REMARK    8  A    between atoms: C_9  and  S_16
REMARK    9  A    between atoms: S_16  and  N_19
REMARK                            x       y       z     vdW  Elec       q    Type
REMARK                         _______ _______ _______ _____ _____    ______ ____
ROOT
ATOM      1  C   UNL     1       2.251  -5.857  -3.871  0.00  0.00    +0.165 A 
ATOM      2  C   UNL     1       3.347  -6.534  -3.358  0.00  0.00    +0.149 A 
ATOM      3  C   UNL     1       3.453  -7.902  -3.524  0.00  0.00    +0.047 A 
ATOM      4  C   UNL     1       2.466  -8.596  -4.200  0.00  0.00    +0.021 A 
ATOM      5  C   UNL     1       1.371  -7.923  -4.713  0.00  0.00    +0.039 A 
ATOM      6  C   UNL     1       1.258  -6.556  -4.545  0.00  0.00    +0.086 A 
ATOM      7 CL   UNL     1      -0.119  -5.713  -5.181  0.00  0.00    -0.080 Cl
ATOM      8 BR   UNL     1       2.614 -10.468  -4.425  0.00  0.00    -0.050 Br
ENDROOT
BRANCH   2   9
ATOM      9  S   UNL     1       4.605  -5.651  -2.497  0.00  0.00    +0.060 S 
ATOM     10  O   UNL     1       3.945  -4.828  -1.545  0.00  0.00    -0.153 OA
ATOM     11  O   UNL     1       5.590  -6.606  -2.125  0.00  0.00    -0.153 OA
BRANCH   9  12
ATOM     12  N   UNL     1       5.322  -4.632  -3.587  0.00  0.00    -0.203 NA
ATOM     13  H   UNL     1       5.701  -3.790  -3.289  0.00  0.00    +0.144 HD
ATOM     14  H   UNL     1       5.363  -4.876  -4.525  0.00  0.00    +0.144 HD
ENDBRANCH   9  12
ENDBRANCH   2   9
BRANCH   1  15
ATOM     15  O   UNL     1       2.145  -4.511  -3.708  0.00  0.00    -0.489 OA
BRANCH  15  16
ATOM     16  C   UNL     1       1.476  -4.051  -2.532  0.00  0.00    +0.229 C 
BRANCH  16  17
ATOM     17  C   UNL     1       1.455  -2.521  -2.524  0.00  0.00    +0.041 C 
BRANCH  17  18
ATOM     18  C   UNL     1       0.739  -2.027  -1.265  0.00  0.00    +0.003 C 
BRANCH  18  19
ATOM     19  C   UNL     1       0.718  -0.497  -1.257  0.00  0.00    -0.000 C 
BRANCH  19  21
ATOM     20  C   UNL     1      -0.019   1.526   0.010  0.00  0.00    +0.004 C 
ATOM     21  C   UNL     1       0.002  -0.004   0.002  0.00  0.00    -0.003 C 
ENDBRANCH  19  21
ENDBRANCH  18  19
ENDBRANCH  17  18
ENDBRANCH  16  17
ENDBRANCH  15  16
ENDBRANCH   1  15
TORSDOF 8
