REMARK  Name = ZINC01793707
REMARK  14 active torsions:
REMARK  status: ('A' for Active; 'I' for Inactive)
REMARK    1  A    between atoms: C_1  and  O_2
REMARK    2  A    between atoms: O_2  and  C_3
REMARK    3  A    between atoms: C_5  and  C_13
REMARK    4  A    between atoms: C_7  and  O_11
REMARK    5  A    between atoms: C_8  and  O_9
REMARK    6  A    between atoms: O_9  and  C_10
REMARK    7  A    between atoms: O_11  and  C_12
REMARK    8  A    between atoms: C_13  and  C_15
REMARK    9  A    between atoms: C_20  and  N_21
REMARK   10  A    between atoms: N_21  and  C_22
REMARK   11  A    between atoms: C_23  and  C_24
REMARK   12  A    between atoms: C_23  and  C_26
REMARK   13  A    between atoms: C_28  and  C_31
REMARK   14  A    between atoms: C_35  and  N_37
REMARK                            x       y       z     vdW  Elec       q    Type
REMARK                         _______ _______ _______ _____ _____    ______ ____
ROOT
ATOM      1  C   UNL     1       4.792   0.080  -4.761  0.00  0.00    +0.045 A 
ATOM      2  C   UNL     1       5.087  -1.283  -4.821  0.00  0.00    +0.033 A 
ATOM      3  C   UNL     1       5.320  -1.885  -6.042  0.00  0.00    +0.042 A 
ATOM      4  C   UNL     1       5.263  -1.141  -7.212  0.00  0.00    +0.022 A 
ATOM      5  C   UNL     1       4.973   0.207  -7.170  0.00  0.00    +0.025 A 
ATOM      6  C   UNL     1       4.729   0.830  -5.949  0.00  0.00    +0.042 A 
ATOM      7 CL   UNL     1       5.686  -3.580  -6.113  0.00  0.00    -0.084 Cl
ENDROOT
BRANCH   1   8
ATOM      8  C   UNL     1       4.542   0.729  -3.460  0.00  0.00    +0.195 C 
ATOM      9  O   UNL     1       3.499   0.524  -2.869  0.00  0.00    -0.287 OA
BRANCH   8  12
ATOM     10  C   UNL     1       6.254   3.120  -1.123  0.00  0.00    +0.166 A 
ATOM     11  C   UNL     1       5.301   2.281  -1.668  0.00  0.00    +0.061 A 
ATOM     12  C   UNL     1       5.558   1.625  -2.875  0.00  0.00    +0.029 A 
ATOM     13  C   UNL     1       6.779   1.820  -3.528  0.00  0.00    +0.061 A 
ATOM     14  C   UNL     1       7.728   2.660  -2.978  0.00  0.00    +0.166 A 
ATOM     15  C   UNL     1       7.468   3.317  -1.778  0.00  0.00    +0.204 A 
BRANCH  10  17
ATOM     16  C   UNL     1       4.740   3.512   0.669  0.00  0.00    +0.277 C 
ATOM     17  O   UNL     1       6.005   3.759   0.052  0.00  0.00    -0.491 OA
ENDBRANCH  10  17
BRANCH  15  18
ATOM     18  O   UNL     1       8.401   4.146  -1.242  0.00  0.00    -0.488 OA
ATOM     19  C   UNL     1       9.350   3.563  -0.347  0.00  0.00    +0.277 C 
ENDBRANCH  15  18
BRANCH  14  20
ATOM     20  O   UNL     1       8.916   2.850  -3.613  0.00  0.00    -0.491 OA
ATOM     21  C   UNL     1       9.114   2.149  -4.842  0.00  0.00    +0.277 C 
ENDBRANCH  14  20
ENDBRANCH   8  12
ENDBRANCH   1   8
BRANCH   6  22
ATOM     22  N   UNL     1       4.432   2.182  -5.904  0.00  0.00    -0.319 N 
ATOM     23  H   UNL     1       4.295   2.620  -5.050  0.00  0.00    +0.152 HD
BRANCH  22  24
ATOM     24  C   UNL     1       4.335   2.880  -7.034  0.00  0.00    +0.093 C 
ATOM     25  C   UNL     1       3.927   4.236  -6.996  0.00  0.00    +0.098 C 
BRANCH  25  26
ATOM     26  C   UNL     1       3.401   4.776  -5.816  0.00  0.00    +0.120 A 
ATOM     27  N   UNL     1       3.113   6.057  -5.541  0.00  0.00    -0.238 NA
ATOM     28  C   UNL     1       2.626   6.365  -4.378  0.00  0.00    +0.079 A 
ATOM     29  C   UNL     1       2.422   5.257  -3.426  0.00  0.00    +0.075 A 
ATOM     30  S   UNL     1       2.944   3.927  -4.317  0.00  0.00    -0.074 S 
BRANCH  28  31
ATOM     31  C   UNL     1       2.293   7.758  -4.025  0.00  0.00    +0.003 A 
ATOM     32  C   UNL     1       1.775   8.058  -2.759  0.00  0.00    +0.010 A 
ATOM     33  C   UNL     1       1.467   9.361  -2.437  0.00  0.00    +0.003 A 
ATOM     34  C   UNL     1       1.668  10.374  -3.361  0.00  0.00    +0.033 A 
ATOM     35  C   UNL     1       2.181  10.085  -4.615  0.00  0.00    +0.127 A 
ATOM     36  C   UNL     1       2.499   8.787  -4.951  0.00  0.00    +0.042 A 
BRANCH  35  37
ATOM     37  N   UNL     1       2.392  11.175  -5.594  0.00  0.00    +0.056 N 
ATOM     38  O   UNL     1       2.093  12.416  -5.273  0.00  0.00    -0.126 OA
ATOM     39  O   UNL     1       2.879  10.902  -6.787  0.00  0.00    -0.126 OA
ENDBRANCH  35  37
ENDBRANCH  28  31
ENDBRANCH  25  26
BRANCH  25  40
ATOM     40  C   UNL     1       4.052   5.055  -8.164  0.00  0.00    +0.103 C 
ATOM     41  N   UNL     1       4.151   5.704  -9.091  0.00  0.00    -0.191 NA
ENDBRANCH  25  40
ENDBRANCH  22  24
ENDBRANCH   6  22
TORSDOF 11
