REMARK  Name = ZINC12601849
REMARK  8 active torsions:
REMARK  status: ('A' for Active; 'I' for Inactive)
REMARK    1  A    between atoms: C_1  and  N_2
REMARK    2  A    between atoms: N_2  and  C_3
REMARK    3  A    between atoms: N_2  and  C_10
REMARK    4  A    between atoms: C_3  and  C_4
REMARK    5  A    between atoms: C_10  and  C_11
REMARK    6  A    between atoms: C_20  and  C_22
REMARK    7  A    between atoms: C_22  and  N_23
REMARK    8  A    between atoms: N_26  and  C_27
REMARK                            x       y       z     vdW  Elec       q    Type
REMARK                         _______ _______ _______ _____ _____    ______ ____
ROOT
ATOM      1  C   UNL     1      -1.958  -0.188  -1.412  0.00  0.00    -0.011 C 
ATOM      2  C   UNL     1      -1.178  -0.881  -2.531  0.00  0.00    -0.073 C 
ATOM      3  N   UNL     1      -2.069  -1.758  -3.295  0.00  0.00    +0.383 N 
ATOM      4  C   UNL     1      -3.141  -0.982  -3.923  0.00  0.00    -0.078 C 
ATOM      5  C   UNL     1      -3.986  -0.291  -2.850  0.00  0.00    -0.015 C 
ATOM      6  C   UNL     1      -3.421  -0.645  -1.468  0.00  0.00    -0.012 C 
ATOM      7  C   UNL     1      -3.458  -2.171  -1.309  0.00  0.00    -0.010 C 
ATOM      8  C   UNL     1      -2.626  -2.804  -2.434  0.00  0.00    -0.051 C 
ATOM      9  H   UNL     1      -1.533  -2.198  -4.027  0.00  0.00    -0.081 HD
ENDROOT
BRANCH   1  10
ATOM     10  C   UNL     1      -1.354  -0.564  -0.057  0.00  0.00    +0.086 C 
BRANCH  10  12
ATOM     11  C   UNL     1      -0.004   1.442   0.058  0.00  0.00    +0.105 C 
ATOM     12  N   UNL     1       0.009  -0.027   0.038  0.00  0.00    -0.301 NA
BRANCH  12  13
ATOM     13  C   UNL     1       0.706  -0.562   1.215  0.00  0.00    +0.119 C 
BRANCH  13  14
ATOM     14  C   UNL     1       2.164  -0.190   1.149  0.00  0.00    -0.033 A 
ATOM     15  C   UNL     1       3.064  -1.028   0.517  0.00  0.00    +0.005 A 
ATOM     16  C   UNL     1       4.402  -0.685   0.456  0.00  0.00    +0.000 A 
ATOM     17  C   UNL     1       4.840   0.494   1.027  0.00  0.00    +0.000 A 
ATOM     18  C   UNL     1       3.941   1.333   1.659  0.00  0.00    +0.000 A 
ATOM     19  C   UNL     1       2.602   0.993   1.716  0.00  0.00    +0.005 A 
ENDBRANCH  13  14
ENDBRANCH  12  13
ENDBRANCH  10  12
ENDBRANCH   1  10
BRANCH   8  20
ATOM     20  C   UNL     1      -1.484  -3.621  -1.825  0.00  0.00    +0.090 C 
BRANCH  20  21
ATOM     21  N   UNL     1      -0.628  -4.138  -2.896  0.00  0.00    -0.301 N 
ATOM     22  C   UNL     1       0.448  -4.891  -2.595  0.00  0.00    +0.304 C 
ATOM     23  O   UNL     1       0.709  -5.141  -1.433  0.00  0.00    -0.253 OA
ATOM     24  N   UNL     1       1.236  -5.366  -3.580  0.00  0.00    -0.269 N 
ATOM     25  H   UNL     1      -0.836  -3.938  -3.822  0.00  0.00    +0.150 HD
ATOM     26  H   UNL     1       0.985  -5.233  -4.507  0.00  0.00    +0.156 HD
BRANCH  24  27
ATOM     27  C   UNL     1       2.422  -6.055  -3.262  0.00  0.00    +0.042 A 
ATOM     28  C   UNL     1       2.965  -6.970  -4.151  0.00  0.00    +0.031 A 
ATOM     29  C   UNL     1       4.108  -7.615  -3.812  0.00  0.00    +0.047 A 
ATOM     30  S   UNL     1       4.455  -6.936  -2.198  0.00  0.00    -0.103 S 
ATOM     31  C   UNL     1       3.057  -5.831  -2.082  0.00  0.00    +0.068 A 
ENDBRANCH  24  27
ENDBRANCH  20  21
ENDBRANCH   8  20
TORSDOF 7
