REMARK  Name = ZINC49117487
REMARK  8 active torsions:
REMARK  status: ('A' for Active; 'I' for Inactive)
REMARK    1  A    between atoms: C_1  and  C_2
REMARK    2  A    between atoms: C_2  and  C_3
REMARK    3  A    between atoms: C_6  and  N_9
REMARK    4  A    between atoms: N_9  and  C_10
REMARK    5  A    between atoms: C_10  and  C_12
REMARK    6  A    between atoms: C_10  and  C_13
REMARK    7  A    between atoms: C_17  and  S_19
REMARK    8  A    between atoms: S_19  and  N_22
REMARK                            x       y       z     vdW  Elec       q    Type
REMARK                         _______ _______ _______ _____ _____    ______ ____
ROOT
ATOM      1  C   UNL     1       3.523  -4.035  -3.755  0.00  0.00    -0.044 C 
ATOM      2  C   UNL     1       4.369  -4.540  -2.584  0.00  0.00    -0.009 C 
ENDROOT
BRANCH   1   3
ATOM      3  C   UNL     1       4.118  -4.522  -5.051  0.00  0.00    -0.060 A 
ATOM      4  C   UNL     1       5.210  -3.873  -5.597  0.00  0.00    +0.002 A 
ATOM      5  C   UNL     1       5.755  -4.320  -6.786  0.00  0.00    +0.002 A 
ATOM      6  C   UNL     1       5.210  -5.416  -7.428  0.00  0.00    +0.028 A 
ATOM      7  C   UNL     1       4.119  -6.065  -6.881  0.00  0.00    +0.105 A 
ATOM      8  C   UNL     1       3.576  -5.621  -5.690  0.00  0.00    +0.030 A 
BRANCH   7   9
ATOM      9  S   UNL     1       3.423  -7.462  -7.700  0.00  0.00    +0.056 S 
ATOM     10  O   UNL     1       2.073  -7.556  -7.266  0.00  0.00    -0.153 OA
ATOM     11  O   UNL     1       3.775  -7.345  -9.072  0.00  0.00    -0.153 OA
BRANCH   9  12
ATOM     12  N   UNL     1       4.201  -8.805  -7.124  0.00  0.00    -0.204 NA
ATOM     13  H   UNL     1       4.898  -8.713  -6.456  0.00  0.00    +0.144 HD
ATOM     14  H   UNL     1       3.960  -9.684  -7.454  0.00  0.00    +0.144 HD
ENDBRANCH   9  12
ENDBRANCH   7   9
ENDBRANCH   1   3
BRANCH   1  15
ATOM     15  N   UNL     1       3.503  -2.566  -3.747  0.00  0.00    +0.385 N 
ATOM     16  H   UNL     1       3.015  -2.232  -4.564  0.00  0.00    -0.085 HD
ATOM     17  H   UNL     1       4.450  -2.217  -3.754  0.00  0.00    -0.085 HD
BRANCH  15  21
ATOM     18  C   UNL     1       0.718  -0.497  -1.257  0.00  0.00    -0.011 C 
ATOM     19  C   UNL     1       2.187  -0.073  -1.207  0.00  0.00    +0.002 C 
ATOM     20  C   UNL     1       2.904  -0.566  -2.466  0.00  0.00    -0.015 C 
ATOM     21  C   UNL     1       2.816  -2.092  -2.538  0.00  0.00    -0.071 C 
ATOM     22  C   UNL     1       1.347  -2.517  -2.587  0.00  0.00    -0.015 C 
ATOM     23  C   UNL     1       0.630  -2.023  -1.329  0.00  0.00    +0.002 C 
BRANCH  18  25
ATOM     24  C   UNL     1      -0.019   1.526   0.010  0.00  0.00    +0.004 C 
ATOM     25  C   UNL     1       0.002  -0.004   0.002  0.00  0.00    -0.000 C 
ENDBRANCH  18  25
ENDBRANCH  15  21
ENDBRANCH   1  15
TORSDOF 6
