REMARK  Name = ZINC49403492
REMARK  8 active torsions:
REMARK  status: ('A' for Active; 'I' for Inactive)
REMARK    1  A    between atoms: C_1  and  C_2
REMARK    2  A    between atoms: C_2  and  C_3
REMARK    3  A    between atoms: C_10  and  C_12
REMARK    4  A    between atoms: C_12  and  N_13
REMARK    5  A    between atoms: N_16  and  C_19
REMARK    6  A    between atoms: C_22  and  C_25
REMARK    7  A    between atoms: C_25  and  C_26
REMARK    8  A    between atoms: C_25  and  C_27
REMARK                            x       y       z     vdW  Elec       q    Type
REMARK                         _______ _______ _______ _____ _____    ______ ____
ROOT
ATOM      1  N   UNL     1       4.154   2.217  -0.975  0.00  0.00    -0.275 N 
ATOM      2  C   UNL     1       4.489   1.762  -2.333  0.00  0.00    +0.129 C 
ATOM      3  C   UNL     1       4.557   3.066  -3.152  0.00  0.00    +0.134 C 
ATOM      4  N   UNL     1       4.253   4.116  -2.168  0.00  0.00    -0.254 N 
ATOM      5  C   UNL     1       4.034   3.551  -0.974  0.00  0.00    +0.310 C 
ATOM      6  O   UNL     1       3.756   4.191   0.022  0.00  0.00    -0.252 OA
ENDROOT
BRANCH   4   7
ATOM      7  C   UNL     1       4.195   5.488  -2.439  0.00  0.00    +0.038 A 
ATOM      8  C   UNL     1       3.789   6.376  -1.450  0.00  0.00    +0.024 A 
ATOM      9  C   UNL     1       3.734   7.729  -1.720  0.00  0.00    +0.006 A 
ATOM     10  C   UNL     1       4.081   8.200  -2.973  0.00  0.00    -0.045 A 
ATOM     11  C   UNL     1       4.486   7.319  -3.959  0.00  0.00    +0.006 A 
ATOM     12  C   UNL     1       4.548   5.965  -3.694  0.00  0.00    +0.024 A 
BRANCH  10  13
ATOM     13  C   UNL     1       4.019   9.678  -3.264  0.00  0.00    +0.013 C 
ATOM     14  C   UNL     1       5.409  10.178  -3.661  0.00  0.00    +0.012 C 
ATOM     15  C   UNL     1       3.039   9.931  -4.412  0.00  0.00    +0.012 C 
ENDBRANCH  10  13
ENDBRANCH   4   7
BRANCH   1  16
ATOM     16  C   UNL     1       3.974   1.347   0.191  0.00  0.00    +0.205 C 
BRANCH  16  23
ATOM     17  C   UNL     1       0.751  -0.396   1.326  0.00  0.00    +0.076 C 
ATOM     18  C   UNL     1       0.796  -1.922   1.450  0.00  0.00    +0.022 C 
ATOM     19  C   UNL     1       1.645  -2.306   2.664  0.00  0.00    +0.003 C 
ATOM     20  C   UNL     1       3.075  -1.796   2.470  0.00  0.00    +0.019 C 
ATOM     21  C   UNL     1       3.057  -0.268   2.357  0.00  0.00    +0.108 C 
ATOM     22  N   UNL     1       2.127   0.119   1.286  0.00  0.00    -0.297 N 
ATOM     23  C   UNL     1       2.530   0.926   0.285  0.00  0.00    +0.233 C 
ATOM     24  O   UNL     1       1.730   1.314  -0.541  0.00  0.00    -0.274 OA
BRANCH  17  26
ATOM     25  C   UNL     1      -1.397  -0.580   0.064  0.00  0.00    +0.006 C 
ATOM     26  C   UNL     1       0.021  -0.007   0.038  0.00  0.00    +0.019 C 
ENDBRANCH  17  26
ENDBRANCH  16  23
ENDBRANCH   1  16
TORSDOF 5
