REMARK  Name = ZINC53072514
REMARK  9 active torsions:
REMARK  status: ('A' for Active; 'I' for Inactive)
REMARK    1  A    between atoms: C_1  and  C_2
REMARK    2  A    between atoms: C_2  and  C_3
REMARK    3  A    between atoms: C_3  and  C_4
REMARK    4  A    between atoms: C_3  and  C_6
REMARK    5  A    between atoms: C_3  and  N_8
REMARK    6  A    between atoms: C_4  and  C_5
REMARK    7  A    between atoms: C_6  and  O_7
REMARK    8  A    between atoms: N_8  and  S_9
REMARK    9  A    between atoms: S_9  and  C_12
REMARK                            x       y       z     vdW  Elec       q    Type
REMARK                         _______ _______ _______ _____ _____    ______ ____
ROOT
ATOM      1  S   UNL     1      -1.302   0.291  -2.895  0.00  0.00    +0.062 S 
ATOM      2  O   UNL     1      -1.851   0.460  -1.595  0.00  0.00    -0.153 OA
ATOM      3  O   UNL     1      -1.626   1.154  -3.976  0.00  0.00    -0.153 OA
ENDROOT
BRANCH   1   4
ATOM      4  C   UNL     1      -1.722  -1.341  -3.411  0.00  0.00    +0.142 A 
ATOM      5  C   UNL     1      -1.475  -1.740  -4.713  0.00  0.00    +0.070 A 
ATOM      6  C   UNL     1      -1.804  -3.021  -5.117  0.00  0.00    +0.037 A 
ATOM      7  C   UNL     1      -2.379  -3.903  -4.221  0.00  0.00    +0.021 A 
ATOM      8  C   UNL     1      -2.625  -3.505  -2.919  0.00  0.00    +0.037 A 
ATOM      9  C   UNL     1      -2.292  -2.225  -2.513  0.00  0.00    +0.070 A 
ATOM     10 CL   UNL     1      -2.594  -1.727  -0.878  0.00  0.00    -0.081 Cl
ATOM     11 BR   UNL     1      -2.829  -5.655  -4.774  0.00  0.00    -0.050 Br
ATOM     12 CL   UNL     1      -0.754  -0.632  -5.838  0.00  0.00    -0.081 Cl
ENDBRANCH   1   4
BRANCH   1  13
ATOM     13  N   UNL     1       0.344   0.343  -2.724  0.00  0.00    -0.182 NA
ATOM     14  H   UNL     1       0.877   0.887  -3.324  0.00  0.00    +0.149 HD
BRANCH  13  15
ATOM     15  C   UNL     1       0.996  -0.434  -1.667  0.00  0.00    +0.062 C 
BRANCH  15  17
ATOM     16  C   UNL     1       0.500   1.458  -0.113  0.00  0.00    +0.006 C 
ATOM     17  C   UNL     1       0.395  -0.055  -0.312  0.00  0.00    +0.022 C 
ENDBRANCH  15  17
BRANCH  15  18
ATOM     18  C   UNL     1       2.495  -0.132  -1.662  0.00  0.00    +0.022 C 
ATOM     19  C   UNL     1       3.176  -0.944  -0.558  0.00  0.00    +0.006 C 
ENDBRANCH  15  18
BRANCH  15  20
ATOM     20  C   UNL     1       0.776  -1.927  -1.922  0.00  0.00    +0.179 C 
BRANCH  20  21
ATOM     21  O   UNL     1       1.223  -2.256  -3.239  0.00  0.00    -0.393 OA
ATOM     22  H   UNL     1       1.114  -3.188  -3.470  0.00  0.00    +0.209 HD
ENDBRANCH  20  21
ENDBRANCH  15  20
ENDBRANCH  13  15
ENDBRANCH   1  13
TORSDOF 7
