REMARK  Name = ZINC12545897
REMARK  5 active torsions:
REMARK  status: ('A' for Active; 'I' for Inactive)
REMARK    1  A    between atoms: C_1  and  O_2
REMARK    2  A    between atoms: O_2  and  C_3
REMARK    3  A    between atoms: C_6  and  S_10
REMARK    4  A    between atoms: S_10  and  N_13
REMARK    5  A    between atoms: N_13  and  N_14
REMARK                            x       y       z     vdW  Elec       q    Type
REMARK                         _______ _______ _______ _____ _____    ______ ____
ROOT
ATOM      1  N   UNL     1      -0.326   7.913   0.049  0.00  0.00    -0.109 NA
ATOM      2  H   UNL     1      -0.983   7.707  -0.634  0.00  0.00    +0.172 HD
ENDROOT
BRANCH   1   3
ATOM      3  N   UNL     1       0.922   7.277   0.034  0.00  0.00    -0.246 N 
ATOM      4  C   UNL     1       0.996   5.893   0.025  0.00  0.00    +0.134 A 
ATOM      5  C   UNL     1       2.254   5.273   0.010  0.00  0.00    +0.045 A 
ATOM      6  C   UNL     1       2.342   3.914   0.001  0.00  0.00    +0.013 A 
ATOM      7  C   UNL     1       1.145   3.167   0.008  0.00  0.00    +0.001 A 
ATOM      8  C   UNL     1       1.163   1.764   0.000  0.00  0.00    +0.010 A 
ATOM      9  C   UNL     1      -0.013   1.076   0.008  0.00  0.00    +0.001 A 
ATOM     10  C   UNL     1      -1.233   1.747   0.017  0.00  0.00    +0.002 A 
ATOM     11  C   UNL     1      -1.286   3.107   0.030  0.00  0.00    +0.028 A 
ATOM     12  C   UNL     1      -0.094   3.852   0.023  0.00  0.00    +0.073 A 
ATOM     13  N   UNL     1      -0.118   5.189   0.031  0.00  0.00    -0.231 NA
ATOM     14  H   UNL     1       1.736   7.806   0.029  0.00  0.00    +0.169 HD
ENDBRANCH   1   3
BRANCH   1  15
ATOM     15  S   UNL     1      -0.680   9.014   1.234  0.00  0.00    +0.074 S 
ATOM     16  O   UNL     1      -1.940   9.580   0.899  0.00  0.00    -0.152 OA
ATOM     17  O   UNL     1      -0.443   8.366   2.475  0.00  0.00    -0.152 OA
BRANCH  15  21
ATOM     18  C   UNL     1       2.365  12.351   0.914  0.00  0.00    +0.134 A 
ATOM     19  C   UNL     1       2.619  11.254   1.723  0.00  0.00    +0.048 A 
ATOM     20  C   UNL     1       1.686  10.239   1.823  0.00  0.00    +0.032 A 
ATOM     21  C   UNL     1       0.504  10.312   1.109  0.00  0.00    +0.108 A 
ATOM     22  C   UNL     1       0.248  11.405   0.302  0.00  0.00    +0.047 A 
ATOM     23  C   UNL     1       1.175  12.425   0.202  0.00  0.00    +0.061 A 
ATOM     24 BR   UNL     1       0.825  13.919  -0.902  0.00  0.00    -0.046 Br
BRANCH  18  26
ATOM     25  C   UNL     1       4.480  13.209   1.579  0.00  0.00    +0.277 C 
ATOM     26  O   UNL     1       3.279  13.353   0.818  0.00  0.00    -0.494 OA
ENDBRANCH  18  26
ENDBRANCH  15  21
ENDBRANCH   1  15
TORSDOF 4
