REMARK  Name = ZINC42334095
REMARK  10 active torsions:
REMARK  status: ('A' for Active; 'I' for Inactive)
REMARK    1  A    between atoms: C_1  and  C_2
REMARK    2  A    between atoms: C_5  and  N_26
REMARK    3  A    between atoms: C_6  and  N_9
REMARK    4  A    between atoms: C_7  and  C_8
REMARK    5  A    between atoms: C_10  and  C_12
REMARK    6  A    between atoms: C_12  and  C_14
REMARK    7  A    between atoms: C_12  and  N_15
REMARK    8  A    between atoms: N_15  and  C_16
REMARK    9  A    between atoms: C_16  and  C_18
REMARK   10  A    between atoms: C_16  and  C_19
REMARK                            x       y       z     vdW  Elec       q    Type
REMARK                         _______ _______ _______ _____ _____    ______ ____
ROOT
ATOM      1  N   UNL     1      -0.362  -2.408   2.645  0.00  0.00    -0.282 N 
ATOM      2  C   UNL     1       0.115  -3.655   2.829  0.00  0.00    +0.234 C 
ATOM      3  O   UNL     1       0.599  -4.263   1.899  0.00  0.00    -0.274 OA
ATOM      4  H   UNL     1      -0.821  -1.952   3.368  0.00  0.00    +0.155 HD
ENDROOT
BRANCH   1  10
ATOM      5  C   UNL     1      -0.908  -2.430  -2.241  0.00  0.00    +0.044 C 
ATOM      6  C   UNL     1      -0.449  -1.758  -0.973  0.00  0.00    -0.046 A 
ATOM      7  C   UNL     1       0.141  -0.508  -1.029  0.00  0.00    +0.006 A 
ATOM      8  C   UNL     1       0.564   0.112   0.132  0.00  0.00    +0.035 A 
ATOM      9  C   UNL     1       0.399  -0.515   1.352  0.00  0.00    +0.148 A 
ATOM     10  C   UNL     1      -0.193  -1.770   1.411  0.00  0.00    +0.067 A 
ATOM     11  C   UNL     1      -0.622  -2.388   0.244  0.00  0.00    -0.024 A 
ATOM     12  C   UNL     1      -1.270  -3.747   0.304  0.00  0.00    +0.046 C 
BRANCH   9  13
ATOM     13  N   UNL     1       0.853   0.149   2.594  0.00  0.00    +0.058 N 
ATOM     14  O   UNL     1       1.444   1.203   2.535  0.00  0.00    -0.126 OA
ATOM     15  O   UNL     1       0.634  -0.361   3.668  0.00  0.00    -0.126 OA
ENDBRANCH   9  13
ENDBRANCH   1  10
BRANCH   2  16
ATOM     16  C   UNL     1       0.045  -4.294   4.192  0.00  0.00    +0.138 C 
ATOM     17  C   UNL     1      -1.416  -4.387   4.638  0.00  0.00    +0.034 C 
BRANCH  16  18
ATOM     18  N   UNL     1       0.624  -5.643   4.131  0.00  0.00    -0.299 NA
ATOM     19  H   UNL     1       0.175  -6.260   4.791  0.00  0.00    +0.123 HD
BRANCH  18  20
ATOM     20  C   UNL     1       2.076  -5.603   4.351  0.00  0.00    +0.081 C 
ATOM     21  C   UNL     1       2.366  -5.675   5.852  0.00  0.00    +0.029 C 
BRANCH  20  22
ATOM     22  C   UNL     1       2.722  -6.774   3.658  0.00  0.00    -0.029 A 
ATOM     23  C   UNL     1       2.108  -8.013   3.676  0.00  0.00    +0.005 A 
ATOM     24  C   UNL     1       2.700  -9.088   3.041  0.00  0.00    +0.002 A 
ATOM     25  C   UNL     1       3.906  -8.925   2.386  0.00  0.00    +0.020 A 
ATOM     26  C   UNL     1       4.521  -7.686   2.367  0.00  0.00    +0.041 A 
ATOM     27  C   UNL     1       3.925  -6.609   2.998  0.00  0.00    +0.025 A 
ATOM     28 CL   UNL     1       6.036  -7.481   1.545  0.00  0.00    -0.084 Cl
ENDBRANCH  20  22
ENDBRANCH  18  20
ENDBRANCH  16  18
ENDBRANCH   2  16
TORSDOF 6
