REMARK  Name = ZINC12372017
REMARK  12 active torsions:
REMARK  status: ('A' for Active; 'I' for Inactive)
REMARK    1  A    between atoms: C_1  and  C_2
REMARK    2  A    between atoms: C_3  and  C_25
REMARK    3  A    between atoms: C_6  and  N_10
REMARK    4  A    between atoms: C_7  and  C_8
REMARK    5  A    between atoms: C_11  and  C_13
REMARK    6  A    between atoms: C_13  and  S_14
REMARK    7  A    between atoms: S_14  and  C_15
REMARK    8  A    between atoms: C_21  and  O_23
REMARK    9  A    between atoms: O_23  and  C_24
REMARK   10  A    between atoms: C_25  and  C_26
REMARK   11  A    between atoms: C_26  and  S_27
REMARK   12  A    between atoms: S_27  and  C_28
REMARK                            x       y       z     vdW  Elec       q    Type
REMARK                         _______ _______ _______ _____ _____    ______ ____
ROOT
ATOM      1  N   UNL     1       0.527  -1.248   5.152  0.00  0.00    -0.270 N 
ATOM      2  C   UNL     1      -0.401  -2.220   5.055  0.00  0.00    +0.229 C 
ATOM      3  O   UNL     1      -1.221  -2.189   4.162  0.00  0.00    -0.275 OA
ATOM      4  H   UNL     1       1.183  -1.272   5.866  0.00  0.00    +0.156 HD
ENDROOT
BRANCH   1  10
ATOM      5  C   UNL     1       1.732   2.946   2.601  0.00  0.00    +0.047 C 
ATOM      6  C   UNL     1       1.061   1.675   3.057  0.00  0.00    -0.011 A 
ATOM      7  C   UNL     1       0.000   1.080   2.488  0.00  0.00    +0.022 A 
ATOM      8  N   UNL     1      -0.311  -0.055   3.187  0.00  0.00    -0.345 N 
ATOM      9  H   UNL     1      -1.038  -0.660   2.969  0.00  0.00    +0.167 HD
ATOM     10  C   UNL     1       0.544  -0.211   4.230  0.00  0.00    +0.121 A 
ATOM     11  C   UNL     1       1.438   0.850   4.211  0.00  0.00    +0.094 A 
BRANCH  11  12
ATOM     12  C   UNL     1       2.513   1.089   5.127  0.00  0.00    +0.103 C 
ATOM     13  N   UNL     1       3.365   1.278   5.854  0.00  0.00    -0.191 NA
ENDBRANCH  11  12
BRANCH   7  14
ATOM     14  C   UNL     1      -0.729   1.579   1.267  0.00  0.00    +0.064 C 
BRANCH  14  15
ATOM     15  C   UNL     1      -0.013   1.086   0.008  0.00  0.00    +0.075 C 
BRANCH  15  16
ATOM     16  S   UNL     1      -0.890   1.687  -1.462  0.00  0.00    -0.164 S 
ATOM     17  C   UNL     1       0.072   1.024  -2.849  0.00  0.00    +0.084 C 
ENDBRANCH  15  16
ENDBRANCH  14  15
ENDBRANCH   7  14
ENDBRANCH   1  10
BRANCH   2  18
ATOM     18  C   UNL     1      -0.419  -3.346   6.057  0.00  0.00    +0.173 C 
BRANCH  18  19
ATOM     19  S   UNL     1      -1.771  -4.483   5.662  0.00  0.00    -0.078 S 
BRANCH  19  20
ATOM     20  C   UNL     1      -1.564  -5.665   6.952  0.00  0.00    +0.173 A 
ATOM     21  N   UNL     1      -2.414  -6.726   7.028  0.00  0.00    -0.302 N 
ATOM     22  H   UNL     1      -3.125  -6.825   6.375  0.00  0.00    +0.171 HD
ATOM     23  C   UNL     1      -2.266  -7.643   8.007  0.00  0.00    +0.256 A 
ATOM     24  O   UNL     1      -3.020  -8.600   8.081  0.00  0.00    -0.268 OA
ATOM     25  C   UNL     1      -1.236  -7.474   8.940  0.00  0.00    +0.137 A 
ATOM     26  C   UNL     1      -0.403  -6.374   8.821  0.00  0.00    +0.222 A 
ATOM     27  N   UNL     1      -0.593  -5.501   7.828  0.00  0.00    -0.189 NA
BRANCH  26  28
ATOM     28  O   UNL     1       0.602  -6.185   9.708  0.00  0.00    -0.479 OA
ATOM     29  C   UNL     1       1.421  -5.029   9.522  0.00  0.00    +0.279 C 
ENDBRANCH  26  28
ENDBRANCH  19  20
ENDBRANCH  18  19
ENDBRANCH   2  18
TORSDOF 9
