REMARK  Name = ZINC01800148
REMARK  5 active torsions:
REMARK  status: ('A' for Active; 'I' for Inactive)
REMARK    1  A    between atoms: C_1  and  C_2
REMARK    2  A    between atoms: N_13  and  C_27
REMARK    3  A    between atoms: C_16  and  S_19
REMARK    4  A    between atoms: S_19  and  C_20
REMARK    5  A    between atoms: C_20  and  C_21
REMARK                            x       y       z     vdW  Elec       q    Type
REMARK                         _______ _______ _______ _____ _____    ______ ____
ROOT
ATOM      1  C   UNL     1      -6.353   5.077  -2.353  0.00  0.00    +0.008 C 
ATOM      2  C   UNL     1      -5.218   4.069  -2.166  0.00  0.00    -0.009 C 
ATOM      3  C   UNL     1      -5.766   2.792  -1.523  0.00  0.00    +0.008 C 
ATOM      4  C   UNL     1      -4.702   1.693  -1.557  0.00  0.00    +0.037 C 
ATOM      5  C   UNL     1      -3.419   2.240  -0.944  0.00  0.00    -0.023 A 
ATOM      6  C   UNL     1      -3.211   3.568  -0.836  0.00  0.00    -0.004 A 
ATOM      7  S   UNL     1      -1.609   3.716  -0.098  0.00  0.00    -0.074 S 
ATOM      8  C   UNL     1      -1.220   2.042   0.045  0.00  0.00    +0.102 A 
ATOM      9  C   UNL     1      -2.333   1.382  -0.467  0.00  0.00    +0.075 A 
ATOM     10  C   UNL     1      -2.273  -0.098  -0.469  0.00  0.00    +0.268 A 
ATOM     11  O   UNL     1      -3.208  -0.747  -0.903  0.00  0.00    -0.266 OA
ATOM     12  N   UNL     1      -1.184  -0.721   0.011  0.00  0.00    -0.245 N 
ATOM     13  C   UNL     1      -0.105  -0.010   0.511  0.00  0.00    +0.245 A 
ATOM     14  N   UNL     1      -0.126   1.361   0.530  0.00  0.00    -0.249 N 
ATOM     15  C   UNL     1       1.056   1.790   1.073  0.00  0.00    +0.198 A 
ATOM     16  N   UNL     1       1.773   0.735   1.373  0.00  0.00    -0.120 NA
ATOM     17  N   UNL     1       1.039  -0.404   1.019  0.00  0.00    -0.109 NA
ATOM     18  C   UNL     1      -4.145   4.666  -1.244  0.00  0.00    +0.046 C 
ENDROOT
BRANCH  12  19
ATOM     19  C   UNL     1      -1.138  -2.120   0.004  0.00  0.00    +0.053 A 
ATOM     20  C   UNL     1      -0.623  -2.795  -1.095  0.00  0.00    +0.026 A 
ATOM     21  C   UNL     1      -0.575  -4.175  -1.097  0.00  0.00    +0.002 A 
ATOM     22  C   UNL     1      -1.048  -4.886  -0.009  0.00  0.00    +0.000 A 
ATOM     23  C   UNL     1      -1.565  -4.218   1.086  0.00  0.00    +0.002 A 
ATOM     24  C   UNL     1      -1.612  -2.837   1.095  0.00  0.00    +0.026 A 
ENDBRANCH  12  19
BRANCH  15  25
ATOM     25  S   UNL     1       1.530   3.469   1.322  0.00  0.00    -0.081 S 
BRANCH  25  26
ATOM     26  C   UNL     1       3.181   3.353   2.065  0.00  0.00    +0.112 C 
BRANCH  26  27
ATOM     27  C   UNL     1       3.710   4.738   2.333  0.00  0.00    -0.037 A 
ATOM     28  C   UNL     1       4.450   5.394   1.367  0.00  0.00    +0.004 A 
ATOM     29  C   UNL     1       4.931   6.667   1.611  0.00  0.00    +0.000 A 
ATOM     30  C   UNL     1       4.681   7.279   2.825  0.00  0.00    +0.000 A 
ATOM     31  C   UNL     1       3.946   6.621   3.792  0.00  0.00    +0.000 A 
ATOM     32  C   UNL     1       3.460   5.351   3.546  0.00  0.00    +0.004 A 
ENDBRANCH  26  27
ENDBRANCH  25  26
ENDBRANCH  15  25
TORSDOF 4
