REMARK  Name = ZINC61992922
REMARK  7 active torsions:
REMARK  status: ('A' for Active; 'I' for Inactive)
REMARK    1  A    between atoms: C_1  and  O_2
REMARK    2  A    between atoms: O_2  and  C_3
REMARK    3  A    between atoms: C_6  and  C_9
REMARK    4  A    between atoms: N_10  and  N_11
REMARK    5  A    between atoms: C_12  and  C_14
REMARK    6  A    between atoms: C_14  and  N_15
REMARK    7  A    between atoms: C_22  and  C_32
REMARK                            x       y       z     vdW  Elec       q    Type
REMARK                         _______ _______ _______ _____ _____    ______ ____
ROOT
ATOM      1  N   UNL     1      -7.419  -8.068   0.045  0.00  0.00    -0.284 NA
ATOM      2  C   UNL     1      -6.809  -8.508  -1.218  0.00  0.00    +0.107 C 
ATOM      3  C   UNL     1      -6.236  -9.926  -1.096  0.00  0.00    +0.137 C 
ATOM      4  N   UNL     1      -7.268 -10.788  -0.499  0.00  0.00    -0.341 N 
ATOM      5  C   UNL     1      -7.350 -12.147  -0.438  0.00  0.00    +0.050 A 
ATOM      6  C   UNL     1      -6.525 -13.153  -0.934  0.00  0.00    +0.027 A 
ATOM      7  C   UNL     1      -6.903 -14.461  -0.687  0.00  0.00    +0.006 A 
ATOM      8  C   UNL     1      -8.050 -14.776   0.021  0.00  0.00    -0.044 A 
ATOM      9  C   UNL     1      -8.886 -13.809   0.521  0.00  0.00    +0.014 A 
ATOM     10  C   UNL     1      -8.534 -12.476   0.288  0.00  0.00    +0.004 A 
ATOM     11  C   UNL     1      -9.146 -11.223   0.639  0.00  0.00    -0.017 A 
ATOM     12  C   UNL     1      -8.357 -10.256   0.132  0.00  0.00    +0.040 A 
ATOM     13  C   UNL     1      -8.684  -8.789   0.293  0.00  0.00    +0.104 C 
ATOM     14  C   UNL     1      -9.164  -8.565   1.718  0.00  0.00    +0.025 C 
ATOM     15  C   UNL     1     -10.049  -9.639   2.300  0.00  0.00    +0.007 C 
ATOM     16  C   UNL     1     -10.377 -10.826   1.407  0.00  0.00    +0.037 C 
ENDROOT
BRANCH   8  17
ATOM     17  C   UNL     1      -8.393 -16.225   0.250  0.00  0.00    +0.019 C 
ATOM     18  C   UNL     1      -7.262 -16.899   1.031  0.00  0.00    +0.008 C 
ATOM     19  C   UNL     1      -7.609 -18.371   1.263  0.00  0.00    +0.001 C 
ATOM     20  C   UNL     1      -7.786 -19.072  -0.085  0.00  0.00    +0.000 C 
ATOM     21  C   UNL     1      -8.916 -18.398  -0.866  0.00  0.00    +0.001 C 
ATOM     22  C   UNL     1      -8.569 -16.927  -1.098  0.00  0.00    +0.008 C 
ENDBRANCH   8  17
BRANCH   1  23
ATOM     23  C   UNL     1      -7.631  -6.615   0.049  0.00  0.00    +0.182 C 
BRANCH  23  25
ATOM     24  N   UNL     1      -6.246  -4.566   0.041  0.00  0.00    -0.206 N 
ATOM     25  C   UNL     1      -6.298  -5.912   0.040  0.00  0.00    +0.246 C 
ATOM     26  O   UNL     1      -5.272  -6.559   0.031  0.00  0.00    -0.273 OA
ATOM     27  H   UNL     1      -7.066  -4.048   0.048  0.00  0.00    +0.177 HD
BRANCH  24  29
ATOM     28  C   UNL     1      -4.956  -2.616   0.034  0.00  0.00    +0.138 C 
ATOM     29  N   UNL     1      -5.006  -3.913   0.033  0.00  0.00    -0.188 NA
BRANCH  28  33
ATOM     30  C   UNL     1      -1.200  -0.637   0.010  0.00  0.00    +0.120 A 
ATOM     31  C   UNL     1      -2.373   0.105   0.019  0.00  0.00    +0.046 A 
ATOM     32  C   UNL     1      -3.595  -0.532   0.027  0.00  0.00    +0.013 A 
ATOM     33  C   UNL     1      -3.651  -1.929   0.026  0.00  0.00    -0.005 A 
ATOM     34  C   UNL     1      -2.468  -2.672   0.016  0.00  0.00    +0.013 A 
ATOM     35  C   UNL     1      -1.251  -2.025   0.003  0.00  0.00    +0.046 A 
BRANCH  30  37
ATOM     36  C   UNL     1      -0.017   1.425   0.010  0.00  0.00    +0.277 C 
ATOM     37  O   UNL     1       0.002  -0.004   0.002  0.00  0.00    -0.495 OA
ENDBRANCH  30  37
ENDBRANCH  28  33
ENDBRANCH  24  29
ENDBRANCH  23  25
ENDBRANCH   1  23
TORSDOF 6
