REMARK  Name = ZINC32526792
REMARK  11 active torsions:
REMARK  status: ('A' for Active; 'I' for Inactive)
REMARK    1  A    between atoms: C_1  and  C_2
REMARK    2  A    between atoms: C_2  and  C_3
REMARK    3  A    between atoms: C_3  and  C_4
REMARK    4  A    between atoms: C_4  and  C_5
REMARK    5  A    between atoms: C_8  and  N_11
REMARK    6  A    between atoms: C_12  and  C_14
REMARK    7  A    between atoms: C_14  and  C_16
REMARK    8  A    between atoms: C_14  and  N_18
REMARK    9  A    between atoms: C_16  and  C_17
REMARK   10  A    between atoms: C_22  and  C_30
REMARK   11  A    between atoms: C_25  and  C_29
REMARK                            x       y       z     vdW  Elec       q    Type
REMARK                         _______ _______ _______ _____ _____    ______ ____
ROOT
ATOM      1  C   UNL     1       0.783  -0.058  -0.401  0.00  0.00    +0.176 C 
ENDROOT
BRANCH   1   2
ATOM      2  N   UNL     1       1.012   1.361  -0.118  0.00  0.00    -0.296 N 
ATOM      3  C   UNL     1       1.942   1.715   0.786  0.00  0.00    +0.253 A 
ATOM      4  O   UNL     1       2.579   0.846   1.354  0.00  0.00    -0.268 OA
ATOM      5  C   UNL     1       2.199   3.069   1.092  0.00  0.00    +0.074 A 
ATOM      6  C   UNL     1       1.503   4.054   0.473  0.00  0.00    -0.036 A 
ATOM      7  C   UNL     1       0.488   3.679  -0.513  0.00  0.00    +0.002 A 
ATOM      8  C   UNL     1       0.274   2.314  -0.787  0.00  0.00    +0.056 A 
ATOM      9  C   UNL     1      -0.693   1.948  -1.718  0.00  0.00    -0.026 A 
ATOM     10  C   UNL     1      -1.419   2.923  -2.369  0.00  0.00    +0.005 A 
ATOM     11  C   UNL     1      -1.202   4.267  -2.100  0.00  0.00    +0.001 A 
ATOM     12  C   UNL     1      -0.262   4.650  -1.185  0.00  0.00    +0.010 A 
ATOM     13  C   UNL     1      -0.939   0.493  -2.020  0.00  0.00    +0.046 C 
ATOM     14  C   UNL     1       1.769   5.502   0.792  0.00  0.00    +0.044 C 
ENDBRANCH   1   2
BRANCH   1  16
ATOM     15  N   UNL     1       0.776  -1.551  -2.373  0.00  0.00    -0.284 N 
ATOM     16  C   UNL     1       0.942  -0.308  -1.879  0.00  0.00    +0.240 C 
ATOM     17  O   UNL     1       1.219   0.609  -2.622  0.00  0.00    -0.273 OA
ATOM     18  H   UNL     1       0.573  -2.391  -1.694  0.00  0.00    +0.155 HD
BRANCH  15  22
ATOM     19  C   UNL     1       1.034  -2.209  -6.479  0.00  0.00    -0.047 A 
ATOM     20  C   UNL     1       1.849  -1.266  -5.879  0.00  0.00    +0.005 A 
ATOM     21  C   UNL     1       1.766  -1.045  -4.518  0.00  0.00    +0.023 A 
ATOM     22  C   UNL     1       0.863  -1.772  -3.752  0.00  0.00    +0.033 A 
ATOM     23  C   UNL     1       0.051  -2.722  -4.357  0.00  0.00    +0.023 A 
ATOM     24  C   UNL     1       0.135  -2.933  -5.720  0.00  0.00    +0.005 A 
BRANCH  19  25
ATOM     25  C   UNL     1       1.128  -2.447  -7.964  0.00  0.00    +0.035 C 
BRANCH  25  26
ATOM     26  C   UNL     1       2.164  -3.538  -8.242  0.00  0.00    +0.004 C 
BRANCH  26  28
ATOM     27  C   UNL     1       3.295  -4.871 -10.027  0.00  0.00    +0.004 C 
ATOM     28  C   UNL     1       2.259  -3.780  -9.750  0.00  0.00    -0.003 C 
ENDBRANCH  26  28
ENDBRANCH  25  26
ENDBRANCH  19  25
ENDBRANCH  15  22
ENDBRANCH   1  16
BRANCH   1  29
ATOM     29  C   UNL     1       1.799  -0.902   0.371  0.00  0.00    +0.031 C 
ATOM     30  C   UNL     1       1.498  -0.818   1.869  0.00  0.00    +0.006 C 
ENDBRANCH   1  29
TORSDOF 7
