REMARK  Name = ZINC00629533
REMARK  9 active torsions:
REMARK  status: ('A' for Active; 'I' for Inactive)
REMARK    1  A    between atoms: C_1  and  C_2
REMARK    2  A    between atoms: C_3  and  C_26
REMARK    3  A    between atoms: C_4  and  C_16
REMARK    4  A    between atoms: C_10  and  C_14
REMARK    5  A    between atoms: C_10  and  C_15
REMARK    6  A    between atoms: C_18  and  O_24
REMARK    7  A    between atoms: C_20  and  O_22
REMARK    8  A    between atoms: O_22  and  C_23
REMARK    9  A    between atoms: O_24  and  C_25
REMARK                            x       y       z     vdW  Elec       q    Type
REMARK                         _______ _______ _______ _____ _____    ______ ____
ROOT
ATOM      1  C   UNL     1      -1.758   6.102  -3.742  0.00  0.00    +0.061 C 
ATOM      2  C   UNL     1      -1.313   5.517  -2.426  0.00  0.00    +0.019 C 
ATOM      3  C   UNL     1      -1.363   6.265  -1.313  0.00  0.00    +0.058 C 
ATOM      4  C   UNL     1      -0.924   5.718   0.013  0.00  0.00    +0.096 C 
ATOM      5  C   UNL     1      -0.864   4.211  -0.014  0.00  0.00    +0.024 C 
ATOM      6  C   UNL     1      -0.832   3.544  -1.188  0.00  0.00    +0.016 C 
ATOM      7  N   UNL     1      -0.861   4.224  -2.374  0.00  0.00    -0.320 N 
ATOM      8  C   UNL     1      -0.767   2.037  -1.223  0.00  0.00    +0.058 C 
ATOM      9  C   UNL     1      -0.019   1.526   0.010  0.00  0.00    -0.023 C 
ATOM     10  C   UNL     1      -0.744   2.024   1.265  0.00  0.00    +0.086 C 
ATOM     11  C   UNL     1      -0.838   3.525   1.212  0.00  0.00    +0.162 C 
ATOM     12  O   UNL     1      -0.888   4.155   2.250  0.00  0.00    -0.292 OA
ATOM     13  C   UNL     1       0.002  -0.004   0.002  0.00  0.00    +0.011 C 
ATOM     14  C   UNL     1       1.415   2.059  -0.000  0.00  0.00    +0.011 C 
ATOM     15  H   UNL     1      -0.517   3.724  -3.292  0.00  0.00    +0.152 HD
ENDROOT
BRANCH   4  16
ATOM     16  C   UNL     1       0.441   6.262   0.345  0.00  0.00    -0.028 A 
ATOM     17  C   UNL     1       1.516   5.976  -0.475  0.00  0.00    +0.050 A 
ATOM     18  C   UNL     1       2.773   6.479  -0.174  0.00  0.00    +0.124 A 
ATOM     19  C   UNL     1       2.953   7.261   0.957  0.00  0.00    +0.091 A 
ATOM     20  C   UNL     1       1.875   7.542   1.781  0.00  0.00    +0.124 A 
ATOM     21  C   UNL     1       0.618   7.041   1.473  0.00  0.00    +0.050 A 
BRANCH  20  22
ATOM     22  O   UNL     1       2.048   8.307   2.891  0.00  0.00    -0.495 OA
ATOM     23  C   UNL     1       3.369   8.789   3.146  0.00  0.00    +0.277 C 
ENDBRANCH  20  22
BRANCH  18  24
ATOM     24  O   UNL     1       3.828   6.202  -0.984  0.00  0.00    -0.495 OA
ATOM     25  C   UNL     1       5.095   6.749  -0.611  0.00  0.00    +0.277 C 
ENDBRANCH  18  24
ENDBRANCH   4  16
BRANCH   3  26
ATOM     26  C   UNL     1      -1.845   7.611  -1.393  0.00  0.00    +0.097 C 
ATOM     27  N   UNL     1      -2.227   8.679  -1.456  0.00  0.00    -0.191 NA
ENDBRANCH   3  26
TORSDOF 4
