REMARK  Name = ZINC36265981
REMARK  3 active torsions:
REMARK  status: ('A' for Active; 'I' for Inactive)
REMARK    1  A    between atoms: C_6  and  S_7
REMARK    2  A    between atoms: S_7  and  N_10
REMARK    3  A    between atoms: N_10  and  C_11
REMARK                            x       y       z     vdW  Elec       q    Type
REMARK                         _______ _______ _______ _____ _____    ______ ____
ROOT
ATOM      1  N   UNL     1      -1.948  -1.147  -1.567  0.00  0.00    -0.187 NA
ATOM      2  H   UNL     1      -2.755  -0.738  -1.916  0.00  0.00    +0.148 HD
ENDROOT
BRANCH   1   3
ATOM      3  C   UNL     1      -1.114  -1.980  -2.438  0.00  0.00    +0.074 C 
ATOM      4  C   UNL     1      -1.659  -3.410  -2.455  0.00  0.00    +0.001 C 
ATOM      5  C   UNL     1      -0.810  -4.268  -3.395  0.00  0.00    -0.080 C 
ATOM      6  N   UNL     1      -0.893  -3.735  -4.761  0.00  0.00    +0.383 N 
ATOM      7  C   UNL     1      -0.376  -2.364  -4.787  0.00  0.00    -0.067 C 
ATOM      8  C   UNL     1      -1.139  -1.416  -3.864  0.00  0.00    +0.008 C 
ATOM      9  C   UNL     1       1.147  -2.281  -4.619  0.00  0.00    -0.012 C 
ATOM     10  C   UNL     1       1.242  -2.396  -6.150  0.00  0.00    -0.003 C 
ATOM     11  C   UNL     1      -0.180  -1.809  -6.204  0.00  0.00    -0.012 C 
ATOM     12  H   UNL     1      -0.344  -4.312  -5.381  0.00  0.00    -0.085 HD
ATOM     13  H   UNL     1      -1.855  -3.736  -5.065  0.00  0.00    -0.085 HD
ENDBRANCH   1   3
BRANCH   1  14
ATOM     14  S   UNL     1      -1.512  -0.905   0.012  0.00  0.00    +0.059 S 
ATOM     15  O   UNL     1      -1.218  -2.186   0.553  0.00  0.00    -0.153 OA
ATOM     16  O   UNL     1      -2.493  -0.046   0.577  0.00  0.00    -0.153 OA
BRANCH  14  22
ATOM     17  C   UNL     1      -0.017   1.378   0.010  0.00  0.00    +0.029 A 
ATOM     18  C   UNL     1       1.171   2.086   0.002  0.00  0.00    +0.017 A 
ATOM     19  C   UNL     1       2.378   1.411  -0.013  0.00  0.00    +0.018 A 
ATOM     20  C   UNL     1       2.396   0.027  -0.021  0.00  0.00    +0.017 A 
ATOM     21  C   UNL     1       1.208  -0.679  -0.013  0.00  0.00    +0.029 A 
ATOM     22  C   UNL     1       0.002  -0.004   0.002  0.00  0.00    +0.105 A 
ATOM     23 BR   UNL     1       4.003   2.378  -0.024  0.00  0.00    -0.050 Br
ENDBRANCH  14  22
ENDBRANCH   1  14
TORSDOF 3
