REMARK  Name = ZINC44012301
REMARK  3 active torsions:
REMARK  status: ('A' for Active; 'I' for Inactive)
REMARK    1  A    between atoms: C_11  and  N_14
REMARK    2  A    between atoms: C_15  and  C_16
REMARK    3  A    between atoms: C_21  and  O_22
REMARK                            x       y       z     vdW  Elec       q    Type
REMARK                         _______ _______ _______ _____ _____    ______ ____
ROOT
ATOM      1  N   UNL     1       4.522  -4.043  -1.186  0.00  0.00    -0.385 N 
ATOM      2  C   UNL     1       4.092  -4.764  -2.170  0.00  0.00    +0.090 C 
ATOM      3  H   UNL     1       4.934  -4.467  -0.417  0.00  0.00    +0.159 HD
ENDROOT
BRANCH   1  14
ATOM      4  C   UNL     1       0.005   1.387   0.038  0.00  0.00    +0.039 A 
ATOM      5  C   UNL     1       1.214   2.065   0.018  0.00  0.00    +0.116 A 
ATOM      6  N   UNL     1       2.341   1.375  -0.006  0.00  0.00    -0.223 NA
ATOM      7  C   UNL     1       2.324   0.050  -0.011  0.00  0.00    +0.218 A 
ATOM      8  N   UNL     1       1.187  -0.629   0.008  0.00  0.00    -0.223 NA
ATOM      9  C   UNL     1       0.024   0.001   0.032  0.00  0.00    +0.116 A 
ATOM     10  N   UNL     1       3.523  -0.641  -0.036  0.00  0.00    -0.298 N 
ATOM     11  C   UNL     1       4.803   0.080  -0.052  0.00  0.00    +0.108 C 
ATOM     12  C   UNL     1       5.636  -0.418  -1.237  0.00  0.00    +0.021 C 
ATOM     13  C   UNL     1       5.773  -1.940  -1.154  0.00  0.00    +0.027 C 
ATOM     14  C   UNL     1       4.387  -2.584  -1.233  0.00  0.00    +0.096 C 
ATOM     15  C   UNL     1       3.540  -2.111  -0.042  0.00  0.00    +0.132 C 
ENDBRANCH   1  14
BRANCH   2  16
ATOM     16  C   UNL     1       4.326  -6.219  -2.175  0.00  0.00    +0.035 A 
ATOM     17  C   UNL     1       3.967  -6.985  -3.287  0.00  0.00    +0.033 A 
ATOM     18  C   UNL     1       4.189  -8.346  -3.285  0.00  0.00    +0.043 A 
ATOM     19  C   UNL     1       4.767  -8.959  -2.185  0.00  0.00    +0.043 A 
ATOM     20  C   UNL     1       5.127  -8.213  -1.079  0.00  0.00    +0.084 A 
ATOM     21  C   UNL     1       4.916  -6.841  -1.067  0.00  0.00    +0.144 A 
ATOM     22 CL   UNL     1       5.849  -8.991   0.295  0.00  0.00    -0.080 Cl
ATOM     23 CL   UNL     1       3.741  -9.297  -4.668  0.00  0.00    -0.083 Cl
BRANCH  21  24
ATOM     24  O   UNL     1       5.274  -6.106   0.017  0.00  0.00    -0.505 OA
ATOM     25  H   UNL     1       4.578  -6.023   0.683  0.00  0.00    +0.292 HD
ENDBRANCH  21  24
ENDBRANCH   2  16
TORSDOF 3
