REMARK  Name = ZINC12135267
REMARK  10 active torsions:
REMARK  status: ('A' for Active; 'I' for Inactive)
REMARK    1  A    between atoms: C_1  and  C_2
REMARK    2  A    between atoms: C_3  and  C_4
REMARK    3  A    between atoms: C_3  and  C_5
REMARK    4  A    between atoms: C_5  and  N_61
REMARK    5  A    between atoms: C_7  and  N_16
REMARK    6  A    between atoms: C_10  and  C_12
REMARK    7  A    between atoms: C_12  and  O_14
REMARK    8  A    between atoms: O_14  and  C_15
REMARK    9  A    between atoms: C_17  and  C_19
REMARK   10  A    between atoms: C_20  and  C_30
REMARK                            x       y       z     vdW  Elec       q    Type
REMARK                         _______ _______ _______ _____ _____    ______ ____
ROOT
ATOM      1  N   UNL     1       2.760  -0.023  -0.024  0.00  0.00    -0.309 N 
ATOM      2  C   UNL     1       2.498   1.299  -0.014  0.00  0.00    +0.261 C 
ATOM      3  O   UNL     1       3.413   2.100  -0.018  0.00  0.00    -0.269 OA
ATOM      4  H   UNL     1       2.030  -0.662  -0.021  0.00  0.00    +0.149 HD
ENDROOT
BRANCH   2   5
ATOM      5  C   UNL     1       1.109   1.771   0.001  0.00  0.00    +0.111 A 
ATOM      6  C   UNL     1       0.711   3.095   0.012  0.00  0.00    +0.020 A 
ATOM      7  C   UNL     1      -0.757   3.089   0.026  0.00  0.00    +0.010 A 
ATOM      8  C   UNL     1      -1.724   4.097   0.041  0.00  0.00    +0.030 A 
ATOM      9  C   UNL     1      -3.050   3.766   0.035  0.00  0.00    +0.042 A 
ATOM     10  C   UNL     1      -3.443   2.433   0.030  0.00  0.00    +0.022 A 
ATOM     11  C   UNL     1      -2.507   1.424   0.021  0.00  0.00    +0.027 A 
ATOM     12  C   UNL     1      -1.149   1.738   0.016  0.00  0.00    +0.048 A 
ATOM     13  N   UNL     1      -0.011   0.966   0.007  0.00  0.00    -0.350 N 
ATOM     14  H   UNL     1       0.002  -0.004   0.002  0.00  0.00    +0.166 HD
ATOM     15 CL   UNL     1      -4.251   5.019   0.046  0.00  0.00    -0.084 Cl
BRANCH   6  16
ATOM     16  C   UNL     1       1.592   4.285   0.010  0.00  0.00    -0.015 A 
ATOM     17  C   UNL     1       1.605   5.148   1.107  0.00  0.00    +0.008 A 
ATOM     18  C   UNL     1       2.432   6.252   1.101  0.00  0.00    +0.001 A 
ATOM     19  C   UNL     1       3.239   6.510   0.007  0.00  0.00    +0.000 A 
ATOM     20  C   UNL     1       3.227   5.661  -1.085  0.00  0.00    +0.001 A 
ATOM     21  C   UNL     1       2.408   4.550  -1.090  0.00  0.00    +0.008 A 
ENDBRANCH   6  16
ENDBRANCH   2   5
BRANCH   1  23
ATOM     22  C   UNL     1       4.660  -0.634  -1.488  0.00  0.00    -0.055 C 
ATOM     23  C   UNL     1       4.146  -0.495  -0.039  0.00  0.00    +0.056 C 
ATOM     24  C   UNL     1       4.239  -1.943   0.509  0.00  0.00    +0.016 C 
ATOM     25  C   UNL     1       5.520  -2.461  -0.196  0.00  0.00    +0.045 C 
ATOM     26  N   UNL     1       5.466  -1.867  -1.544  0.00  0.00    +0.392 N 
ATOM     27  H   UNL     1       5.027  -2.532  -2.191  0.00  0.00    -0.080 HD
BRANCH  25  28
ATOM     28  C   UNL     1       5.494  -3.965  -0.295  0.00  0.00    +0.293 C 
ATOM     29  O   UNL     1       5.449  -4.498  -1.378  0.00  0.00    -0.253 OA
BRANCH  28  30
ATOM     30  O   UNL     1       5.522  -4.711   0.821  0.00  0.00    -0.469 OA
ATOM     31  C   UNL     1       5.495  -6.153   0.650  0.00  0.00    +0.280 C 
ENDBRANCH  28  30
ENDBRANCH  25  28
BRANCH  26  32
ATOM     32  C   UNL     1       6.838  -1.556  -2.025  0.00  0.00    -0.047 C 
BRANCH  32  35
ATOM     33  C   UNL     1       9.101  -0.605   0.929  0.00  0.00    +0.035 C 
ATOM     34  C   UNL     1       8.358  -1.390  -0.121  0.00  0.00    -0.033 C 
ATOM     35  C   UNL     1       7.581  -0.771  -0.975  0.00  0.00    -0.093 C 
ATOM     36  C   UNL     1       7.429   0.727  -0.906  0.00  0.00    +0.037 C 
ENDBRANCH  32  35
ENDBRANCH  26  32
ENDBRANCH   1  23
TORSDOF 7
