REMARK  Name = ZINC20884236
REMARK  6 active torsions:
REMARK  status: ('A' for Active; 'I' for Inactive)
REMARK    1  A    between atoms: C_1  and  C_2
REMARK    2  A    between atoms: C_2  and  N_3
REMARK    3  A    between atoms: C_7  and  C_9
REMARK    4  A    between atoms: C_9  and  S_10
REMARK    5  A    between atoms: S_10  and  C_11
REMARK    6  A    between atoms: N_24  and  C_25
REMARK                            x       y       z     vdW  Elec       q    Type
REMARK                         _______ _______ _______ _____ _____    ______ ____
ROOT
ATOM      1  C   UNL     1      -0.033  -4.765  -0.519  0.00  0.00    +0.178 A 
ATOM      2  N   UNL     1      -0.942  -3.823  -0.310  0.00  0.00    -0.215 NA
ATOM      3  C   UNL     1      -0.504  -2.628   0.065  0.00  0.00    +0.117 A 
ATOM      4  C   UNL     1       0.861  -2.309   0.252  0.00  0.00    +0.076 A 
ATOM      5  C   UNL     1       1.148  -0.946   0.666  0.00  0.00    -0.023 A 
ATOM      6  C   UNL     1       0.086  -0.124   0.830  0.00  0.00    -0.004 A 
ATOM      7  S   UNL     1      -1.334  -1.117   0.444  0.00  0.00    -0.073 S 
ATOM      8  C   UNL     1       0.108   1.314   1.247  0.00  0.00    +0.043 C 
ATOM      9  C   UNL     1       1.495   1.633   1.824  0.00  0.00    +0.005 C 
ATOM     10  C   UNL     1       2.560   1.091   0.867  0.00  0.00    +0.005 C 
ATOM     11  C   UNL     1       2.567  -0.438   0.910  0.00  0.00    +0.037 C 
ATOM     12  C   UNL     1       1.815  -3.352   0.018  0.00  0.00    +0.268 A 
ATOM     13  O   UNL     1       3.014  -3.174   0.153  0.00  0.00    -0.267 OA
ATOM     14  N   UNL     1       1.304  -4.546  -0.363  0.00  0.00    -0.255 N 
ENDROOT
BRANCH  14  15
ATOM     15  C   UNL     1       2.189  -5.605  -0.607  0.00  0.00    +0.052 A 
ATOM     16  C   UNL     1       2.550  -6.462   0.425  0.00  0.00    +0.028 A 
ATOM     17  C   UNL     1       3.417  -7.508   0.181  0.00  0.00    +0.022 A 
ATOM     18  C   UNL     1       3.937  -7.696  -1.088  0.00  0.00    +0.041 A 
ATOM     19  C   UNL     1       3.583  -6.841  -2.117  0.00  0.00    +0.022 A 
ATOM     20  C   UNL     1       2.711  -5.796  -1.879  0.00  0.00    +0.028 A 
ATOM     21 CL   UNL     1       5.033  -9.008  -1.390  0.00  0.00    -0.084 Cl
ENDBRANCH  14  15
BRANCH   1  22
ATOM     22  S   UNL     1      -0.574  -6.366  -1.020  0.00  0.00    -0.078 S 
BRANCH  22  23
ATOM     23  C   UNL     1      -2.362  -6.093  -1.066  0.00  0.00    +0.173 C 
BRANCH  23  28
ATOM     24  N   UNL     1      -6.360  -8.571  -2.061  0.00  0.00    -0.299 N 
ATOM     25  C   UNL     1      -5.017  -8.537  -1.957  0.00  0.00    +0.306 C 
ATOM     26  O   UNL     1      -4.363  -9.533  -2.199  0.00  0.00    -0.252 OA
ATOM     27  N   UNL     1      -4.398  -7.399  -1.585  0.00  0.00    -0.240 N 
ATOM     28  C   UNL     1      -3.054  -7.365  -1.482  0.00  0.00    +0.231 C 
ATOM     29  O   UNL     1      -2.403  -8.358  -1.723  0.00  0.00    -0.274 OA
ATOM     30  H   UNL     1      -6.951  -7.669  -1.841  0.00  0.00    +0.150 HD
ATOM     31  H   UNL     1      -4.989  -6.498  -1.366  0.00  0.00    +0.159 HD
BRANCH  24  33
ATOM     32  C   UNL     1      -8.545  -9.577  -2.504  0.00  0.00    +0.024 C 
ATOM     33  C   UNL     1      -7.033  -9.808  -2.465  0.00  0.00    +0.102 C 
ENDBRANCH  24  33
ENDBRANCH  23  28
ENDBRANCH  22  23
ENDBRANCH   1  22
TORSDOF 5
