REMARK  Name = ZINC09298484
REMARK  6 active torsions:
REMARK  status: ('A' for Active; 'I' for Inactive)
REMARK    1  A    between atoms: C_1  and  C_2
REMARK    2  A    between atoms: C_2  and  O_3
REMARK    3  A    between atoms: O_3  and  C_4
REMARK    4  A    between atoms: C_7  and  C_9
REMARK    5  A    between atoms: C_13  and  N_14
REMARK    6  A    between atoms: C_15  and  C_17
REMARK                            x       y       z     vdW  Elec       q    Type
REMARK                         _______ _______ _______ _____ _____    ______ ____
ROOT
ATOM      1  C   UNL     1      -1.447   3.389   0.033  0.00  0.00    +0.069 A 
ATOM      2  C   UNL     1      -2.829   3.851   0.032  0.00  0.00    -0.023 A 
ATOM      3  C   UNL     1      -3.757   2.870   0.036  0.00  0.00    -0.004 A 
ATOM      4  S   UNL     1      -2.827   1.361   0.023  0.00  0.00    -0.077 S 
ATOM      5  C   UNL     1      -1.225   2.020   0.019  0.00  0.00    +0.085 A 
ATOM      6  C   UNL     1      -5.246   3.019   0.062  0.00  0.00    +0.043 C 
ATOM      7  C   UNL     1      -5.672   4.032  -1.009  0.00  0.00    +0.005 C 
ATOM      8  C   UNL     1      -5.669   5.424  -0.385  0.00  0.00    +0.001 C 
ATOM      9  C   UNL     1      -4.568   5.525   0.669  0.00  0.00    +0.005 C 
ATOM     10  C   UNL     1      -3.198   5.329   0.028  0.00  0.00    +0.037 C 
ENDROOT
BRANCH   1  14
ATOM     11  C   UNL     1       1.209   5.634   1.225  0.00  0.00    +0.407 C 
ATOM     12  O   UNL     1       1.672   6.039   0.178  0.00  0.00    -0.226 OA
ATOM     13  N   UNL     1       0.182   4.761   1.216  0.00  0.00    -0.217 N 
ATOM     14  C   UNL     1      -0.331   4.338   0.044  0.00  0.00    +0.255 C 
ATOM     15  O   UNL     1       0.133   4.743  -1.006  0.00  0.00    -0.270 OA
ATOM     16  H   UNL     1      -0.188   4.438   2.052  0.00  0.00    +0.161 HD
BRANCH  11  17
ATOM     17  O   UNL     1       1.721   6.058   2.396  0.00  0.00    -0.450 OA
BRANCH  17  19
ATOM     18  C   UNL     1       3.271   7.361   3.748  0.00  0.00    +0.048 C 
ATOM     19  C   UNL     1       2.826   6.998   2.330  0.00  0.00    +0.230 C 
ENDBRANCH  17  19
ENDBRANCH  11  17
ENDBRANCH   1  14
BRANCH   5  20
ATOM     20  N   UNL     1      -0.016   1.344   0.009  0.00  0.00    -0.275 N 
ATOM     21  C   UNL     1       0.002  -0.004   0.002  0.00  0.00    +0.256 C 
ATOM     22  O   UNL     1      -1.043  -0.626   0.009  0.00  0.00    -0.270 OA
ATOM     23  H   UNL     1       0.817   1.840   0.004  0.00  0.00    +0.156 HD
BRANCH  21  24
ATOM     24  C   UNL     1       1.287  -0.723  -0.014  0.00  0.00    +0.122 A 
ATOM     25  C   UNL     1       2.483  -0.027  -0.022  0.00  0.00    +0.031 A 
ATOM     26  C   UNL     1       3.697  -0.759  -0.037  0.00  0.00    +0.018 A 
ATOM     27  C   UNL     1       4.928  -0.086  -0.044  0.00  0.00    +0.011 A 
ATOM     28  C   UNL     1       6.093  -0.797  -0.058  0.00  0.00    +0.001 A 
ATOM     29  C   UNL     1       6.069  -2.185  -0.065  0.00  0.00    +0.004 A 
ATOM     30  C   UNL     1       4.872  -2.868  -0.058  0.00  0.00    +0.047 A 
ATOM     31  C   UNL     1       3.671  -2.166  -0.044  0.00  0.00    +0.139 A 
ATOM     32  O   UNL     1       2.499  -2.836  -0.036  0.00  0.00    -0.422 OA
ATOM     33  C   UNL     1       1.322  -2.190  -0.016  0.00  0.00    +0.350 A 
ATOM     34  O   UNL     1       0.282  -2.822  -0.004  0.00  0.00    -0.244 OA
ENDBRANCH  21  24
ENDBRANCH   5  20
TORSDOF 5
