REMARK  Name = ZINC20679659
REMARK  7 active torsions:
REMARK  status: ('A' for Active; 'I' for Inactive)
REMARK    1  A    between atoms: C_1  and  C_2
REMARK    2  A    between atoms: C_5  and  N_9
REMARK    3  A    between atoms: C_6  and  C_8
REMARK    4  A    between atoms: N_9  and  S_10
REMARK    5  A    between atoms: S_10  and  C_13
REMARK    6  A    between atoms: C_26  and  C_29
REMARK    7  A    between atoms: C_32  and  O_35
REMARK                            x       y       z     vdW  Elec       q    Type
REMARK                         _______ _______ _______ _____ _____    ______ ____
ROOT
ATOM      1  C   UNL     1       5.210   5.523   0.407  0.00  0.00    +0.109 A 
ATOM      2  C   UNL     1       5.124   4.730  -0.723  0.00  0.00    +0.030 A 
ATOM      3  C   UNL     1       4.721   3.415  -0.607  0.00  0.00    +0.025 A 
ATOM      4  C   UNL     1       4.406   2.892   0.640  0.00  0.00    +0.031 A 
ATOM      5  C   UNL     1       4.493   3.682   1.776  0.00  0.00    -0.018 A 
ATOM      6  C   UNL     1       4.898   5.003   1.647  0.00  0.00    +0.034 A 
ATOM      7  C   UNL     1       4.168   3.161   3.140  0.00  0.00    +0.049 C 
ATOM      8  C   UNL     1       2.832   3.671   3.623  0.00  0.00    -0.023 C 
ATOM      9  C   UNL     1       2.216   2.746   4.317  0.00  0.00    -0.030 C 
ATOM     10  C   UNL     1       3.063   1.490   4.396  0.00  0.00    +0.033 C 
ATOM     11  C   UNL     1       4.024   1.627   3.180  0.00  0.00    +0.029 C 
ATOM     12  C   UNL     1       3.264   1.142   1.942  0.00  0.00    +0.105 C 
ATOM     13  N   UNL     1       3.998   1.557   0.741  0.00  0.00    -0.336 N 
ATOM     14  H   UNL     1       4.214   0.826  -0.051  0.00  0.00    +0.147 HD
ENDROOT
BRANCH  12  15
ATOM     15  C   UNL     1       1.885   1.750   1.926  0.00  0.00    -0.027 A 
ATOM     16  C   UNL     1       0.833   1.090   2.534  0.00  0.00    +0.009 A 
ATOM     17  C   UNL     1      -0.433   1.643   2.516  0.00  0.00    +0.046 A 
ATOM     18  C   UNL     1      -0.646   2.866   1.897  0.00  0.00    +0.117 A 
ATOM     19  C   UNL     1       0.411   3.526   1.288  0.00  0.00    +0.046 A 
ATOM     20  C   UNL     1       1.674   2.967   1.304  0.00  0.00    +0.009 A 
BRANCH  18  21
ATOM     21  O   UNL     1      -1.889   3.414   1.883  0.00  0.00    -0.507 OA
ATOM     22  H   UNL     1      -2.058   4.384   1.392  0.00  0.00    +0.292 HD
ENDBRANCH  18  21
ENDBRANCH  12  15
BRANCH   1  23
ATOM     23  S   UNL     1       5.722   7.202   0.264  0.00  0.00    +0.072 S 
ATOM     24  O   UNL     1       6.247   7.577   1.530  0.00  0.00    -0.150 OA
ATOM     25  O   UNL     1       6.482   7.295  -0.933  0.00  0.00    -0.150 OA
BRANCH  23  26
ATOM     26  N   UNL     1       4.358   8.112   0.029  0.00  0.00    -0.216 N 
ATOM     27  H   UNL     1       4.248   8.712  -0.886  0.00  0.00    +0.174 HD
BRANCH  26  32
ATOM     28  C   UNL     1       0.256   8.133   3.944  0.00  0.00    +0.044 C 
ATOM     29  C   UNL     1       1.346   8.127   2.904  0.00  0.00    -0.050 A 
ATOM     30  C   UNL     1       2.663   7.942   3.285  0.00  0.00    +0.005 A 
ATOM     31  C   UNL     1       3.664   7.937   2.334  0.00  0.00    +0.025 A 
ATOM     32  C   UNL     1       3.348   8.116   0.994  0.00  0.00    +0.051 A 
ATOM     33  C   UNL     1       2.025   8.306   0.615  0.00  0.00    -0.028 A 
ATOM     34  C   UNL     1       1.028   8.306   1.570  0.00  0.00    +0.008 A 
ATOM     35  C   UNL     1       1.678   8.508  -0.838  0.00  0.00    +0.046 C 
ENDBRANCH  26  32
ENDBRANCH  23  26
ENDBRANCH   1  23
TORSDOF 5
