REMARK  Name = ZINC13344032
REMARK  6 active torsions:
REMARK  status: ('A' for Active; 'I' for Inactive)
REMARK    1  A    between atoms: C_1  and  C_2
REMARK    2  A    between atoms: C_2  and  N_49
REMARK    3  A    between atoms: C_5  and  C_27
REMARK    4  A    between atoms: C_15  and  C_16
REMARK    5  A    between atoms: C_19  and  C_25
REMARK    6  A    between atoms: C_20  and  N_22
REMARK                            x       y       z     vdW  Elec       q    Type
REMARK                         _______ _______ _______ _____ _____    ______ ____
ROOT
ATOM      1  C   UNL     1      -2.540   1.497  -0.680  0.00  0.00    -0.040 C 
ATOM      2  C   UNL     1      -3.111   1.258   0.690  0.00  0.00    -0.024 A 
ATOM      3  C   UNL     1      -4.471   1.022   0.831  0.00  0.00    +0.076 A 
ATOM      4  C   UNL     1      -4.980   0.791   2.184  0.00  0.00    +0.015 A 
ATOM      5  C   UNL     1      -6.336   0.544   2.422  0.00  0.00    +0.011 A 
ATOM      6  C   UNL     1      -6.768   0.333   3.698  0.00  0.00    +0.001 A 
ATOM      7  C   UNL     1      -5.876   0.360   4.768  0.00  0.00    +0.002 A 
ATOM      8  C   UNL     1      -4.550   0.597   4.572  0.00  0.00    +0.028 A 
ATOM      9  C   UNL     1      -4.067   0.819   3.268  0.00  0.00    +0.072 A 
ATOM     10  N   UNL     1      -2.774   1.055   3.045  0.00  0.00    -0.247 NA
ATOM     11  C   UNL     1      -2.292   1.269   1.835  0.00  0.00    +0.068 A 
ATOM     12  C   UNL     1      -0.843   1.534   1.667  0.00  0.00    -0.038 C 
ATOM     13  C   UNL     1      -0.045   1.782   2.720  0.00  0.00    +0.011 C 
ATOM     14  C   UNL     1      -0.301   1.514   0.252  0.00  0.00    -0.040 C 
ATOM     15  N   UNL     1      -1.273   2.248  -0.594  0.00  0.00    +0.385 N 
ATOM     16  H   UNL     1      -1.457   3.164  -0.169  0.00  0.00    -0.081 HD
ENDROOT
BRANCH  13  17
ATOM     17  C   UNL     1       1.413   1.882   2.533  0.00  0.00    -0.023 A 
ATOM     18  C   UNL     1       2.050   1.110   1.558  0.00  0.00    +0.008 A 
ATOM     19  C   UNL     1       3.415   1.213   1.385  0.00  0.00    +0.006 A 
ATOM     20  C   UNL     1       4.154   2.070   2.182  0.00  0.00    -0.020 A 
ATOM     21  C   UNL     1       3.530   2.834   3.152  0.00  0.00    +0.130 A 
ATOM     22  C   UNL     1       2.165   2.746   3.333  0.00  0.00    +0.041 A 
ATOM     23  C   UNL     1       5.645   2.173   1.990  0.00  0.00    +0.046 C 
BRANCH  21  24
ATOM     24  N   UNL     1       4.329   3.748   3.999  0.00  0.00    +0.057 N 
ATOM     25  O   UNL     1       3.771   4.513   4.764  0.00  0.00    -0.126 OA
ATOM     26  O   UNL     1       5.545   3.736   3.929  0.00  0.00    -0.126 OA
ENDBRANCH  21  24
ENDBRANCH  13  17
BRANCH   3  27
ATOM     27  C   UNL     1      -5.372   1.005  -0.340  0.00  0.00    +0.387 C 
ATOM     28  O   UNL     1      -5.574  -0.035  -0.935  0.00  0.00    -0.241 OA
ATOM     29  O   UNL     1      -5.968   2.142  -0.748  0.00  0.00    -0.241 OA
ENDBRANCH   3  27
BRANCH  15  31
ATOM     30  C   UNL     1      -0.514   1.106  -2.652  0.00  0.00    -0.017 C 
ATOM     31  C   UNL     1      -0.713   2.449  -1.946  0.00  0.00    -0.081 C 
ENDBRANCH  15  31
TORSDOF 4
