REMARK  Name = ZINC01158573
REMARK  7 active torsions:
REMARK  status: ('A' for Active; 'I' for Inactive)
REMARK    1  A    between atoms: C_1  and  O_2
REMARK    2  A    between atoms: O_2  and  C_3
REMARK    3  A    between atoms: C_6  and  C_9
REMARK    4  A    between atoms: N_14  and  C_15
REMARK    5  A    between atoms: C_15  and  N_17
REMARK    6  A    between atoms: C_18  and  C_20
REMARK    7  A    between atoms: C_21  and  C_22
REMARK                            x       y       z     vdW  Elec       q    Type
REMARK                         _______ _______ _______ _____ _____    ______ ____
ROOT
ATOM      1  C   UNL     1       4.632   1.403  -0.035  0.00  0.00    +0.055 A 
ATOM      2  C   UNL     1       4.446   0.049  -0.040  0.00  0.00    +0.074 A 
ATOM      3  S   UNL     1       2.660  -0.041  -0.016  0.00  0.00    -0.060 S 
ATOM      4  C   UNL     1       2.349   1.720  -0.011  0.00  0.00    +0.162 A 
ATOM      5  N   UNL     1       3.577   2.204  -0.020  0.00  0.00    -0.335 N 
ATOM      6  N   UNL     1       1.137   2.397   0.004  0.00  0.00    -0.169 NA
ATOM      7  H   UNL     1       3.715   3.295  -0.016  0.00  0.00    +0.168 HD
ENDROOT
BRANCH   1  11
ATOM      8  C   UNL     1       8.562   3.030  -0.061  0.00  0.00    +0.120 A 
ATOM      9  C   UNL     1       7.462   3.876  -0.047  0.00  0.00    +0.046 A 
ATOM     10  C   UNL     1       6.186   3.352  -0.039  0.00  0.00    +0.013 A 
ATOM     11  C   UNL     1       6.002   1.970  -0.044  0.00  0.00    -0.001 A 
ATOM     12  C   UNL     1       7.109   1.123  -0.053  0.00  0.00    +0.013 A 
ATOM     13  C   UNL     1       8.382   1.653  -0.067  0.00  0.00    +0.046 A 
BRANCH   8  15
ATOM     14  C   UNL     1      10.904   2.621  -0.083  0.00  0.00    +0.277 C 
ATOM     15  O   UNL     1       9.818   3.549  -0.069  0.00  0.00    -0.495 OA
ENDBRANCH   8  15
ENDBRANCH   1  11
BRANCH   6  16
ATOM     16  C   UNL     1      -0.021   1.708   0.011  0.00  0.00    +0.163 C 
ATOM     17  S   UNL     1       0.002  -0.004   0.002  0.00  0.00    -0.016 S 
BRANCH  16  18
ATOM     18  N   UNL     1      -1.197   2.366   0.021  0.00  0.00    -0.263 N 
ATOM     19  C   UNL     1      -2.355   1.676   0.022  0.00  0.00    +0.242 C 
ATOM     20  O   UNL     1      -2.339   0.459   0.016  0.00  0.00    -0.270 OA
ATOM     21  H   UNL     1      -1.212   3.466   0.027  0.00  0.00    +0.157 HD
BRANCH  19  22
ATOM     22  C   UNL     1      -3.632   2.390   0.032  0.00  0.00    +0.068 C 
ATOM     23  C   UNL     1      -4.791   1.700   0.034  0.00  0.00    +0.013 C 
BRANCH  23  24
ATOM     24  C   UNL     1      -6.075   2.418   0.044  0.00  0.00    -0.025 A 
ATOM     25  C   UNL     1      -6.098   3.816   0.058  0.00  0.00    +0.009 A 
ATOM     26  C   UNL     1      -7.304   4.483   0.062  0.00  0.00    +0.020 A 
ATOM     27  C   UNL     1      -8.493   3.770   0.064  0.00  0.00    +0.041 A 
ATOM     28  C   UNL     1      -8.478   2.385   0.056  0.00  0.00    +0.020 A 
ATOM     29  C   UNL     1      -7.279   1.705   0.046  0.00  0.00    +0.009 A 
ATOM     30 CL   UNL     1     -10.008   4.618   0.078  0.00  0.00    -0.084 Cl
ENDBRANCH  23  24
ENDBRANCH  19  22
ENDBRANCH  16  18
ENDBRANCH   6  16
TORSDOF 6
