REMARK  Name = ZINC00681770
REMARK  8 active torsions:
REMARK  status: ('A' for Active; 'I' for Inactive)
REMARK    1  A    between atoms: C_1  and  C_2
REMARK    2  A    between atoms: C_2  and  N_3
REMARK    3  A    between atoms: N_3  and  C_4
REMARK    4  A    between atoms: N_3  and  C_6
REMARK    5  A    between atoms: C_4  and  C_5
REMARK    6  A    between atoms: C_9  and  C_12
REMARK    7  A    between atoms: C_17  and  C_33
REMARK    8  A    between atoms: C_27  and  C_29
REMARK                            x       y       z     vdW  Elec       q    Type
REMARK                         _______ _______ _______ _____ _____    ______ ____
ROOT
ATOM      1  C   UNL     1       4.358   5.222   2.632  0.00  0.00    +0.032 C 
ATOM      2  C   UNL     1       3.944   5.169   1.163  0.00  0.00    +0.059 C 
ATOM      3  C   UNL     1       3.335   3.814   0.845  0.00  0.00    +0.017 C 
ATOM      4  C   UNL     1       3.761   2.708   1.480  0.00  0.00    +0.040 C 
ATOM      5  C   UNL     1       3.251   1.305   1.255  0.00  0.00    +0.182 C 
ATOM      6  N   UNL     1       2.411   1.150   0.087  0.00  0.00    -0.248 N 
ATOM      7  C   UNL     1       1.174   1.791   0.001  0.00  0.00    +0.059 A 
ATOM      8  C   UNL     1      -0.013   1.076   0.008  0.00  0.00    +0.025 A 
ATOM      9  C   UNL     1      -1.217   1.758   0.017  0.00  0.00    +0.002 A 
ATOM     10  C   UNL     1      -1.238   3.141   0.031  0.00  0.00    +0.002 A 
ATOM     11  C   UNL     1      -0.054   3.858   0.008  0.00  0.00    +0.025 A 
ATOM     12  C   UNL     1       1.151   3.177  -0.025  0.00  0.00    +0.053 A 
ATOM     13  N   UNL     1       2.373   3.832  -0.113  0.00  0.00    -0.316 N 
ATOM     14  C   UNL     1       2.830   0.376  -0.934  0.00  0.00    +0.325 C 
ATOM     15  O   UNL     1       3.904  -0.185  -0.868  0.00  0.00    -0.265 OA
ATOM     16  C   UNL     1       4.770   2.800   2.467  0.00  0.00    +0.163 C 
ATOM     17  O   UNL     1       5.153   1.782   3.010  0.00  0.00    -0.292 OA
ATOM     18  C   UNL     1       5.383   4.107   2.870  0.00  0.00    +0.088 C 
ATOM     19  H   UNL     1       2.552   4.341  -0.919  0.00  0.00    +0.152 HD
ENDROOT
BRANCH   1  23
ATOM     20  C   UNL     1       6.116   9.018   3.506  0.00  0.00    +0.030 A 
ATOM     21  C   UNL     1       4.976   8.607   4.184  0.00  0.00    +0.023 A 
ATOM     22  C   UNL     1       4.410   7.379   3.900  0.00  0.00    +0.006 A 
ATOM     23  C   UNL     1       4.978   6.560   2.941  0.00  0.00    -0.043 A 
ATOM     24  C   UNL     1       6.116   6.965   2.268  0.00  0.00    +0.006 A 
ATOM     25  C   UNL     1       6.684   8.193   2.543  0.00  0.00    +0.023 A 
BRANCH  20  26
ATOM     26  N   UNL     1       6.690  10.259   3.791  0.00  0.00    -0.330 N 
BRANCH  26  28
ATOM     27  C   UNL     1       7.488  11.456   1.813  0.00  0.00    +0.024 C 
ATOM     28  C   UNL     1       7.893  10.691   3.075  0.00  0.00    +0.102 C 
ENDBRANCH  26  28
BRANCH  26  29
ATOM     29  C   UNL     1       6.090  11.128   4.806  0.00  0.00    +0.102 C 
ATOM     30  C   UNL     1       6.705  10.817   6.173  0.00  0.00    +0.024 C 
ENDBRANCH  26  29
ENDBRANCH  20  26
ENDBRANCH   1  23
BRANCH   5  31
ATOM     31  C   UNL     1       2.460   0.885   2.467  0.00  0.00    +0.130 A 
ATOM     32  C   UNL     1       2.907   0.102   3.465  0.00  0.00    +0.047 A 
ATOM     33  C   UNL     1       1.843  -0.034   4.386  0.00  0.00    +0.041 A 
ATOM     34  C   UNL     1       0.810   0.675   3.897  0.00  0.00    +0.195 A 
ATOM     35  O   UNL     1       1.192   1.234   2.737  0.00  0.00    -0.466 OA
ENDBRANCH   5  31
BRANCH  14  36
ATOM     36  C   UNL     1       1.965   0.206  -2.156  0.00  0.00    +0.470 C 
ATOM     37  F   UNL     1       2.607  -0.636  -3.069  0.00  0.00    -0.162 F 
ATOM     38  F   UNL     1       0.739  -0.357  -1.784  0.00  0.00    -0.162 F 
ATOM     39  F   UNL     1       1.744   1.454  -2.748  0.00  0.00    -0.162 F 
ENDBRANCH  14  36
TORSDOF 6
