REMARK  Name = ZINC32666493
REMARK  12 active torsions:
REMARK  status: ('A' for Active; 'I' for Inactive)
REMARK    1  A    between atoms: C_1  and  C_2
REMARK    2  A    between atoms: C_2  and  N_3
REMARK    3  A    between atoms: N_3  and  C_4
REMARK    4  A    between atoms: C_5  and  N_20
REMARK    5  A    between atoms: N_6  and  C_13
REMARK    6  A    between atoms: C_13  and  C_14
REMARK    7  A    between atoms: C_21  and  C_23
REMARK    8  A    between atoms: C_23  and  O_24
REMARK    9  A    between atoms: O_24  and  C_25
REMARK   10  A    between atoms: C_25  and  C_27
REMARK   11  A    between atoms: C_27  and  C_28
REMARK   12  A    between atoms: C_28  and  C_29
REMARK                            x       y       z     vdW  Elec       q    Type
REMARK                         _______ _______ _______ _____ _____    ______ ____
ROOT
ATOM      1  N   UNL     1       2.359   3.681   0.046  0.00  0.00    -0.262 N 
ATOM      2  C   UNL     1       2.319   5.023  -0.093  0.00  0.00    +0.258 C 
ATOM      3  O   UNL     1       1.252   5.598  -0.129  0.00  0.00    -0.272 OA
ENDROOT
BRANCH   1   4
ATOM      4  C   UNL     1       1.160   2.937   0.046  0.00  0.00    +0.140 A 
ATOM      5  C   UNL     1       0.749   2.269   1.181  0.00  0.00    +0.128 A 
ATOM      6  N   UNL     1      -0.425   1.551   1.149  0.00  0.00    -0.276 N 
ATOM      7  C   UNL     1      -1.165   1.506   0.027  0.00  0.00    +0.331 A 
ATOM      8  O   UNL     1      -2.201   0.870   0.021  0.00  0.00    -0.246 OA
ATOM      9  N   UNL     1      -0.777   2.146  -1.090  0.00  0.00    -0.273 N 
ATOM     10  H   UNL     1      -1.393   2.088  -2.000  0.00  0.00    +0.173 HD
ATOM     11  C   UNL     1       0.364   2.863  -1.113  0.00  0.00    +0.277 A 
ATOM     12  O   UNL     1       0.704   3.443  -2.130  0.00  0.00    -0.266 OA
BRANCH   5  13
ATOM     13  N   UNL     1       1.502   2.319   2.329  0.00  0.00    -0.343 N 
ATOM     14  H   UNL     1       1.168   1.784   3.230  0.00  0.00    +0.144 HD
ATOM     15  H   UNL     1       2.440   2.894   2.346  0.00  0.00    +0.144 HD
ENDBRANCH   5  13
BRANCH   6  16
ATOM     16  C   UNL     1      -0.874   0.837   2.347  0.00  0.00    +0.163 C 
BRANCH  16  17
ATOM     17  C   UNL     1      -1.744   1.746   3.177  0.00  0.00    -0.028 A 
ATOM     18  C   UNL     1      -1.177   2.544   4.153  0.00  0.00    +0.005 A 
ATOM     19  C   UNL     1      -1.975   3.381   4.911  0.00  0.00    +0.000 A 
ATOM     20  C   UNL     1      -3.341   3.412   4.699  0.00  0.00    +0.000 A 
ATOM     21  C   UNL     1      -3.908   2.610   3.727  0.00  0.00    +0.000 A 
ATOM     22  C   UNL     1      -3.110   1.777   2.965  0.00  0.00    +0.005 A 
ENDBRANCH  16  17
ENDBRANCH   6  16
ENDBRANCH   1   4
BRANCH   1  24
ATOM     23  C   UNL     1       4.247   2.731  -1.183  0.00  0.00    +0.025 C 
ATOM     24  C   UNL     1       3.646   2.998   0.198  0.00  0.00    +0.110 C 
ENDBRANCH   1  24
BRANCH   2  25
ATOM     25  C   UNL     1       3.602   5.807  -0.205  0.00  0.00    +0.328 C 
BRANCH  25  26
ATOM     26  O   UNL     1       3.295   7.219  -0.345  0.00  0.00    -0.455 OA
BRANCH  26  27
ATOM     27  C   UNL     1       4.335   8.060  -0.457  0.00  0.00    +0.308 C 
ATOM     28  O   UNL     1       5.464   7.631  -0.438  0.00  0.00    -0.251 OA
BRANCH  27  29
ATOM     29  C   UNL     1       4.094   9.540  -0.607  0.00  0.00    +0.127 C 
BRANCH  29  30
ATOM     30  C   UNL     1       5.436  10.267  -0.714  0.00  0.00    +0.074 C 
BRANCH  30  31
ATOM     31  C   UNL     1       5.196  11.747  -0.863  0.00  0.00    +0.080 A 
ATOM     32  N   UNL     1       5.090  12.648   0.074  0.00  0.00    -0.244 NA
ATOM     33  C   UNL     1       4.873  13.952  -0.196  0.00  0.00    +0.078 A 
ATOM     34  C   UNL     1       4.736  15.036   0.700  0.00  0.00    +0.029 A 
ATOM     35  C   UNL     1       4.519  16.296   0.237  0.00  0.00    +0.002 A 
ATOM     36  C   UNL     1       4.422  16.566  -1.121  0.00  0.00    +0.001 A 
ATOM     37  C   UNL     1       4.550  15.533  -2.030  0.00  0.00    +0.017 A 
ATOM     38  C   UNL     1       4.771  14.257  -1.573  0.00  0.00    +0.039 A 
ATOM     39  S   UNL     1       5.000  12.665  -2.324  0.00  0.00    -0.072 S 
ENDBRANCH  30  31
ENDBRANCH  29  30
ENDBRANCH  27  29
ENDBRANCH  26  27
ENDBRANCH  25  26
ENDBRANCH   2  25
TORSDOF 11
