REMARK  Name = ZINC40427409
REMARK  8 active torsions:
REMARK  status: ('A' for Active; 'I' for Inactive)
REMARK    1  A    between atoms: C_1  and  N_2
REMARK    2  A    between atoms: C_6  and  C_8
REMARK    3  A    between atoms: C_8  and  C_9
REMARK    4  A    between atoms: C_9  and  N_10
REMARK    5  A    between atoms: C_11  and  C_13
REMARK    6  A    between atoms: C_13  and  N_14
REMARK    7  A    between atoms: C_20  and  C_22
REMARK    8  A    between atoms: N_27  and  C_28
REMARK                            x       y       z     vdW  Elec       q    Type
REMARK                         _______ _______ _______ _____ _____    ______ ____
ROOT
ATOM      1  N   UNL     1      -5.532  -1.661   4.962  0.00  0.00    -0.291 NA
ATOM      2  C   UNL     1      -6.391  -1.202   3.862  0.00  0.00    +0.104 C 
ATOM      3  C   UNL     1      -7.361  -0.137   4.386  0.00  0.00    +0.123 C 
ATOM      4  N   UNL     1      -8.077  -0.688   5.546  0.00  0.00    -0.294 N 
ATOM      5  C   UNL     1      -7.287  -1.292   6.630  0.00  0.00    +0.123 C 
ATOM      6  C   UNL     1      -6.321  -2.312   6.017  0.00  0.00    +0.104 C 
ATOM      7  C   UNL     1      -9.422  -0.641   5.615  0.00  0.00    +0.266 C 
ATOM      8  O   UNL     1     -10.006  -1.215   6.514  0.00  0.00    -0.268 OA
ENDROOT
BRANCH   7   9
ATOM      9  C   UNL     1     -10.185   0.106   4.601  0.00  0.00    +0.135 A 
ATOM     10  C   UNL     1     -11.554   0.017   4.555  0.00  0.00    +0.081 A 
ATOM     11  S   UNL     1     -11.911   1.097   3.175  0.00  0.00    -0.060 S 
ATOM     12  C   UNL     1     -10.225   1.554   2.801  0.00  0.00    +0.163 A 
ATOM     13  N   UNL     1      -9.556   0.883   3.717  0.00  0.00    -0.220 NA
ATOM     14  N   UNL     1      -9.746   2.397   1.811  0.00  0.00    -0.294 N 
ATOM     15  H   UNL     1      -8.791   2.484   1.668  0.00  0.00    +0.154 HD
BRANCH  14  16
ATOM     16  C   UNL     1     -10.640   3.121   1.017  0.00  0.00    +0.034 A 
ATOM     17  C   UNL     1     -11.829   3.592   1.561  0.00  0.00    +0.023 A 
ATOM     18  C   UNL     1     -12.711   4.307   0.775  0.00  0.00    +0.003 A 
ATOM     19  C   UNL     1     -12.412   4.556  -0.552  0.00  0.00    +0.020 A 
ATOM     20  C   UNL     1     -11.229   4.089  -1.097  0.00  0.00    +0.043 A 
ATOM     21  C   UNL     1     -10.339   3.377  -0.314  0.00  0.00    +0.043 A 
ATOM     22 CL   UNL     1     -10.858   4.402  -2.764  0.00  0.00    -0.083 Cl
ENDBRANCH  14  16
ENDBRANCH   7   9
BRANCH   1  23
ATOM     23  C   UNL     1      -4.477  -2.555   4.467  0.00  0.00    +0.180 C 
BRANCH  23  25
ATOM     24  N   UNL     1      -2.491  -2.401   3.000  0.00  0.00    -0.314 N 
ATOM     25  C   UNL     1      -3.543  -1.782   3.572  0.00  0.00    +0.227 C 
ATOM     26  O   UNL     1      -3.737  -0.603   3.366  0.00  0.00    -0.274 OA
ATOM     27  H   UNL     1      -2.335  -3.344   3.164  0.00  0.00    +0.149 HD
BRANCH  24  28
ATOM     28  C   UNL     1      -1.583  -1.649   2.130  0.00  0.00    +0.102 C 
BRANCH  28  29
ATOM     29  C   UNL     1      -0.483  -2.580   1.615  0.00  0.00    +0.003 C 
BRANCH  29  35
ATOM     30  C   UNL     1      -0.184   0.120  -0.599  0.00  0.00    -0.096 C 
ATOM     31  N   UNL     1      -0.254  -1.344  -0.499  0.00  0.00    +0.380 N 
ATOM     32  C   UNL     1       0.385  -1.954  -1.685  0.00  0.00    -0.079 C 
ATOM     33  C   UNL     1       1.834  -2.268  -1.235  0.00  0.00    -0.020 C 
ATOM     34  C   UNL     1       1.617  -2.708   0.236  0.00  0.00    -0.017 C 
ATOM     35  C   UNL     1       0.465  -1.795   0.706  0.00  0.00    -0.068 C 
ATOM     36  H   UNL     1      -1.219  -1.636  -0.449  0.00  0.00    -0.082 HD
ENDBRANCH  29  35
ENDBRANCH  28  29
ENDBRANCH  24  28
ENDBRANCH  23  25
ENDBRANCH   1  23
TORSDOF 7
