REMARK  Name = ZINC14458902
REMARK  6 active torsions:
REMARK  status: ('A' for Active; 'I' for Inactive)
REMARK    1  A    between atoms: C_1  and  C_2
REMARK    2  A    between atoms: C_2  and  C_4
REMARK    3  A    between atoms: C_17  and  C_20
REMARK    4  A    between atoms: C_23  and  O_28
REMARK    5  A    between atoms: C_24  and  O_26
REMARK    6  A    between atoms: O_26  and  C_27
REMARK                            x       y       z     vdW  Elec       q    Type
REMARK                         _______ _______ _______ _____ _____    ______ ____
ROOT
ATOM      1  C   UNL     1       0.040   0.210   4.706  0.00  0.00    +0.017 A 
ATOM      2  C   UNL     1       1.416  -0.028   4.597  0.00  0.00    +0.013 A 
ATOM      3  C   UNL     1       2.068   0.264   3.435  0.00  0.00    +0.024 A 
ATOM      4  C   UNL     1       1.378   0.801   2.350  0.00  0.00    +0.031 A 
ATOM      5  C   UNL     1       0.001   1.053   2.464  0.00  0.00    -0.019 A 
ATOM      6  C   UNL     1      -0.656   0.755   3.620  0.00  0.00    +0.017 A 
ATOM      7  C   UNL     1      -0.681   1.652   1.296  0.00  0.00    +0.049 C 
ATOM      8  C   UNL     1      -2.130   1.433   1.053  0.00  0.00    -0.023 C 
ATOM      9  C   UNL     1      -2.346   1.444  -0.257  0.00  0.00    -0.030 C 
ATOM     10  C   UNL     1      -1.004   1.642  -1.023  0.00  0.00    +0.033 C 
ATOM     11  C   UNL     1      -0.013   1.086   0.008  0.00  0.00    +0.029 C 
ATOM     12  C   UNL     1       1.393   1.660  -0.002  0.00  0.00    +0.105 C 
ATOM     13  N   UNL     1       2.072   1.075   1.174  0.00  0.00    -0.336 N 
ATOM     14  H   UNL     1       3.020   0.877   1.125  0.00  0.00    +0.147 HD
ENDROOT
BRANCH  12  15
ATOM     15  C   UNL     1       2.108   1.262  -1.268  0.00  0.00    -0.023 A 
ATOM     16  C   UNL     1       2.668   0.003  -1.377  0.00  0.00    +0.009 A 
ATOM     17  C   UNL     1       3.325  -0.367  -2.535  0.00  0.00    +0.049 A 
ATOM     18  C   UNL     1       3.424   0.525  -3.591  0.00  0.00    +0.158 A 
ATOM     19  C   UNL     1       2.860   1.793  -3.481  0.00  0.00    +0.162 A 
ATOM     20  C   UNL     1       2.198   2.155  -2.319  0.00  0.00    +0.054 A 
BRANCH  19  21
ATOM     21  O   UNL     1       2.953   2.672  -4.515  0.00  0.00    -0.491 OA
ATOM     22  C   UNL     1       2.351   3.955  -4.332  0.00  0.00    +0.277 C 
ENDBRANCH  19  21
BRANCH  18  23
ATOM     23  O   UNL     1       4.069   0.163  -4.731  0.00  0.00    -0.503 OA
ATOM     24  H   UNL     1       3.498  -0.250  -5.393  0.00  0.00    +0.292 HD
ENDBRANCH  18  23
ENDBRANCH  12  15
BRANCH   1  26
ATOM     25  C   UNL     1       0.085  -0.695   7.117  0.00  0.00    +0.091 C 
ATOM     26  C   UNL     1      -0.668  -0.109   5.951  0.00  0.00    +0.160 C 
ATOM     27  O   UNL     1      -1.860   0.099   6.042  0.00  0.00    -0.292 OA
ENDBRANCH   1  26
TORSDOF 4
