REMARK  Name = ZINC06566893
REMARK  7 active torsions:
REMARK  status: ('A' for Active; 'I' for Inactive)
REMARK    1  A    between atoms: C_1  and  N_2
REMARK    2  A    between atoms: N_2  and  C_3
REMARK    3  A    between atoms: C_6  and  C_12
REMARK    4  A    between atoms: C_8  and  N_9
REMARK    5  A    between atoms: C_13  and  C_14
REMARK    6  A    between atoms: C_13  and  C_24
REMARK    7  A    between atoms: C_24  and  C_26
REMARK                            x       y       z     vdW  Elec       q    Type
REMARK                         _______ _______ _______ _____ _____    ______ ____
ROOT
ATOM      1  C   UNL     1       5.802   4.039   0.197  0.00  0.00    +0.023 C 
ATOM      2  C   UNL     1       4.955   2.965   0.042  0.00  0.00    +0.066 C 
ENDROOT
BRANCH   2   3
ATOM      3  C   UNL     1       3.503   3.182  -0.077  0.00  0.00    +0.143 A 
ATOM      4  N   UNL     1       2.663   3.487   0.963  0.00  0.00    -0.338 N 
ATOM      5  H   UNL     1       2.923   3.600   1.922  0.00  0.00    +0.167 HD
ATOM      6  C   UNL     1       1.391   3.608   0.438  0.00  0.00    +0.066 A 
ATOM      7  C   UNL     1       0.148   3.899   0.983  0.00  0.00    +0.028 A 
ATOM      8  C   UNL     1      -0.964   3.941   0.168  0.00  0.00    +0.002 A 
ATOM      9  C   UNL     1      -0.846   3.706  -1.195  0.00  0.00    +0.002 A 
ATOM     10  C   UNL     1       0.369   3.418  -1.750  0.00  0.00    +0.030 A 
ATOM     11  C   UNL     1       1.510   3.364  -0.942  0.00  0.00    +0.089 A 
ATOM     12  N   UNL     1       2.817   3.111  -1.194  0.00  0.00    -0.228 NA
ENDBRANCH   2   3
BRANCH   1  16
ATOM     13  C   UNL     1       4.297   7.977  -0.120  0.00  0.00    +0.058 A 
ATOM     14  C   UNL     1       3.757   6.962  -0.908  0.00  0.00    +0.026 A 
ATOM     15  C   UNL     1       4.244   5.690  -0.814  0.00  0.00    +0.010 A 
ATOM     16  C   UNL     1       5.280   5.403   0.087  0.00  0.00    -0.022 A 
ATOM     17  C   UNL     1       5.820   6.428   0.877  0.00  0.00    +0.042 A 
ATOM     18  C   UNL     1       5.331   7.699   0.771  0.00  0.00    +0.147 A 
BRANCH  13  20
ATOM     19  C   UNL     1       2.627   9.542  -1.057  0.00  0.00    +0.125 C 
ATOM     20  N   UNL     1       3.802   9.272  -0.225  0.00  0.00    -0.345 N 
ATOM     21  H   UNL     1       4.234   9.996   0.254  0.00  0.00    +0.146 HD
ENDBRANCH  13  20
BRANCH  18  22
ATOM     22  N   UNL     1       5.899   8.782   1.604  0.00  0.00    +0.058 N 
ATOM     23  O   UNL     1       6.855   8.557   2.325  0.00  0.00    -0.126 OA
ATOM     24  O   UNL     1       5.411   9.897   1.569  0.00  0.00    -0.126 OA
ENDBRANCH  18  22
ENDBRANCH   1  16
BRANCH   2  25
ATOM     25  C   UNL     1       5.501   1.599  -0.005  0.00  0.00    +0.203 C 
ATOM     26  O   UNL     1       6.707   1.426  -0.021  0.00  0.00    -0.286 OA
BRANCH  25  27
ATOM     27  C   UNL     1       4.595   0.448  -0.034  0.00  0.00    +0.060 A 
ATOM     28  C   UNL     1       4.900  -0.905  -0.051  0.00  0.00    +0.019 A 
ATOM     29  C   UNL     1       3.845  -1.783  -0.077  0.00  0.00    +0.008 A 
ATOM     30  C   UNL     1       2.576  -1.296  -0.086  0.00  0.00    +0.046 A 
ATOM     31  S   UNL     1       2.811   0.422  -0.049  0.00  0.00    -0.093 S 
ENDBRANCH  25  27
ENDBRANCH   2  25
TORSDOF 6
