REMARK  Name = ZINC13799597
REMARK  11 active torsions:
REMARK  status: ('A' for Active; 'I' for Inactive)
REMARK    1  A    between atoms: C_1  and  C_2
REMARK    2  A    between atoms: C_6  and  O_8
REMARK    3  A    between atoms: O_8  and  C_9
REMARK    4  A    between atoms: C_9  and  C_10
REMARK    5  A    between atoms: C_10  and  C_11
REMARK    6  A    between atoms: C_11  and  O_12
REMARK    7  A    between atoms: O_12  and  C_13
REMARK    8  A    between atoms: C_16  and  C_21
REMARK    9  A    between atoms: C_18  and  O_19
REMARK   10  A    between atoms: O_19  and  C_20
REMARK   11  A    between atoms: C_26  and  C_33
REMARK                            x       y       z     vdW  Elec       q    Type
REMARK                         _______ _______ _______ _____ _____    ______ ____
ROOT
ATOM      1  C   UNL     1       0.344  -8.330   4.821  0.00  0.00    +0.162 A 
ATOM      2  C   UNL     1       0.600  -9.219   3.784  0.00  0.00    +0.050 A 
ATOM      3  C   UNL     1       0.443 -10.572   3.978  0.00  0.00    +0.012 A 
ATOM      4  C   UNL     1       0.025 -11.057   5.226  0.00  0.00    -0.021 A 
ATOM      5  C   UNL     1      -0.232 -10.158   6.271  0.00  0.00    +0.057 A 
ATOM      6  C   UNL     1      -0.067  -8.803   6.067  0.00  0.00    +0.162 A 
ENDROOT
BRANCH   4   7
ATOM      7  C   UNL     1      -0.144 -12.496   5.436  0.00  0.00    +0.024 C 
ATOM      8  C   UNL     1      -0.735 -13.270   4.462  0.00  0.00    +0.079 C 
ATOM      9  C   UNL     1      -0.765 -14.757   4.548  0.00  0.00    +0.136 C 
ATOM     10  N   UNL     1      -0.845 -15.409   5.676  0.00  0.00    -0.284 NA
ATOM     11  N   UNL     1      -0.698 -15.393   3.287  0.00  0.00    -0.233 N 
ATOM     12  C   UNL     1      -0.260 -16.677   3.080  0.00  0.00    +0.056 C 
ATOM     13  C   UNL     1      -0.318 -17.156   1.818  0.00  0.00    +0.072 C 
ATOM     14  S   UNL     1      -0.994 -15.770   0.922  0.00  0.00    -0.062 S 
ATOM     15  C   UNL     1      -1.104 -14.681   2.183  0.00  0.00    +0.163 C 
ATOM     16  N   UNL     1      -1.466 -13.415   2.151  0.00  0.00    -0.154 NA
ATOM     17  C   UNL     1      -1.384 -12.669   3.270  0.00  0.00    +0.273 C 
ATOM     18  O   UNL     1      -1.825 -11.532   3.303  0.00  0.00    -0.268 OA
ATOM     19  H   UNL     1      -0.963 -14.925   6.509  0.00  0.00    +0.188 HD
BRANCH  12  20
ATOM     20  C   UNL     1       0.255 -17.503   4.193  0.00  0.00    -0.003 A 
ATOM     21  C   UNL     1      -0.214 -18.804   4.375  0.00  0.00    +0.010 A 
ATOM     22  C   UNL     1       0.271 -19.570   5.416  0.00  0.00    +0.001 A 
ATOM     23  C   UNL     1       1.221 -19.050   6.277  0.00  0.00    +0.000 A 
ATOM     24  C   UNL     1       1.690 -17.760   6.101  0.00  0.00    +0.001 A 
ATOM     25  C   UNL     1       1.217 -16.986   5.062  0.00  0.00    +0.010 A 
ENDBRANCH  12  20
ENDBRANCH   4   7
BRANCH   6  26
ATOM     26  O   UNL     1      -0.309  -7.929   7.080  0.00  0.00    -0.491 OA
ATOM     27  C   UNL     1      -0.727  -8.484   8.330  0.00  0.00    +0.277 C 
ENDBRANCH   6  26
BRANCH   1  28
ATOM     28  O   UNL     1       0.501  -6.996   4.622  0.00  0.00    -0.488 OA
BRANCH  28  29
ATOM     29  C   UNL     1       0.924  -6.578   3.323  0.00  0.00    +0.232 C 
BRANCH  29  30
ATOM     30  C   UNL     1       1.044  -5.053   3.291  0.00  0.00    +0.082 C 
BRANCH  30  31
ATOM     31  C   UNL     1       1.496  -4.607   1.899  0.00  0.00    +0.232 C 
BRANCH  31  32
ATOM     32  O   UNL     1       1.608  -3.182   1.869  0.00  0.00    -0.492 OA
BRANCH  32  38
ATOM     33  C   UNL     1       2.675   0.825  -0.704  0.00  0.00    +0.044 C 
ATOM     34  C   UNL     1       2.534  -0.671  -0.595  0.00  0.00    -0.047 A 
ATOM     35  C   UNL     1       2.807  -1.472  -1.689  0.00  0.00    +0.003 A 
ATOM     36  C   UNL     1       2.679  -2.845  -1.592  0.00  0.00    +0.004 A 
ATOM     37  C   UNL     1       2.277  -3.421  -0.401  0.00  0.00    +0.045 A 
ATOM     38  C   UNL     1       2.003  -2.619   0.697  0.00  0.00    +0.121 A 
ATOM     39  C   UNL     1       2.139  -1.242   0.599  0.00  0.00    +0.049 A 
ENDBRANCH  32  38
ENDBRANCH  31  32
ENDBRANCH  30  31
ENDBRANCH  29  30
ENDBRANCH  28  29
ENDBRANCH   1  28
TORSDOF 9
