REMARK  Name = ZINC45947737
REMARK  6 active torsions:
REMARK  status: ('A' for Active; 'I' for Inactive)
REMARK    1  A    between atoms: C_1  and  O_2
REMARK    2  A    between atoms: O_2  and  C_3
REMARK    3  A    between atoms: C_3  and  C_4
REMARK    4  A    between atoms: C_6  and  N_20
REMARK    5  A    between atoms: C_23  and  C_26
REMARK    6  A    between atoms: C_26  and  N_27
REMARK                            x       y       z     vdW  Elec       q    Type
REMARK                         _______ _______ _______ _____ _____    ______ ____
ROOT
ATOM      1  C   UNL     1       0.438  -2.092  -1.153  0.00  0.00    +0.074 A 
ATOM      2  C   UNL     1      -0.178  -2.709  -0.082  0.00  0.00    +0.069 A 
ATOM      3  C   UNL     1      -0.008  -4.085   0.083  0.00  0.00    +0.127 A 
ATOM      4  N   UNL     1       0.737  -4.752  -0.793  0.00  0.00    -0.199 NA
ATOM      5  C   UNL     1       1.310  -4.123  -1.808  0.00  0.00    +0.220 A 
ATOM      6  N   UNL     1       1.162  -2.819  -1.991  0.00  0.00    -0.217 NA
ATOM      7  N   UNL     1       2.080  -4.847  -2.703  0.00  0.00    -0.295 N 
ATOM      8  C   UNL     1       2.744  -4.195  -3.844  0.00  0.00    +0.113 C 
ATOM      9  C   UNL     1       4.253  -4.330  -3.649  0.00  0.00    +0.054 C 
ATOM     10  C   UNL     1       4.622  -5.745  -3.288  0.00  0.00    -0.041 A 
ATOM     11  C   UNL     1       5.939  -6.140  -3.492  0.00  0.00    +0.004 A 
ATOM     12  C   UNL     1       6.345  -7.419  -3.174  0.00  0.00    +0.000 A 
ATOM     13  C   UNL     1       5.437  -8.318  -2.646  0.00  0.00    +0.000 A 
ATOM     14  C   UNL     1       4.128  -7.930  -2.446  0.00  0.00    +0.005 A 
ATOM     15  C   UNL     1       3.717  -6.644  -2.771  0.00  0.00    -0.027 A 
ATOM     16  C   UNL     1       2.271  -6.293  -2.548  0.00  0.00    +0.143 C 
ENDROOT
BRANCH   3  17
ATOM     17  N   UNL     1      -0.606  -4.746   1.143  0.00  0.00    -0.315 N 
ATOM     18  C   UNL     1      -0.616  -6.214   1.201  0.00  0.00    +0.107 C 
ATOM     19  C   UNL     1      -0.035  -6.659   2.547  0.00  0.00    +0.020 C 
ATOM     20  C   UNL     1      -0.807  -5.980   3.680  0.00  0.00    -0.026 C 
ATOM     21  C   UNL     1      -0.654  -4.461   3.566  0.00  0.00    +0.020 C 
ATOM     22  C   UNL     1      -1.237  -3.991   2.235  0.00  0.00    +0.107 C 
BRANCH  20  23
ATOM     23  C   UNL     1      -0.252  -6.448   5.027  0.00  0.00    -0.083 C 
BRANCH  23  24
ATOM     24  N   UNL     1      -1.069  -5.891   6.114  0.00  0.00    +0.378 N 
ATOM     25  H   UNL     1      -0.703  -6.200   7.002  0.00  0.00    -0.090 HD
ATOM     26  H   UNL     1      -1.042  -4.883   6.071  0.00  0.00    -0.090 HD
ATOM     27  H   UNL     1      -2.022  -6.207   6.014  0.00  0.00    -0.090 HD
ENDBRANCH  23  24
ENDBRANCH  20  23
ENDBRANCH   3  17
BRANCH   1  28
ATOM     28  C   UNL     1       0.281  -0.609  -1.371  0.00  0.00    +0.214 C 
BRANCH  28  30
ATOM     29  C   UNL     1      -0.752   1.349  -0.452  0.00  0.00    +0.194 C 
ATOM     30  O   UNL     1      -0.540  -0.060  -0.339  0.00  0.00    -0.377 OA
ENDBRANCH  28  30
ENDBRANCH   1  28
TORSDOF 5
