REMARK  Name = ZINC02438211
REMARK  10 active torsions:
REMARK  status: ('A' for Active; 'I' for Inactive)
REMARK    1  A    between atoms: C_1  and  C_2
REMARK    2  A    between atoms: C_3  and  C_33
REMARK    3  A    between atoms: N_9  and  C_27
REMARK    4  A    between atoms: C_10  and  S_12
REMARK    5  A    between atoms: S_12  and  C_13
REMARK    6  A    between atoms: C_13  and  C_14
REMARK    7  A    between atoms: N_16  and  C_17
REMARK    8  A    between atoms: C_20  and  S_23
REMARK    9  A    between atoms: S_23  and  N_26
REMARK   10  A    between atoms: C_27  and  C_28
REMARK                            x       y       z     vdW  Elec       q    Type
REMARK                         _______ _______ _______ _____ _____    ______ ____
ROOT
ATOM      1  C   UNL     1      -4.443  -0.075  -3.725  0.00  0.00    +0.045 C 
ATOM      2  C   UNL     1      -3.776   1.186  -4.210  0.00  0.00    -0.026 A 
ATOM      3  C   UNL     1      -3.999   1.636  -5.454  0.00  0.00    -0.008 A 
ATOM      4  S   UNL     1      -3.010   3.117  -5.542  0.00  0.00    -0.073 S 
ATOM      5  C   UNL     1      -2.325   3.088  -3.905  0.00  0.00    +0.117 A 
ATOM      6  C   UNL     1      -2.884   1.928  -3.336  0.00  0.00    +0.075 A 
ATOM      7  C   UNL     1      -2.497   1.648  -1.988  0.00  0.00    +0.264 A 
ATOM      8  O   UNL     1      -2.931   0.665  -1.413  0.00  0.00    -0.267 OA
ATOM      9  N   UNL     1      -1.648   2.484  -1.363  0.00  0.00    -0.280 N 
ATOM     10  C   UNL     1      -1.155   3.592  -1.989  0.00  0.00    +0.173 A 
ATOM     11  N   UNL     1      -1.491   3.871  -3.232  0.00  0.00    -0.216 NA
ATOM     12  C   UNL     1      -4.876   1.034  -6.521  0.00  0.00    +0.052 C 
ENDROOT
BRANCH  10  13
ATOM     13  S   UNL     1      -0.051   4.660  -1.125  0.00  0.00    -0.078 S 
BRANCH  13  14
ATOM     14  C   UNL     1       0.251   5.902  -2.407  0.00  0.00    +0.173 C 
BRANCH  14  15
ATOM     15  C   UNL     1       1.197   6.949  -1.878  0.00  0.00    +0.227 C 
ATOM     16  O   UNL     1       1.625   6.864  -0.746  0.00  0.00    -0.275 OA
ATOM     17  N   UNL     1       1.568   7.980  -2.663  0.00  0.00    -0.285 N 
ATOM     18  H   UNL     1       1.280   8.012  -3.589  0.00  0.00    +0.155 HD
BRANCH  17  19
ATOM     19  C   UNL     1       2.368   9.003  -2.143  0.00  0.00    +0.034 A 
ATOM     20  C   UNL     1       2.191  10.312  -2.572  0.00  0.00    +0.025 A 
ATOM     21  C   UNL     1       2.978  11.320  -2.051  0.00  0.00    +0.030 A 
ATOM     22  C   UNL     1       3.950  11.026  -1.113  0.00  0.00    +0.105 A 
ATOM     23  C   UNL     1       4.133   9.723  -0.688  0.00  0.00    +0.030 A 
ATOM     24  C   UNL     1       3.345   8.711  -1.200  0.00  0.00    +0.025 A 
BRANCH  22  25
ATOM     25  S   UNL     1       4.958  12.314  -0.457  0.00  0.00    +0.056 S 
ATOM     26  O   UNL     1       4.224  13.521  -0.611  0.00  0.00    -0.153 OA
ATOM     27  O   UNL     1       5.424  11.862   0.807  0.00  0.00    -0.153 OA
BRANCH  25  28
ATOM     28  N   UNL     1       6.288  12.441  -1.435  0.00  0.00    -0.204 NA
ATOM     29  H   UNL     1       6.384  11.855  -2.202  0.00  0.00    +0.144 HD
ATOM     30  H   UNL     1       6.972  13.101  -1.240  0.00  0.00    +0.144 HD
ENDBRANCH  25  28
ENDBRANCH  22  25
ENDBRANCH  17  19
ENDBRANCH  14  15
ENDBRANCH  13  14
ENDBRANCH  10  13
BRANCH   9  31
ATOM     31  C   UNL     1      -1.248   2.201   0.018  0.00  0.00    +0.201 C 
BRANCH  31  32
ATOM     32  C   UNL     1      -0.011   1.341   0.017  0.00  0.00    +0.125 A 
ATOM     33  C   UNL     1       1.258   1.787   0.014  0.00  0.00    +0.046 A 
ATOM     34  C   UNL     1       2.094   0.647   0.008  0.00  0.00    +0.041 A 
ATOM     35  C   UNL     1       1.285  -0.428   0.008  0.00  0.00    +0.195 A 
ATOM     36  O   UNL     1       0.012  -0.002   0.014  0.00  0.00    -0.466 OA
ENDBRANCH  31  32
ENDBRANCH   9  31
TORSDOF 8
