REMARK  Name = ZINC15900598
REMARK  6 active torsions:
REMARK  status: ('A' for Active; 'I' for Inactive)
REMARK    1  A    between atoms: C_1  and  C_2
REMARK    2  A    between atoms: N_8  and  S_9
REMARK    3  A    between atoms: S_9  and  C_12
REMARK    4  A    between atoms: C_15  and  C_18
REMARK    5  A    between atoms: N_20  and  N_21
REMARK    6  A    between atoms: C_22  and  C_24
REMARK                            x       y       z     vdW  Elec       q    Type
REMARK                         _______ _______ _______ _____ _____    ______ ____
ROOT
ATOM      1  C   UNL     1      -2.900   0.398  -0.181  0.00  0.00    +0.260 C 
ATOM      2  O   UNL     1      -2.606   1.569  -0.321  0.00  0.00    -0.269 OA
ATOM      3  N   UNL     1      -1.931  -0.532  -0.070  0.00  0.00    -0.230 N 
ATOM      4  H   UNL     1      -2.166  -1.466   0.042  0.00  0.00    +0.173 HD
ENDROOT
BRANCH   1   8
ATOM      5  C   UNL     1      -6.983  -0.764  -0.039  0.00  0.00    +0.106 A 
ATOM      6  C   UNL     1      -6.652   0.570  -0.199  0.00  0.00    +0.029 A 
ATOM      7  C   UNL     1      -5.328   0.954  -0.245  0.00  0.00    +0.015 A 
ATOM      8  C   UNL     1      -4.321  -0.006  -0.131  0.00  0.00    +0.038 A 
ATOM      9  C   UNL     1      -4.663  -1.351   0.024  0.00  0.00    +0.015 A 
ATOM     10  C   UNL     1      -5.991  -1.721   0.075  0.00  0.00    +0.029 A 
BRANCH   5  11
ATOM     11  S   UNL     1      -8.677  -1.246   0.020  0.00  0.00    +0.061 S 
ATOM     12  O   UNL     1      -8.708  -2.555   0.571  0.00  0.00    -0.153 OA
ATOM     13  O   UNL     1      -9.389  -0.160   0.597  0.00  0.00    -0.153 OA
BRANCH  11  20
ATOM     14  C   UNL     1      -8.232  -3.627  -1.445  0.00  0.00    +0.026 C 
ATOM     15  C   UNL     1      -8.900  -2.578  -2.337  0.00  0.00    +0.077 C 
ATOM     16  C   UNL     1     -10.216  -3.139  -2.897  0.00  0.00    +0.020 C 
ATOM     17  C   UNL     1     -10.942  -2.039  -3.675  0.00  0.00    +0.003 C 
ATOM     18  C   UNL     1     -11.275  -0.881  -2.733  0.00  0.00    +0.017 C 
ATOM     19  C   UNL     1      -9.976  -0.296  -2.169  0.00  0.00    +0.110 C 
ATOM     20  N   UNL     1      -9.203  -1.379  -1.545  0.00  0.00    -0.174 NA
ENDBRANCH  11  20
ENDBRANCH   5  11
ENDBRANCH   1   8
BRANCH   3  21
ATOM     21  N   UNL     1      -0.584  -0.149  -0.117  0.00  0.00    -0.234 N 
ATOM     22  C   UNL     1       0.385  -1.079  -0.007  0.00  0.00    +0.235 C 
ATOM     23  O   UNL     1       0.092  -2.247   0.133  0.00  0.00    -0.274 OA
ATOM     24  H   UNL     1      -0.349   0.786  -0.229  0.00  0.00    +0.173 HD
BRANCH  22  25
ATOM     25  C   UNL     1       1.834  -0.667  -0.063  0.00  0.00    +0.049 C 
ATOM     26  C   UNL     1       2.119   0.014  -1.403  0.00  0.00    +0.019 C 
ATOM     27  C   UNL     1       3.590   0.432  -1.460  0.00  0.00    -0.009 C 
ATOM     28  C   UNL     1       4.477  -0.806  -1.319  0.00  0.00    +0.007 C 
ATOM     29  C   UNL     1       4.192  -1.487   0.021  0.00  0.00    -0.009 C 
ATOM     30  C   UNL     1       2.722  -1.905   0.079  0.00  0.00    +0.019 C 
ATOM     31  C   UNL     1       4.491  -0.513   1.162  0.00  0.00    +0.007 C 
ATOM     32  C   UNL     1       3.603   0.725   1.021  0.00  0.00    -0.009 C 
ATOM     33  C   UNL     1       3.888   1.406  -0.319  0.00  0.00    +0.007 C 
ATOM     34  C   UNL     1       2.132   0.307   1.078  0.00  0.00    +0.019 C 
ENDBRANCH  22  25
ENDBRANCH   3  21
TORSDOF 5
