REMARK  Name = ZINC13350375
REMARK  8 active torsions:
REMARK  status: ('A' for Active; 'I' for Inactive)
REMARK    1  A    between atoms: C_1  and  C_2
REMARK    2  A    between atoms: C_2  and  C_16
REMARK    3  A    between atoms: N_3  and  N_4
REMARK    4  A    between atoms: N_4  and  C_5
REMARK    5  A    between atoms: CA_7  and  C_13
REMARK    6  A    between atoms: C_19  and  S_22
REMARK    7  A    between atoms: S_22  and  N_25
REMARK    8  A    between atoms: N_25  and  C_26
REMARK                            x       y       z     vdW  Elec       q    Type
REMARK                         _______ _______ _______ _____ _____    ______ ____
ROOT
ATOM      1  C   UNL     1       4.794   0.441  -0.018  0.00  0.00    +0.068 C 
ATOM      2  C   UNL     1       4.714   1.910  -0.347  0.00  0.00    +0.063 C 
ATOM      3  N   UNL     1       3.567   2.517  -0.333  0.00  0.00    -0.187 NA
ENDROOT
BRANCH   2   4
ATOM      4  C   UNL     1       5.939   2.657  -0.685  0.00  0.00    -0.002 A 
ATOM      5  C   UNL     1       7.177   2.009  -0.696  0.00  0.00    +0.011 A 
ATOM      6  C   UNL     1       8.318   2.713  -1.019  0.00  0.00    +0.029 A 
ATOM      7  C   UNL     1       8.241   4.061  -1.320  0.00  0.00    +0.105 A 
ATOM      8  C   UNL     1       7.019   4.712  -1.306  0.00  0.00    +0.029 A 
ATOM      9  C   UNL     1       5.869   4.019  -0.991  0.00  0.00    +0.011 A 
BRANCH   7  10
ATOM     10  S   UNL     1       9.705   4.955  -1.724  0.00  0.00    +0.058 S 
ATOM     11  O   UNL     1      10.644   4.001  -2.200  0.00  0.00    -0.153 OA
ATOM     12  O   UNL     1       9.297   6.074  -2.499  0.00  0.00    -0.153 OA
BRANCH  10  13
ATOM     13  N   UNL     1      10.318   5.557  -0.309  0.00  0.00    -0.193 NA
ATOM     14  C   UNL     1      10.806   4.641   0.726  0.00  0.00    +0.127 C 
ATOM     15  H   UNL     1      10.353   6.515  -0.165  0.00  0.00    +0.148 HD
ENDBRANCH  10  13
ENDBRANCH   7  10
ENDBRANCH   2   4
BRANCH   3  16
ATOM     16  N   UNL     1       2.402   1.806  -0.011  0.00  0.00    -0.235 N 
ATOM     17  H   UNL     1       2.454   0.861   0.201  0.00  0.00    +0.174 HD
BRANCH  16  18
ATOM     18  C   UNL     1       1.172   2.457   0.004  0.00  0.00    +0.090 A 
ATOM     19  C   UNL     1      -0.021   1.732   0.012  0.00  0.00    +0.097 A 
ATOM     20  CA  UNL     1      -1.230   2.422   0.021  0.00  0.00    +0.173 A 
ATOM     21  N   UNL     1      -1.251   3.752   0.033  0.00  0.00    -0.225 NA
ATOM     22  C   UNL     1      -0.143   4.463   0.026  0.00  0.00    +0.150 A 
ATOM     23  C   UNL     1       1.100   3.849   0.012  0.00  0.00    +0.102 A 
ATOM     24 CL   UNL     1       2.550   4.803   0.002  0.00  0.00    -0.078 Cl
ATOM     25 CL   UNL     1      -0.241   6.197   0.037  0.00  0.00    -0.060 Cl
ATOM     26 CL   UNL     1       0.002  -0.004   0.002  0.00  0.00    -0.079 Cl
BRANCH  20  27
ATOM     27  C   UNL     1      -2.503   1.670   0.023  0.00  0.00    +0.406 C 
ATOM     28  O   UNL     1      -2.491   0.455   0.017  0.00  0.00    -0.239 OA
ATOM     29  OXT UNL     1      -3.677   2.331   0.032  0.00  0.00    -0.239 OA
ENDBRANCH  20  27
ENDBRANCH  16  18
ENDBRANCH   3  16
TORSDOF 6
