REMARK  Name = ZINC03414035
REMARK  8 active torsions:
REMARK  status: ('A' for Active; 'I' for Inactive)
REMARK    1  A    between atoms: C_1  and  C_2
REMARK    2  A    between atoms: C_2  and  C_31
REMARK    3  A    between atoms: N_5  and  N_9
REMARK    4  A    between atoms: C_10  and  C_12
REMARK    5  A    between atoms: C_12  and  S_13
REMARK    6  A    between atoms: S_13  and  C_14
REMARK    7  A    between atoms: C_17  and  C_20
REMARK    8  A    between atoms: N_18  and  C_19
REMARK                            x       y       z     vdW  Elec       q    Type
REMARK                         _______ _______ _______ _____ _____    ______ ____
ROOT
ATOM      1  N   UNL     1       9.794   9.210   1.803  0.00  0.00    -0.223 N 
ATOM      2  C   UNL     1       8.878   9.099   0.821  0.00  0.00    +0.240 C 
ATOM      3  O   UNL     1       9.012   9.726  -0.208  0.00  0.00    -0.273 OA
ATOM      4  H   UNL     1       9.672   8.642   2.737  0.00  0.00    +0.174 HD
ENDROOT
BRANCH   1   9
ATOM      5  C   UNL     1      13.321  11.996   2.949  0.00  0.00    +0.047 C 
ATOM      6  C   UNL     1      12.376  11.792   1.762  0.00  0.00    +0.137 C 
ATOM      7  C   UNL     1      11.040  11.251   2.232  0.00  0.00    +0.267 C 
ATOM      8  O   UNL     1      10.258  11.787   2.987  0.00  0.00    -0.271 OA
ATOM      9  N   UNL     1      10.902  10.051   1.634  0.00  0.00    -0.137 N 
ATOM     10  C   UNL     1      11.957   9.759   0.865  0.00  0.00    +0.327 C 
ATOM     11  O   UNL     1      12.064   8.729   0.228  0.00  0.00    -0.251 OA
ATOM     12  N   UNL     1      12.884  10.734   0.872  0.00  0.00    -0.280 N 
ATOM     13  H   UNL     1      13.856  10.855   0.372  0.00  0.00    +0.152 HD
BRANCH   6  14
ATOM     14  C   UNL     1      12.190  13.082   1.007  0.00  0.00    -0.015 A 
ATOM     15  C   UNL     1      11.133  13.917   1.315  0.00  0.00    +0.006 A 
ATOM     16  C   UNL     1      10.965  15.104   0.625  0.00  0.00    +0.000 A 
ATOM     17  C   UNL     1      11.849  15.449  -0.380  0.00  0.00    +0.000 A 
ATOM     18  C   UNL     1      12.903  14.612  -0.692  0.00  0.00    +0.000 A 
ATOM     19  C   UNL     1      13.074  13.428   0.002  0.00  0.00    +0.006 A 
ENDBRANCH   6  14
ENDBRANCH   1   9
BRANCH   2  20
ATOM     20  C   UNL     1       7.686   8.195   1.003  0.00  0.00    +0.174 C 
BRANCH  20  21
ATOM     21  S   UNL     1       6.647   8.260  -0.478  0.00  0.00    -0.077 S 
BRANCH  21  22
ATOM     22  C   UNL     1       5.368   7.145  -0.005  0.00  0.00    +0.192 A 
ATOM     23  N   UNL     1       5.281   6.494   1.132  0.00  0.00    -0.122 NA
ATOM     24  N   UNL     1       4.220   5.769   1.139  0.00  0.00    -0.130 NA
ATOM     25  C   UNL     1       3.572   5.913   0.018  0.00  0.00    +0.178 A 
ATOM     26  N   UNL     1       4.282   6.790  -0.753  0.00  0.00    -0.306 N 
ATOM     27  C   UNL     1       3.947   7.256  -2.101  0.00  0.00    +0.153 C 
BRANCH  25  28
ATOM     28  C   UNL     1       2.281   5.233  -0.361  0.00  0.00    +0.278 C 
ATOM     29  C   UNL     1       1.113   5.884   0.392  0.00  0.00    +0.281 C 
ATOM     30  O   UNL     1      -0.092   5.206   0.020  0.00  0.00    -0.484 OA
ATOM     31  C   UNL     1      -0.054   3.846   0.020  0.00  0.00    +0.162 A 
ATOM     32  C   UNL     1      -1.243   3.131   0.029  0.00  0.00    +0.049 A 
ATOM     33  C   UNL     1      -1.220   1.750   0.017  0.00  0.00    +0.004 A 
ATOM     34  C   UNL     1      -0.013   1.076   0.008  0.00  0.00    +0.004 A 
ATOM     35  C   UNL     1       1.175   1.782   0.000  0.00  0.00    +0.049 A 
ATOM     36  C   UNL     1       1.160   3.169   0.008  0.00  0.00    +0.163 A 
ATOM     37  O   UNL     1       2.338   3.850   0.008  0.00  0.00    -0.474 OA
ENDBRANCH  25  28
ENDBRANCH  21  22
ENDBRANCH  20  21
ENDBRANCH   2  20
TORSDOF 6
