REMARK  Name = ZINC38666963
REMARK  13 active torsions:
REMARK  status: ('A' for Active; 'I' for Inactive)
REMARK    1  A    between atoms: C_1  and  C_2
REMARK    2  A    between atoms: C_4  and  C_36
REMARK    3  A    between atoms: C_5  and  C_35
REMARK    4  A    between atoms: C_6  and  S_9
REMARK    5  A    between atoms: C_7  and  C_8
REMARK    6  A    between atoms: S_9  and  N_12
REMARK    7  A    between atoms: N_12  and  C_13
REMARK    8  A    between atoms: C_13  and  C_14
REMARK    9  A    between atoms: C_14  and  C_16
REMARK   10  A    between atoms: C_14  and  N_25
REMARK   11  A    between atoms: C_19  and  N_22
REMARK   12  A    between atoms: N_22  and  C_23
REMARK   13  A    between atoms: N_22  and  C_24
REMARK                            x       y       z     vdW  Elec       q    Type
REMARK                         _______ _______ _______ _____ _____    ______ ____
ROOT
ATOM      1  C   UNL     1       3.619  -2.018   4.735  0.00  0.00    +0.103 C 
ENDROOT
BRANCH   1   2
ATOM      2  N   UNL     1       4.465  -2.990   4.029  0.00  0.00    -0.290 NA
ATOM      3  C   UNL     1       5.370  -3.678   4.963  0.00  0.00    +0.090 C 
ATOM      4  C   UNL     1       5.949  -4.907   4.261  0.00  0.00    +0.051 C 
ATOM      5  C   UNL     1       6.508  -4.515   2.917  0.00  0.00    -0.042 A 
ATOM      6  C   UNL     1       7.383  -5.386   2.285  0.00  0.00    +0.004 A 
ATOM      7  C   UNL     1       7.915  -5.068   1.052  0.00  0.00    +0.000 A 
ATOM      8  C   UNL     1       7.573  -3.875   0.443  0.00  0.00    +0.000 A 
ATOM      9  C   UNL     1       6.704  -3.007   1.071  0.00  0.00    +0.005 A 
ATOM     10  C   UNL     1       6.170  -3.324   2.312  0.00  0.00    -0.030 A 
ATOM     11  C   UNL     1       5.235  -2.339   2.963  0.00  0.00    +0.120 C 
ENDBRANCH   1   2
BRANCH   1  12
ATOM     12  C   UNL     1       4.482  -0.925   5.311  0.00  0.00    -0.029 A 
ATOM     13  C   UNL     1       4.979   0.068   4.487  0.00  0.00    +0.007 A 
ATOM     14  C   UNL     1       5.771   1.071   5.012  0.00  0.00    +0.023 A 
ATOM     15  C   UNL     1       6.066   1.081   6.369  0.00  0.00    +0.029 A 
ATOM     16  C   UNL     1       5.565   0.082   7.194  0.00  0.00    +0.023 A 
ATOM     17  C   UNL     1       4.770  -0.915   6.663  0.00  0.00    +0.007 A 
BRANCH  15  18
ATOM     18  N   UNL     1       6.867   2.094   6.903  0.00  0.00    -0.336 N 
ATOM     19  C   UNL     1       7.291   3.214   6.060  0.00  0.00    +0.129 C 
ATOM     20  C   UNL     1       7.282   2.035   8.307  0.00  0.00    +0.129 C 
ENDBRANCH  15  18
ENDBRANCH   1  12
BRANCH   1  21
ATOM     21  C   UNL     1       2.614  -1.411   3.755  0.00  0.00    +0.129 C 
BRANCH  21  22
ATOM     22  N   UNL     1       1.855  -2.483   3.105  0.00  0.00    -0.188 NA
ATOM     23  H   UNL     1       2.170  -3.399   3.156  0.00  0.00    +0.148 HD
BRANCH  22  24
ATOM     24  S   UNL     1       0.461  -2.131   2.285  0.00  0.00    +0.059 S 
ATOM     25  O   UNL     1      -0.323  -1.316   3.146  0.00  0.00    -0.153 OA
ATOM     26  O   UNL     1      -0.019  -3.359   1.754  0.00  0.00    -0.153 OA
BRANCH  24  32
ATOM     27  C   UNL     1       1.886  -1.564  -2.712  0.00  0.00    +0.044 C 
ATOM     28  C   UNL     1       1.558  -0.925  -1.388  0.00  0.00    -0.045 A 
ATOM     29  C   UNL     1       1.606   0.450  -1.253  0.00  0.00    +0.007 A 
ATOM     30  C   UNL     1       1.305   1.037  -0.038  0.00  0.00    -0.045 A 
ATOM     31  C   UNL     1       0.955   0.249   1.042  0.00  0.00    -0.021 A 
ATOM     32  C   UNL     1       0.906  -1.126   0.907  0.00  0.00    +0.112 A 
ATOM     33  C   UNL     1       1.203  -1.713  -0.309  0.00  0.00    -0.021 A 
ATOM     34  C   UNL     1       1.144  -3.211  -0.457  0.00  0.00    +0.046 C 
ATOM     35  C   UNL     1       0.628   0.888   2.367  0.00  0.00    +0.046 C 
ATOM     36  C   UNL     1       1.359   2.536   0.109  0.00  0.00    +0.044 C 
ENDBRANCH  24  32
ENDBRANCH  22  24
ENDBRANCH  21  22
ENDBRANCH   1  21
TORSDOF 7
