REMARK  Name = ZINC09440862
REMARK  7 active torsions:
REMARK  status: ('A' for Active; 'I' for Inactive)
REMARK    1  A    between atoms: C_1  and  C_2
REMARK    2  A    between atoms: C_2  and  C_29
REMARK    3  A    between atoms: N_5  and  N_9
REMARK    4  A    between atoms: C_10  and  C_12
REMARK    5  A    between atoms: C_12  and  S_13
REMARK    6  A    between atoms: S_13  and  C_14
REMARK    7  A    between atoms: C_17  and  C_23
REMARK                            x       y       z     vdW  Elec       q    Type
REMARK                         _______ _______ _______ _____ _____    ______ ____
ROOT
ATOM      1  N   UNL     1      -1.191   1.867   0.018  0.00  0.00    -0.223 N 
ATOM      2  C   UNL     1      -0.014   1.209   0.009  0.00  0.00    +0.240 C 
ATOM      3  O   UNL     1       0.002  -0.004   0.002  0.00  0.00    -0.273 OA
ATOM      4  H   UNL     1      -1.204   2.837   0.023  0.00  0.00    +0.174 HD
ENDROOT
BRANCH   1   9
ATOM      5  C   UNL     1      -5.670   0.943   0.783  0.00  0.00    +0.047 C 
ATOM      6  C   UNL     1      -4.361   0.165   0.636  0.00  0.00    +0.137 C 
ATOM      7  C   UNL     1      -3.187   1.004   1.100  0.00  0.00    +0.267 C 
ATOM      8  O   UNL     1      -3.000   1.451   2.211  0.00  0.00    -0.271 OA
ATOM      9  N   UNL     1      -2.394   1.150   0.020  0.00  0.00    -0.137 N 
ATOM     10  C   UNL     1      -2.901   0.530  -1.052  0.00  0.00    +0.327 C 
ATOM     11  O   UNL     1      -2.368   0.523  -2.144  0.00  0.00    -0.251 OA
ATOM     12  N   UNL     1      -4.066  -0.089  -0.785  0.00  0.00    -0.280 N 
ATOM     13  H   UNL     1      -4.607  -0.599  -1.407  0.00  0.00    +0.152 HD
BRANCH   6  14
ATOM     14  C   UNL     1      -4.424  -1.130   1.404  0.00  0.00    -0.015 A 
ATOM     15  C   UNL     1      -3.954  -1.186   2.703  0.00  0.00    +0.006 A 
ATOM     16  C   UNL     1      -4.016  -2.373   3.409  0.00  0.00    +0.000 A 
ATOM     17  C   UNL     1      -4.538  -3.506   2.813  0.00  0.00    +0.000 A 
ATOM     18  C   UNL     1      -5.002  -3.451   1.513  0.00  0.00    +0.000 A 
ATOM     19  C   UNL     1      -4.945  -2.263   0.808  0.00  0.00    +0.006 A 
ENDBRANCH   6  14
ENDBRANCH   1   9
BRANCH   2  20
ATOM     20  C   UNL     1       1.280   1.980   0.001  0.00  0.00    +0.173 C 
BRANCH  20  21
ATOM     21  S   UNL     1       2.672   0.823  -0.019  0.00  0.00    -0.096 S 
BRANCH  21  22
ATOM     22  C   UNL     1       4.017   1.961  -0.026  0.00  0.00    +0.109 A 
ATOM     23  C   UNL     1       5.361   1.490  -0.041  0.00  0.00    +0.040 A 
ATOM     24  C   UNL     1       5.864   0.131  -0.052  0.00  0.00    +0.029 A 
ATOM     25  C   UNL     1       7.204  -0.073  -0.066  0.00  0.00    +0.022 A 
ATOM     26  S   UNL     1       7.873   1.579  -0.064  0.00  0.00    -0.069 S 
ATOM     27  C   UNL     1       6.355   2.494  -0.046  0.00  0.00    +0.113 A 
ATOM     28  N   UNL     1       6.037   3.774  -0.037  0.00  0.00    -0.228 NA
ATOM     29  C   UNL     1       4.772   4.149  -0.023  0.00  0.00    +0.223 A 
ATOM     30  N   UNL     1       3.791   3.265  -0.022  0.00  0.00    -0.229 NA
BRANCH  25  31
ATOM     31  C   UNL     1       7.935  -1.358  -0.079  0.00  0.00    -0.011 A 
ATOM     32  C   UNL     1       7.232  -2.564  -0.072  0.00  0.00    +0.009 A 
ATOM     33  C   UNL     1       7.921  -3.759  -0.091  0.00  0.00    +0.001 A 
ATOM     34  C   UNL     1       9.304  -3.764  -0.103  0.00  0.00    +0.000 A 
ATOM     35  C   UNL     1      10.007  -2.572  -0.104  0.00  0.00    +0.001 A 
ATOM     36  C   UNL     1       9.330  -1.370  -0.092  0.00  0.00    +0.009 A 
ENDBRANCH  25  31
ENDBRANCH  21  22
ENDBRANCH  20  21
ENDBRANCH   2  20
TORSDOF 6
