REMARK  Name = ZINC40382948
REMARK  6 active torsions:
REMARK  status: ('A' for Active; 'I' for Inactive)
REMARK    1  A    between atoms: C_1  and  C_2
REMARK    2  A    between atoms: C_4  and  C_35
REMARK    3  A    between atoms: C_6  and  N_8
REMARK    4  A    between atoms: C_9  and  C_11
REMARK    5  A    between atoms: C_26  and  C_34
REMARK    6  A    between atoms: C_31  and  C_33
REMARK                            x       y       z     vdW  Elec       q    Type
REMARK                         _______ _______ _______ _____ _____    ______ ____
ROOT
ATOM      1  C   UNL     1       0.270  -2.903   4.857  0.00  0.00    +0.122 C 
ATOM      2  C   UNL     1      -0.954  -3.802   5.045  0.00  0.00    +0.114 C 
ATOM      3  C   UNL     1      -2.152  -2.958   5.393  0.00  0.00    +0.219 C 
ATOM      4  O   UNL     1      -3.243  -3.255   4.953  0.00  0.00    -0.275 OA
ATOM      5  N   UNL     1      -2.026  -1.880   6.185  0.00  0.00    -0.270 N 
ATOM      6  C   UNL     1      -0.781  -1.455   6.615  0.00  0.00    +0.138 A 
ATOM      7  C   UNL     1       0.365  -1.935   6.006  0.00  0.00    +0.069 A 
ATOM      8  C   UNL     1       1.612  -1.508   6.471  0.00  0.00    +0.258 A 
ATOM      9  O   UNL     1       2.642  -1.922   5.963  0.00  0.00    -0.267 OA
ATOM     10  N   UNL     1       1.655  -0.629   7.495  0.00  0.00    -0.295 N 
ATOM     11  H   UNL     1       2.510  -0.332   7.844  0.00  0.00    +0.172 HD
ATOM     12  C   UNL     1       0.499  -0.159   8.038  0.00  0.00    +0.200 A 
ATOM     13  N   UNL     1      -0.677  -0.561   7.604  0.00  0.00    -0.200 NA
ATOM     14  N   UNL     1       0.560   0.752   9.059  0.00  0.00    -0.295 N 
ATOM     15  C   UNL     1       0.720   0.308  10.450  0.00  0.00    +0.073 C 
ATOM     16  C   UNL     1      -0.397   0.926  11.296  0.00  0.00    +0.022 C 
ATOM     17  C   UNL     1      -0.386   2.446  11.117  0.00  0.00    +0.004 C 
ATOM     18  C   UNL     1      -0.647   2.789   9.648  0.00  0.00    +0.022 C 
ATOM     19  C   UNL     1       0.473   2.192   8.782  0.00  0.00    +0.073 C 
ATOM     20  C   UNL     1       0.153   2.413   7.303  0.00  0.00    +0.028 C 
ATOM     21  C   UNL     1       0.632  -1.218  10.515  0.00  0.00    +0.028 C 
ATOM     22  H   UNL     1      -2.819  -1.392   6.458  0.00  0.00    +0.156 HD
ENDROOT
BRANCH   1  24
ATOM     23  N   UNL     1       0.037  -2.801   2.397  0.00  0.00    -0.285 N 
ATOM     24  C   UNL     1       0.137  -2.138   3.566  0.00  0.00    +0.225 C 
ATOM     25  O   UNL     1       0.121  -0.925   3.578  0.00  0.00    -0.275 OA
ATOM     26  H   UNL     1      -0.035  -3.769   2.393  0.00  0.00    +0.155 HD
BRANCH  23  32
ATOM     27  C   UNL     1      -1.250  -2.518  -2.340  0.00  0.00    +0.044 C 
ATOM     28  C   UNL     1      -0.580  -1.934  -1.123  0.00  0.00    -0.048 A 
ATOM     29  C   UNL     1       0.036  -0.698  -1.200  0.00  0.00    +0.006 A 
ATOM     30  C   UNL     1       0.651  -0.159  -0.085  0.00  0.00    -0.048 A 
ATOM     31  C   UNL     1       0.653  -0.853   1.109  0.00  0.00    +0.026 A 
ATOM     32  C   UNL     1       0.036  -2.095   1.189  0.00  0.00    +0.034 A 
ATOM     33  C   UNL     1      -0.586  -2.631   0.069  0.00  0.00    +0.026 A 
ATOM     34  C   UNL     1       1.321   1.188  -0.173  0.00  0.00    +0.044 C 
ENDBRANCH  23  32
ENDBRANCH   1  24
TORSDOF 2
