REMARK  Name = ZINC06405670
REMARK  11 active torsions:
REMARK  status: ('A' for Active; 'I' for Inactive)
REMARK    1  A    between atoms: C_1  and  C_2
REMARK    2  A    between atoms: C_5  and  C_37
REMARK    3  A    between atoms: C_9  and  C_14
REMARK    4  A    between atoms: C_14  and  C_16
REMARK    5  A    between atoms: C_14  and  N_70
REMARK    6  A    between atoms: N_20  and  C_21
REMARK    7  A    between atoms: C_21  and  C_22
REMARK    8  A    between atoms: C_22  and  O_23
REMARK    9  A    between atoms: O_23  and  C_24
REMARK   10  A    between atoms: C_27  and  C_30
REMARK   11  A    between atoms: C_30  and  C_31
REMARK                            x       y       z     vdW  Elec       q    Type
REMARK                         _______ _______ _______ _____ _____    ______ ____
ROOT
ATOM      1  C   UNL     1      -0.804   1.986  -1.115  0.00  0.00    +0.039 C 
ENDROOT
BRANCH   1  10
ATOM      2  C   UNL     1       0.477   5.782  -4.442  0.00  0.00    +0.044 C 
ATOM      3  C   UNL     1       0.011   6.441  -3.169  0.00  0.00    -0.041 A 
ATOM      4  C   UNL     1      -0.010   7.803  -3.070  0.00  0.00    +0.004 A 
ATOM      5  C   UNL     1      -0.436   8.419  -1.902  0.00  0.00    +0.005 A 
ATOM      6  C   UNL     1      -0.846   7.670  -0.820  0.00  0.00    -0.026 A 
ATOM      7  C   UNL     1      -0.834   6.281  -0.898  0.00  0.00    +0.052 A 
ATOM      8  C   UNL     1      -0.401   5.660  -2.085  0.00  0.00    +0.002 A 
ATOM      9  C   UNL     1      -0.387   4.197  -2.155  0.00  0.00    +0.018 A 
ATOM     10  C   UNL     1      -0.802   3.493  -1.074  0.00  0.00    +0.011 A 
ATOM     11  C   UNL     1      -1.226   4.165   0.092  0.00  0.00    +0.251 A 
ATOM     12  O   UNL     1      -1.592   3.512   1.055  0.00  0.00    -0.268 OA
ATOM     13  N   UNL     1      -1.238   5.507   0.169  0.00  0.00    -0.322 N 
ATOM     14  H   UNL     1      -1.536   5.937   0.986  0.00  0.00    +0.169 HD
ATOM     15  C   UNL     1      -1.306   8.352   0.443  0.00  0.00    +0.046 C 
ENDBRANCH   1  10
BRANCH   1  21
ATOM     16  C   UNL     1       1.344   2.014   0.000  0.00  0.00    -0.077 C 
ATOM     17  C   UNL     1       2.086   1.565   1.261  0.00  0.00    -0.015 C 
ATOM     18  C   UNL     1       2.133   0.035   1.302  0.00  0.00    -0.010 C 
ATOM     19  C   UNL     1       0.704  -0.513   1.263  0.00  0.00    -0.015 C 
ATOM     20  C   UNL     1       0.002  -0.004   0.002  0.00  0.00    -0.077 C 
ATOM     21  N   UNL     1      -0.032   1.474   0.035  0.00  0.00    +0.389 N 
ATOM     22  H   UNL     1      -0.487   1.777   0.904  0.00  0.00    -0.080 HD
BRANCH  18  23
ATOM     23  C   UNL     1       2.821  -0.422   2.591  0.00  0.00    +0.038 C 
BRANCH  23  24
ATOM     24  C   UNL     1       4.263   0.014   2.572  0.00  0.00    -0.047 A 
ATOM     25  C   UNL     1       5.230  -0.819   2.040  0.00  0.00    +0.003 A 
ATOM     26  C   UNL     1       6.553  -0.417   2.019  0.00  0.00    +0.000 A 
ATOM     27  C   UNL     1       6.910   0.813   2.538  0.00  0.00    +0.000 A 
ATOM     28  C   UNL     1       5.944   1.644   3.074  0.00  0.00    +0.000 A 
ATOM     29  C   UNL     1       4.620   1.244   3.091  0.00  0.00    +0.003 A 
ENDBRANCH  23  24
ENDBRANCH  18  23
ENDBRANCH   1  21
BRANCH   1  30
ATOM     30  C   UNL     1      -2.221   1.483  -1.014  0.00  0.00    +0.142 A 
ATOM     31  N   UNL     1      -2.965   1.451   0.065  0.00  0.00    -0.115 NA
ATOM     32  N   UNL     1      -4.110   0.954  -0.255  0.00  0.00    -0.023 NA
ATOM     33  N   UNL     1      -4.116   0.669  -1.511  0.00  0.00    -0.044 NA
ATOM     34  N   UNL     1      -2.971   0.985  -2.015  0.00  0.00    -0.228 N 
BRANCH  34  35
ATOM     35  C   UNL     1      -2.563   0.829  -3.413  0.00  0.00    +0.175 C 
BRANCH  35  36
ATOM     36  C   UNL     1      -1.930  -0.550  -3.608  0.00  0.00    +0.183 C 
BRANCH  36  37
ATOM     37  O   UNL     1      -1.532  -0.703  -4.972  0.00  0.00    -0.381 OA
ATOM     38  C   UNL     1      -0.925  -1.964  -5.263  0.00  0.00    +0.194 C 
ENDBRANCH  36  37
ENDBRANCH  35  36
ENDBRANCH  34  35
ENDBRANCH   1  30
TORSDOF 8
