REMARK  Name = ZINC17040824
REMARK  4 active torsions:
REMARK  status: ('A' for Active; 'I' for Inactive)
REMARK    1  A    between atoms: C_1  and  C_2
REMARK    2  A    between atoms: C_5  and  N_8
REMARK    3  A    between atoms: C_13  and  C_16
REMARK    4  A    between atoms: C_16  and  C_17
REMARK                            x       y       z     vdW  Elec       q    Type
REMARK                         _______ _______ _______ _____ _____    ______ ____
ROOT
ATOM      1  N   UNL     1       0.058  -4.142  -0.021  0.00  0.00    -0.226 NA
ATOM      2  C   UNL     1       0.875  -4.792   0.775  0.00  0.00    +0.161 C 
ATOM      3  N   UNL     1       1.773  -4.272   1.682  0.00  0.00    -0.264 N 
ATOM      4  C   UNL     1       2.547  -5.037   2.433  0.00  0.00    +0.232 C 
ATOM      5  O   UNL     1       3.335  -4.572   3.229  0.00  0.00    -0.274 OA
ATOM      6  C   UNL     1       2.388  -6.536   2.236  0.00  0.00    +0.144 C 
ATOM      7  S   UNL     1       1.078  -6.559   0.943  0.00  0.00    -0.077 S 
ATOM      8  H   UNL     1       1.840  -3.308   1.773  0.00  0.00    +0.157 HD
ENDROOT
BRANCH   1  13
ATOM      9  C   UNL     1      -0.018   1.503   0.010  0.00  0.00    +0.044 C 
ATOM     10  C   UNL     1       0.002  -0.004   0.002  0.00  0.00    -0.050 A 
ATOM     11  C   UNL     1       0.006  -0.686  -1.202  0.00  0.00    +0.005 A 
ATOM     12  C   UNL     1       0.024  -2.065  -1.217  0.00  0.00    +0.028 A 
ATOM     13  C   UNL     1       0.040  -2.773  -0.013  0.00  0.00    +0.067 A 
ATOM     14  C   UNL     1       0.037  -2.079   1.198  0.00  0.00    +0.028 A 
ATOM     15  C   UNL     1       0.023  -0.699   1.198  0.00  0.00    +0.005 A 
ENDBRANCH   1  13
BRANCH   6  16
ATOM     16  C   UNL     1       1.907  -7.215   3.519  0.00  0.00    +0.059 C 
BRANCH  16  17
ATOM     17  C   UNL     1       1.880  -8.709   3.317  0.00  0.00    -0.044 A 
ATOM     18  C   UNL     1       0.738  -9.320   2.833  0.00  0.00    +0.004 A 
ATOM     19  C   UNL     1       0.713 -10.690   2.647  0.00  0.00    +0.002 A 
ATOM     20  C   UNL     1       1.829 -11.449   2.946  0.00  0.00    +0.020 A 
ATOM     21  C   UNL     1       2.971 -10.837   3.430  0.00  0.00    +0.041 A 
ATOM     22  C   UNL     1       2.998  -9.466   3.610  0.00  0.00    +0.023 A 
ATOM     23 CL   UNL     1       4.373 -11.790   3.805  0.00  0.00    -0.084 Cl
ENDBRANCH  16  17
ENDBRANCH   6  16
TORSDOF 3
