REMARK  Name = ZINC23767363
REMARK  10 active torsions:
REMARK  status: ('A' for Active; 'I' for Inactive)
REMARK    1  A    between atoms: C_1  and  C_2
REMARK    2  A    between atoms: C_2  and  C_3
REMARK    3  A    between atoms: C_6  and  C_9
REMARK    4  A    between atoms: C_9  and  C_11
REMARK    5  A    between atoms: C_9  and  N_14
REMARK    6  A    between atoms: C_11  and  C_12
REMARK    7  A    between atoms: C_11  and  C_13
REMARK    8  A    between atoms: C_15  and  C_17
REMARK    9  A    between atoms: C_19  and  S_24
REMARK   10  A    between atoms: S_24  and  N_27
REMARK                            x       y       z     vdW  Elec       q    Type
REMARK                         _______ _______ _______ _____ _____    ______ ____
ROOT
ATOM      1  N   UNL     1       2.395   5.287   0.008  0.00  0.00    -0.304 N 
ATOM      2  C   UNL     1       2.419   3.940   0.001  0.00  0.00    +0.246 C 
ATOM      3  O   UNL     1       3.483   3.351  -0.012  0.00  0.00    -0.270 OA
ATOM      4  H   UNL     1       1.433   5.820   0.020  0.00  0.00    +0.150 HD
ENDROOT
BRANCH   2   5
ATOM      5  C   UNL     1       1.153   3.178   0.008  0.00  0.00    +0.052 A 
ATOM      6  C   UNL     1      -0.070   3.850   0.023  0.00  0.00    +0.042 A 
ATOM      7  C   UNL     1      -1.248   3.133   0.031  0.00  0.00    +0.106 A 
ATOM      8  C   UNL     1      -1.220   1.750   0.017  0.00  0.00    +0.029 A 
ATOM      9  C   UNL     1      -0.013   1.076   0.008  0.00  0.00    +0.018 A 
ATOM     10  C   UNL     1       1.175   1.781   0.000  0.00  0.00    +0.030 A 
ATOM     11 BR   UNL     1       2.825   0.859  -0.020  0.00  0.00    -0.050 Br
BRANCH   7  12
ATOM     12  S   UNL     1      -2.793   3.981   0.050  0.00  0.00    +0.056 S 
ATOM     13  O   UNL     1      -3.743   3.082   0.605  0.00  0.00    -0.153 OA
ATOM     14  O   UNL     1      -2.544   5.265   0.606  0.00  0.00    -0.153 OA
BRANCH  12  15
ATOM     15  N   UNL     1      -3.237   4.225  -1.526  0.00  0.00    -0.204 NA
ATOM     16  H   UNL     1      -4.201   4.754  -1.558  0.00  0.00    +0.144 HD
ATOM     17  H   UNL     1      -3.335   3.254  -2.034  0.00  0.00    +0.144 HD
ENDBRANCH  12  15
ENDBRANCH   7  12
ENDBRANCH   2   5
BRANCH   1  18
ATOM     18  C   UNL     1       3.650   6.043   0.001  0.00  0.00    +0.106 C 
BRANCH  18  22
ATOM     19  C   UNL     1       2.972   9.913  -1.675  0.00  0.00    -0.048 A 
ATOM     20  C   UNL     1       4.128   9.220  -1.982  0.00  0.00    +0.004 A 
ATOM     21  C   UNL     1       4.348   7.967  -1.440  0.00  0.00    +0.006 A 
ATOM     22  C   UNL     1       3.411   7.408  -0.590  0.00  0.00    -0.027 A 
ATOM     23  C   UNL     1       2.253   8.099  -0.288  0.00  0.00    +0.006 A 
ATOM     24  C   UNL     1       2.036   9.354  -0.826  0.00  0.00    +0.004 A 
BRANCH  19  26
ATOM     25  C   UNL     1       1.989  11.134  -3.596  0.00  0.00    +0.009 C 
ATOM     26  C   UNL     1       2.733  11.278  -2.267  0.00  0.00    +0.032 C 
ENDBRANCH  19  26
ENDBRANCH  18  22
BRANCH  18  27
ATOM     27  C   UNL     1       4.165   6.190   1.434  0.00  0.00    +0.008 C 
ATOM     28  C   UNL     1       3.077   6.823   2.304  0.00  0.00    +0.009 C 
ATOM     29  C   UNL     1       4.526   4.811   1.991  0.00  0.00    +0.009 C 
ENDBRANCH  18  27
ENDBRANCH   1  18
TORSDOF 7
