REMARK  Name = ZINC53649884
REMARK  8 active torsions:
REMARK  status: ('A' for Active; 'I' for Inactive)
REMARK    1  A    between atoms: C_1  and  C_2
REMARK    2  A    between atoms: C_2  and  C_3
REMARK    3  A    between atoms: C_2  and  C_4
REMARK    4  A    between atoms: C_2  and  N_5
REMARK    5  A    between atoms: N_5  and  C_6
REMARK    6  A    between atoms: C_6  and  C_7
REMARK    7  A    between atoms: N_12  and  C_13
REMARK    8  A    between atoms: C_13  and  C_14
REMARK                            x       y       z     vdW  Elec       q    Type
REMARK                         _______ _______ _______ _____ _____    ______ ____
ROOT
ATOM      1  C   UNL     1       2.963  -0.370  -2.639  0.00  0.00    +0.040 C 
ATOM      2  C   UNL     1       4.417   0.088  -2.877  0.00  0.00    +0.018 C 
ATOM      3  C   UNL     1       4.522   0.129  -4.424  0.00  0.00    +0.017 C 
ATOM      4  C   UNL     1       3.105   0.612  -4.822  0.00  0.00    +0.085 C 
ATOM      5  N   UNL     1       2.195  -0.048  -3.856  0.00  0.00    -0.296 NA
ENDROOT
BRANCH   1   6
ATOM      6  C   UNL     1       2.372   0.373  -1.439  0.00  0.00    -0.063 C 
BRANCH   6   7
ATOM      7  N   UNL     1       0.944   0.052  -1.319  0.00  0.00    +0.383 N 
ATOM      8  H   UNL     1       0.833  -0.942  -1.186  0.00  0.00    -0.085 HD
ATOM      9  H   UNL     1       0.464   0.336  -2.160  0.00  0.00    -0.085 HD
BRANCH   7  11
ATOM     10  C   UNL     1       0.546   2.274  -0.368  0.00  0.00    -0.011 C 
ATOM     11  C   UNL     1       0.377   0.766  -0.167  0.00  0.00    -0.077 C 
ATOM     12  C   UNL     1       1.106   0.337   1.108  0.00  0.00    -0.011 C 
ATOM     13  C   UNL     1      -1.111   0.432  -0.042  0.00  0.00    -0.011 C 
ENDBRANCH   7  11
ENDBRANCH   6   7
ENDBRANCH   1   6
BRANCH   5  14
ATOM     14  C   UNL     1       1.595  -1.258  -4.435  0.00  0.00    +0.128 C 
BRANCH  14  15
ATOM     15  C   UNL     1       0.526  -0.865  -5.422  0.00  0.00    +0.018 A 
ATOM     16  C   UNL     1      -0.812  -0.756  -5.233  0.00  0.00    +0.029 A 
ATOM     17  C   UNL     1      -1.610  -0.375  -6.296  0.00  0.00    +0.023 A 
ATOM     18  C   UNL     1      -1.031  -0.122  -7.495  0.00  0.00    +0.046 A 
ATOM     19  S   UNL     1       0.694  -0.416  -7.142  0.00  0.00    -0.099 S 
ATOM     20 BR   UNL     1      -1.575  -1.119  -3.542  0.00  0.00    -0.049 Br
ENDBRANCH  14  15
ENDBRANCH   5  14
TORSDOF 5
