REMARK  Name = ZINC14034178
REMARK  15 active torsions:
REMARK  status: ('A' for Active; 'I' for Inactive)
REMARK    1  A    between atoms: C_1  and  C_2
REMARK    2  A    between atoms: C_5  and  N_9
REMARK    3  A    between atoms: C_6  and  C_8
REMARK    4  A    between atoms: N_9  and  S_10
REMARK    5  A    between atoms: S_10  and  C_13
REMARK    6  A    between atoms: C_16  and  N_19
REMARK    7  A    between atoms: N_19  and  C_20
REMARK    8  A    between atoms: C_20  and  N_22
REMARK    9  A    between atoms: C_23  and  C_25
REMARK   10  A    between atoms: C_30  and  O_31
REMARK   11  A    between atoms: O_31  and  C_32
REMARK   12  A    between atoms: C_32  and  C_33
REMARK   13  A    between atoms: C_33  and  C_34
REMARK   14  A    between atoms: C_34  and  C_35
REMARK   15  A    between atoms: C_34  and  C_36
REMARK                            x       y       z     vdW  Elec       q    Type
REMARK                         _______ _______ _______ _____ _____    ______ ____
ROOT
ATOM      1  N   UNL     1      -1.516   3.083  -0.384  0.00  0.00    -0.297 N 
ATOM      2  H   UNL     1      -1.618   3.997  -0.694  0.00  0.00    +0.154 HD
ENDROOT
BRANCH   1   6
ATOM      3  C   UNL     1      -4.796   0.516  -0.352  0.00  0.00    +0.109 A 
ATOM      4  C   UNL     1      -3.958   0.578   0.746  0.00  0.00    +0.030 A 
ATOM      5  C   UNL     1      -2.869   1.427   0.738  0.00  0.00    +0.025 A 
ATOM      6  C   UNL     1      -2.617   2.221  -0.373  0.00  0.00    +0.033 A 
ATOM      7  C   UNL     1      -3.465   2.161  -1.472  0.00  0.00    +0.025 A 
ATOM      8  C   UNL     1      -4.548   1.305  -1.461  0.00  0.00    +0.030 A 
BRANCH   3   9
ATOM      9  S   UNL     1      -6.184  -0.570  -0.339  0.00  0.00    +0.072 S 
ATOM     10  O   UNL     1      -6.499  -0.842  -1.697  0.00  0.00    -0.150 OA
ATOM     11  O   UNL     1      -5.885  -1.598   0.595  0.00  0.00    -0.150 OA
BRANCH   9  12
ATOM     12  N   UNL     1      -7.463   0.278   0.283  0.00  0.00    -0.216 N 
ATOM     13  H   UNL     1      -7.918  -0.043   1.078  0.00  0.00    +0.174 HD
BRANCH  12  18
ATOM     14  C   UNL     1      -9.189   5.059  -2.230  0.00  0.00    +0.044 C 
ATOM     15  C   UNL     1      -8.730   3.789  -1.562  0.00  0.00    -0.050 A 
ATOM     16  C   UNL     1      -8.266   2.735  -2.329  0.00  0.00    +0.005 A 
ATOM     17  C   UNL     1      -7.845   1.569  -1.720  0.00  0.00    +0.025 A 
ATOM     18  C   UNL     1      -7.888   1.456  -0.336  0.00  0.00    +0.051 A 
ATOM     19  C   UNL     1      -8.358   2.514   0.430  0.00  0.00    -0.028 A 
ATOM     20  C   UNL     1      -8.773   3.679  -0.185  0.00  0.00    +0.008 A 
ATOM     21  C   UNL     1      -8.412   2.394   1.932  0.00  0.00    +0.046 C 
ENDBRANCH  12  18
ENDBRANCH   9  12
ENDBRANCH   3   9
ENDBRANCH   1   6
BRANCH   1  22
ATOM     22  C   UNL     1      -0.312   2.644   0.036  0.00  0.00    +0.141 C 
ATOM     23  S   UNL     1      -0.155   1.067   0.684  0.00  0.00    -0.018 S 
BRANCH  22  24
ATOM     24  N   UNL     1       0.768   3.445  -0.059  0.00  0.00    -0.263 N 
ATOM     25  C   UNL     1       1.972   3.004   0.355  0.00  0.00    +0.253 C 
ATOM     26  O   UNL     1       2.084   1.885   0.815  0.00  0.00    -0.270 OA
ATOM     27  H   UNL     1       0.678   4.338  -0.426  0.00  0.00    +0.157 HD
BRANCH  25  28
ATOM     28  C   UNL     1       3.154   3.880   0.251  0.00  0.00    +0.079 A 
ATOM     29  C   UNL     1       3.030   5.166  -0.282  0.00  0.00    +0.017 A 
ATOM     30  C   UNL     1       4.138   5.981  -0.373  0.00  0.00    +0.001 A 
ATOM     31  C   UNL     1       5.376   5.528   0.053  0.00  0.00    +0.004 A 
ATOM     32  C   UNL     1       5.513   4.258   0.578  0.00  0.00    +0.046 A 
ATOM     33  C   UNL     1       4.408   3.426   0.681  0.00  0.00    +0.133 A 
BRANCH  33  34
ATOM     34  O   UNL     1       4.541   2.178   1.196  0.00  0.00    -0.491 OA
BRANCH  34  35
ATOM     35  C   UNL     1       5.850   1.784   1.613  0.00  0.00    +0.229 C 
BRANCH  35  36
ATOM     36  C   UNL     1       5.803   0.357   2.161  0.00  0.00    +0.044 C 
BRANCH  36  37
ATOM     37  C   UNL     1       7.204  -0.065   2.608  0.00  0.00    -0.014 C 
ATOM     38  C   UNL     1       7.136  -1.442   3.270  0.00  0.00    +0.007 C 
ATOM     39  C   UNL     1       8.130  -0.129   1.391  0.00  0.00    +0.007 C 
ENDBRANCH  36  37
ENDBRANCH  35  36
ENDBRANCH  34  35
ENDBRANCH  33  34
ENDBRANCH  25  28
ENDBRANCH  22  24
ENDBRANCH   1  22
TORSDOF 11
