REMARK  Name = ZINC03016904
REMARK  9 active torsions:
REMARK  status: ('A' for Active; 'I' for Inactive)
REMARK    1  A    between atoms: C_1  and  C_2
REMARK    2  A    between atoms: C_2  and  C_3
REMARK    3  A    between atoms: C_2  and  C_4
REMARK    4  A    between atoms: C_7  and  C_10
REMARK    5  A    between atoms: C_15  and  C_17
REMARK    6  A    between atoms: C_19  and  O_25
REMARK    7  A    between atoms: C_21  and  O_23
REMARK    8  A    between atoms: O_23  and  C_24
REMARK    9  A    between atoms: O_25  and  C_26
REMARK                            x       y       z     vdW  Elec       q    Type
REMARK                         _______ _______ _______ _____ _____    ______ ____
ROOT
ATOM      1  C   UNL     1       1.966  -1.641  -0.026  0.00  0.00    +0.043 C 
ATOM      2  C   UNL     1       1.429  -0.372  -0.034  0.00  0.00    +0.152 C 
ATOM      3  C   UNL     1      -0.000  -0.007  -0.025  0.00  0.00    +0.364 C 
ATOM      4  O   UNL     1      -0.955  -0.760  -0.009  0.00  0.00    -0.243 OA
ATOM      5  O   UNL     1      -0.021   1.344  -0.038  0.00  0.00    -0.402 OA
ATOM      6  C   UNL     1       1.249   1.794  -0.054  0.00  0.00    +0.232 C 
ATOM      7  N   UNL     1       2.107   0.812  -0.052  0.00  0.00    -0.205 NA
ENDROOT
BRANCH   1  11
ATOM      8  C   UNL     1       6.155  -2.171  -0.388  0.00  0.00    -0.045 A 
ATOM      9  C   UNL     1       5.630  -0.895  -0.272  0.00  0.00    +0.004 A 
ATOM     10  C   UNL     1       4.269  -0.713  -0.154  0.00  0.00    +0.008 A 
ATOM     11  C   UNL     1       3.416  -1.824  -0.152  0.00  0.00    -0.023 A 
ATOM     12  C   UNL     1       3.957  -3.112  -0.264  0.00  0.00    +0.008 A 
ATOM     13  C   UNL     1       5.320  -3.275  -0.387  0.00  0.00    +0.004 A 
BRANCH   8  15
ATOM     14  C   UNL     1       8.154  -3.210   0.649  0.00  0.00    +0.012 C 
ATOM     15  C   UNL     1       7.645  -2.359  -0.516  0.00  0.00    +0.013 C 
ATOM     16  C   UNL     1       7.957  -3.064  -1.838  0.00  0.00    +0.012 C 
ENDBRANCH   8  15
ENDBRANCH   1  11
BRANCH   6  17
ATOM     17  C   UNL     1       1.622   3.223  -0.072  0.00  0.00    +0.044 A 
ATOM     18  C   UNL     1       2.968   3.594  -0.083  0.00  0.00    +0.059 A 
ATOM     19  C   UNL     1       3.314   4.935  -0.105  0.00  0.00    +0.124 A 
ATOM     20  C   UNL     1       2.325   5.909  -0.106  0.00  0.00    +0.091 A 
ATOM     21  C   UNL     1       0.986   5.544  -0.090  0.00  0.00    +0.124 A 
ATOM     22  C   UNL     1       0.631   4.206  -0.073  0.00  0.00    +0.059 A 
BRANCH  21  23
ATOM     23  O   UNL     1       0.022   6.502  -0.091  0.00  0.00    -0.495 OA
ATOM     24  C   UNL     1       0.459   7.862  -0.109  0.00  0.00    +0.277 C 
ENDBRANCH  21  23
BRANCH  19  25
ATOM     25  O   UNL     1       4.623   5.298  -0.120  0.00  0.00    -0.495 OA
ATOM     26  C   UNL     1       4.908   6.698  -0.137  0.00  0.00    +0.277 C 
ENDBRANCH  19  25
ENDBRANCH   6  17
TORSDOF 5
