REMARK  Name = ZINC50343159
REMARK  6 active torsions:
REMARK  status: ('A' for Active; 'I' for Inactive)
REMARK    1  A    between atoms: C_1  and  C_2
REMARK    2  A    between atoms: C_2  and  C_4
REMARK    3  A    between atoms: C_2  and  N_9
REMARK    4  A    between atoms: N_9  and  C_10
REMARK    5  A    between atoms: C_13  and  S_17
REMARK    6  A    between atoms: S_17  and  N_20
REMARK                            x       y       z     vdW  Elec       q    Type
REMARK                         _______ _______ _______ _____ _____    ______ ____
ROOT
ATOM      1  C   UNL     1      -0.019  -0.613  -2.401  0.00  0.00    +0.042 A 
ATOM      2  C   UNL     1      -1.370  -0.296  -2.452  0.00  0.00    +0.026 A 
ATOM      3  C   UNL     1      -2.066  -0.431  -3.637  0.00  0.00    +0.030 A 
ATOM      4  C   UNL     1      -1.418  -0.882  -4.773  0.00  0.00    +0.106 A 
ATOM      5  C   UNL     1      -0.073  -1.199  -4.727  0.00  0.00    +0.045 A 
ATOM      6  C   UNL     1       0.630  -1.061  -3.545  0.00  0.00    +0.041 A 
ATOM      7 BR   UNL     1       2.471  -1.488  -3.484  0.00  0.00    -0.048 Br
ENDROOT
BRANCH   4   8
ATOM      8  S   UNL     1      -2.310  -1.054  -6.283  0.00  0.00    +0.056 S 
ATOM      9  O   UNL     1      -1.607  -2.011  -7.063  0.00  0.00    -0.153 OA
ATOM     10  O   UNL     1      -3.678  -1.214  -5.931  0.00  0.00    -0.153 OA
BRANCH   8  11
ATOM     11  N   UNL     1      -2.194   0.389  -7.088  0.00  0.00    -0.204 NA
ATOM     12  H   UNL     1      -2.212   0.406  -8.057  0.00  0.00    +0.144 HD
ATOM     13  H   UNL     1      -2.108   1.216  -6.589  0.00  0.00    +0.144 HD
ENDBRANCH   8  11
ENDBRANCH   4   8
BRANCH   1  14
ATOM     14  N   UNL     1       0.688  -0.476  -1.203  0.00  0.00    -0.336 N 
ATOM     15  H   UNL     1       1.632  -0.695  -1.170  0.00  0.00    +0.147 HD
BRANCH  14  17
ATOM     16  C   UNL     1      -0.019   1.526   0.010  0.00  0.00    +0.033 C 
ATOM     17  C   UNL     1       0.002  -0.004   0.002  0.00  0.00    +0.098 C 
BRANCH  17  18
ATOM     18  C   UNL     1       0.731  -0.503   1.223  0.00  0.00    -0.021 A 
ATOM     19  C   UNL     1       0.028  -0.953   2.325  0.00  0.00    +0.013 A 
ATOM     20  C   UNL     1       0.714  -1.395   3.407  0.00  0.00    +0.045 A 
ATOM     21  S   UNL     1       2.407  -1.183   2.883  0.00  0.00    -0.105 S 
ATOM     22  C   UNL     1       2.086  -0.524   1.255  0.00  0.00    +0.050 A 
ENDBRANCH  17  18
ENDBRANCH  14  17
ENDBRANCH   1  14
TORSDOF 5
