REMARK  Name = ZINC57304844
REMARK  6 active torsions:
REMARK  status: ('A' for Active; 'I' for Inactive)
REMARK    1  A    between atoms: C_1  and  C_2
REMARK    2  A    between atoms: C_2  and  N_3
REMARK    3  A    between atoms: C_4  and  C_11
REMARK    4  A    between atoms: C_7  and  C_10
REMARK    5  A    between atoms: N_15  and  C_19
REMARK    6  A    between atoms: C_19  and  C_20
REMARK                            x       y       z     vdW  Elec       q    Type
REMARK                         _______ _______ _______ _____ _____    ______ ____
ROOT
ATOM      1  N   UNL     1       0.688  -0.476  -1.203  0.00  0.00    -0.319 N 
ATOM      2  C   UNL     1      -0.058  -0.727  -2.450  0.00  0.00    +0.154 C 
ATOM      3  S   UNL     1       1.248  -1.397  -3.564  0.00  0.00    -0.128 S 
ATOM      4  C   UNL     1       2.538  -1.663  -2.273  0.00  0.00    +0.089 C 
ATOM      5  C   UNL     1       2.043  -0.693  -1.205  0.00  0.00    +0.013 C 
ATOM      6  C   UNL     1       2.855  -0.107  -0.345  0.00  0.00    +0.029 C 
ATOM      7  C   UNL     1       2.529  -3.107  -1.766  0.00  0.00    +0.025 C 
ENDROOT
BRANCH   2   8
ATOM      8  C   UNL     1      -0.638   0.574  -3.008  0.00  0.00    +0.170 C 
ATOM      9  C   UNL     1      -1.430   0.326  -4.284  0.00  0.00    +0.237 C 
ATOM     10  O   UNL     1      -2.423  -0.370  -4.305  0.00  0.00    -0.274 OA
ATOM     11  N   UNL     1      -0.961   0.921  -5.367  0.00  0.00    -0.259 N 
ATOM     12  C   UNL     1       0.138   1.698  -5.370  0.00  0.00    +0.116 C 
ATOM     13  S   UNL     1       0.847   2.520  -6.693  0.00  0.00    -0.028 S 
ATOM     14  S   UNL     1       0.686   1.671  -3.667  0.00  0.00    -0.087 S 
BRANCH  11  15
ATOM     15  C   UNL     1      -1.674   0.724  -6.631  0.00  0.00    +0.111 C 
ATOM     16  C   UNL     1      -2.739   1.811  -6.791  0.00  0.00    +0.025 C 
ENDBRANCH  11  15
ENDBRANCH   2   8
BRANCH   1  18
ATOM     17  C   UNL     1      -0.019   1.526   0.010  0.00  0.00    +0.024 C 
ATOM     18  C   UNL     1       0.002  -0.004   0.002  0.00  0.00    +0.102 C 
ENDBRANCH   1  18
TORSDOF 3
