REMARK  Name = ZINC36485648
REMARK  9 active torsions:
REMARK  status: ('A' for Active; 'I' for Inactive)
REMARK    1  A    between atoms: C_3  and  N_8
REMARK    2  A    between atoms: N_8  and  C_9
REMARK    3  A    between atoms: C_9  and  C_11
REMARK    4  A    between atoms: C_9  and  C_21
REMARK    5  A    between atoms: C_13  and  N_18
REMARK    6  A    between atoms: N_23  and  C_24
REMARK    7  A    between atoms: C_30  and  C_32
REMARK    8  A    between atoms: C_32  and  C_33
REMARK    9  A    between atoms: C_33  and  S_34
REMARK                            x       y       z     vdW  Elec       q    Type
REMARK                         _______ _______ _______ _____ _____    ______ ____
ROOT
ATOM      1  C   UNL     1       4.980   1.282   0.076  0.00  0.00    +0.199 C 
ENDROOT
BRANCH   1   2
ATOM      2  C   UNL     1       5.111   0.339   1.244  0.00  0.00    +0.003 A 
ATOM      3  C   UNL     1       3.979  -0.151   1.868  0.00  0.00    +0.040 A 
ATOM      4  C   UNL     1       4.100  -1.016   2.940  0.00  0.00    +0.127 A 
ATOM      5  C   UNL     1       5.352  -1.392   3.388  0.00  0.00    +0.034 A 
ATOM      6  C   UNL     1       6.485  -0.903   2.765  0.00  0.00    +0.022 A 
ATOM      7  C   UNL     1       6.365  -0.042   1.689  0.00  0.00    +0.047 A 
ATOM      8 CL   UNL     1       7.787   0.567   0.901  0.00  0.00    -0.083 Cl
BRANCH   4   9
ATOM      9  N   UNL     1       2.887  -1.540   3.608  0.00  0.00    +0.056 N 
ATOM     10  O   UNL     1       1.792  -1.211   3.216  0.00  0.00    -0.126 OA
ATOM     11  O   UNL     1       2.992  -2.296   4.545  0.00  0.00    -0.126 OA
ENDBRANCH   4   9
ENDBRANCH   1   2
BRANCH   1  12
ATOM     12  C   UNL     1       5.055   0.501  -1.210  0.00  0.00    +0.239 C 
ATOM     13  O   UNL     1       4.217   0.669  -2.071  0.00  0.00    -0.273 OA
ATOM     14  N   UNL     1       6.053  -0.383  -1.405  0.00  0.00    -0.311 N 
ATOM     15  H   UNL     1       6.724  -0.517  -0.717  0.00  0.00    +0.149 HD
BRANCH  14  16
ATOM     16  C   UNL     1       6.127  -1.142  -2.656  0.00  0.00    +0.073 C 
ATOM     17  C   UNL     1       5.242  -2.386  -2.550  0.00  0.00    +0.022 C 
ATOM     18  C   UNL     1       5.319  -3.178  -3.857  0.00  0.00    +0.002 C 
ATOM     19  C   UNL     1       6.767  -3.602  -4.113  0.00  0.00    +0.000 C 
ATOM     20  C   UNL     1       7.651  -2.357  -4.219  0.00  0.00    +0.002 C 
ATOM     21  C   UNL     1       7.574  -1.565  -2.912  0.00  0.00    +0.022 C 
ENDBRANCH  14  16
ENDBRANCH   1  12
BRANCH   1  22
ATOM     22  N   UNL     1       3.692   1.976   0.152  0.00  0.00    -0.255 N 
ATOM     23  C   UNL     1       3.512   2.965   1.049  0.00  0.00    +0.221 C 
ATOM     24  O   UNL     1       4.438   3.334   1.740  0.00  0.00    -0.275 OA
BRANCH  22  27
ATOM     25  C   UNL     1       1.094  -0.029  -1.507  0.00  0.00    +0.003 A 
ATOM     26  C   UNL     1       2.123   0.328  -0.658  0.00  0.00    +0.023 A 
ATOM     27  C   UNL     1       2.650   1.612  -0.707  0.00  0.00    +0.039 A 
ATOM     28  C   UNL     1       2.139   2.535  -1.611  0.00  0.00    +0.043 A 
ATOM     29  C   UNL     1       1.109   2.172  -2.458  0.00  0.00    +0.043 A 
ATOM     30  C   UNL     1       0.587   0.891  -2.406  0.00  0.00    +0.020 A 
ATOM     31 CL   UNL     1       0.469   3.324  -3.588  0.00  0.00    -0.083 Cl
ENDBRANCH  22  27
BRANCH  23  32
ATOM     32  C   UNL     1       2.159   3.613   1.194  0.00  0.00    +0.107 C 
BRANCH  32  33
ATOM     33  C   UNL     1       2.252   4.770   2.192  0.00  0.00    +0.075 C 
BRANCH  33  34
ATOM     34  S   UNL     1       0.623   5.550   2.366  0.00  0.00    -0.178 S 
ATOM     35  H   UNL     1       0.830   6.538   3.255  0.00  0.00    +0.102 HD
ENDBRANCH  33  34
ENDBRANCH  32  33
ENDBRANCH  23  32
ENDBRANCH   1  22
TORSDOF 9
