REMARK  Name = ZINC39634390
REMARK  10 active torsions:
REMARK  status: ('A' for Active; 'I' for Inactive)
REMARK    1  A    between atoms: C_1  and  C_2
REMARK    2  A    between atoms: C_2  and  C_3
REMARK    3  A    between atoms: C_3  and  C_4
REMARK    4  A    between atoms: C_4  and  C_5
REMARK    5  A    between atoms: C_5  and  C_7
REMARK    6  A    between atoms: C_5  and  C_8
REMARK    7  A    between atoms: C_12  and  C_21
REMARK    8  A    between atoms: N_23  and  C_24
REMARK    9  A    between atoms: C_24  and  C_25
REMARK   10  A    between atoms: C_28  and  C_31
REMARK                            x       y       z     vdW  Elec       q    Type
REMARK                         _______ _______ _______ _____ _____    ______ ____
ROOT
ATOM      1  C   UNL     1      -2.792  -4.253  -0.097  0.00  0.00    +0.218 C 
ATOM      2  O   UNL     1      -1.754  -4.863  -0.247  0.00  0.00    -0.275 OA
ATOM      3  N   UNL     1      -3.970  -4.907  -0.143  0.00  0.00    -0.300 N 
ATOM      4  C   UNL     1      -5.330  -4.340   0.010  0.00  0.00    +0.121 C 
ATOM      5  C   UNL     1      -6.188  -5.099  -1.027  0.00  0.00    +0.100 C 
ATOM      6  C   UNL     1      -5.441  -6.422  -1.262  0.00  0.00    -0.004 C 
ATOM      7  C   UNL     1      -4.197  -6.356  -0.363  0.00  0.00    +0.115 C 
ATOM      8  C   UNL     1      -6.319  -7.604  -0.863  0.00  0.00    -0.010 C 
ATOM      9  C   UNL     1      -5.577  -8.909  -1.161  0.00  0.00    -0.082 C 
ATOM     10  N   UNL     1      -5.252  -8.976  -2.591  0.00  0.00    +0.379 N 
ATOM     11  C   UNL     1      -4.332  -7.889  -2.946  0.00  0.00    -0.082 C 
ATOM     12  C   UNL     1      -5.022  -6.540  -2.724  0.00  0.00    -0.010 C 
ATOM     13  H   UNL     1      -4.817  -9.863  -2.795  0.00  0.00    -0.086 HD
ATOM     14  H   UNL     1      -6.100  -8.887  -3.131  0.00  0.00    -0.086 HD
ENDROOT
BRANCH   5  15
ATOM     15  C   UNL     1      -7.566  -5.363  -0.476  0.00  0.00    +0.218 C 
ATOM     16  O   UNL     1      -7.722  -5.520   0.717  0.00  0.00    -0.275 OA
ATOM     17  N   UNL     1      -8.624  -5.424  -1.308  0.00  0.00    -0.311 N 
ATOM     18  H   UNL     1      -8.499  -5.299  -2.261  0.00  0.00    +0.149 HD
BRANCH  17  19
ATOM     19  C   UNL     1      -9.963  -5.681  -0.772  0.00  0.00    +0.139 C 
BRANCH  19  20
ATOM     20  C   UNL     1     -10.961  -5.700  -1.901  0.00  0.00    -0.030 A 
ATOM     21  C   UNL     1     -11.587  -4.530  -2.290  0.00  0.00    +0.005 A 
ATOM     22  C   UNL     1     -12.502  -4.548  -3.326  0.00  0.00    +0.003 A 
ATOM     23  C   UNL     1     -12.791  -5.735  -3.973  0.00  0.00    -0.050 A 
ATOM     24  C   UNL     1     -12.165  -6.904  -3.584  0.00  0.00    +0.003 A 
ATOM     25  C   UNL     1     -11.246  -6.886  -2.551  0.00  0.00    +0.005 A 
ATOM     26  C   UNL     1     -13.790  -5.754  -5.101  0.00  0.00    +0.044 C 
ENDBRANCH  19  20
ENDBRANCH  17  19
ENDBRANCH   5  15
BRANCH   1  27
ATOM     27  C   UNL     1      -2.765  -2.765   0.140  0.00  0.00    +0.072 C 
ATOM     28  C   UNL     1      -3.414  -2.452   1.489  0.00  0.00    +0.017 C 
BRANCH  27  29
ATOM     29  C   UNL     1      -1.315  -2.276   0.145  0.00  0.00    +0.012 C 
BRANCH  29  30
ATOM     30  C   UNL     1      -1.292  -0.751   0.261  0.00  0.00    +0.000 C 
BRANCH  30  32
ATOM     31  C   UNL     1       0.180   1.264   0.382  0.00  0.00    +0.004 C 
ATOM     32  C   UNL     1       0.157  -0.262   0.266  0.00  0.00    -0.003 C 
ENDBRANCH  30  32
ENDBRANCH  29  30
ENDBRANCH  27  29
ENDBRANCH   1  27
TORSDOF 7
