REMARK  Name = ZINC58919311
REMARK  10 active torsions:
REMARK  status: ('A' for Active; 'I' for Inactive)
REMARK    1  A    between atoms: C_1  and  C_2
REMARK    2  A    between atoms: C_5  and  S_8
REMARK    3  A    between atoms: S_8  and  N_11
REMARK    4  A    between atoms: N_11  and  C_12
REMARK    5  A    between atoms: N_11  and  C_26
REMARK    6  A    between atoms: C_12  and  C_13
REMARK    7  A    between atoms: N_15  and  N_16
REMARK    8  A    between atoms: C_17  and  C_18
REMARK    9  A    between atoms: C_17  and  C_19
REMARK   10  A    between atoms: C_31  and  C_32
REMARK                            x       y       z     vdW  Elec       q    Type
REMARK                         _______ _______ _______ _____ _____    ______ ____
ROOT
ATOM      1  N   UNL     1       1.250  -4.840  -0.413  0.00  0.00    -0.194 N 
ENDROOT
BRANCH   1   2
ATOM      2  C   UNL     1       2.033  -5.011  -1.557  0.00  0.00    +0.055 A 
ATOM      3  C   UNL     1       1.978  -6.204  -2.266  0.00  0.00    +0.025 A 
ATOM      4  C   UNL     1       2.753  -6.370  -3.397  0.00  0.00    +0.002 A 
ATOM      5  C   UNL     1       3.583  -5.350  -3.824  0.00  0.00    +0.000 A 
ATOM      6  C   UNL     1       3.640  -4.161  -3.121  0.00  0.00    +0.005 A 
ATOM      7  C   UNL     1       2.863  -3.986  -1.992  0.00  0.00    -0.028 A 
ATOM      8  C   UNL     1       2.921  -2.687  -1.230  0.00  0.00    +0.046 C 
ENDBRANCH   1   2
BRANCH   1   9
ATOM      9  S   UNL     1      -0.263  -4.177  -0.537  0.00  0.00    +0.075 S 
ATOM     10  O   UNL     1      -0.948  -4.501   0.665  0.00  0.00    -0.150 OA
ATOM     11  O   UNL     1      -0.761  -4.537  -1.818  0.00  0.00    -0.150 OA
BRANCH   9  16
ATOM     12  C   UNL     1       0.410   1.819  -0.573  0.00  0.00    +0.044 C 
ATOM     13  C   UNL     1       0.242   0.321  -0.564  0.00  0.00    -0.050 A 
ATOM     14  C   UNL     1       0.096  -0.365  -1.755  0.00  0.00    +0.005 A 
ATOM     15  C   UNL     1      -0.059  -1.739  -1.747  0.00  0.00    +0.029 A 
ATOM     16  C   UNL     1      -0.066  -2.426  -0.547  0.00  0.00    +0.109 A 
ATOM     17  C   UNL     1       0.082  -1.740   0.643  0.00  0.00    +0.029 A 
ATOM     18  C   UNL     1       0.240  -0.367   0.635  0.00  0.00    +0.005 A 
ENDBRANCH   9  16
ENDBRANCH   1   9
BRANCH   1  19
ATOM     19  C   UNL     1       1.767  -5.246   0.896  0.00  0.00    +0.228 C 
BRANCH  19  20
ATOM     20  C   UNL     1       1.499  -6.714   1.108  0.00  0.00    +0.251 C 
ATOM     21  O   UNL     1       0.932  -7.357   0.250  0.00  0.00    -0.272 OA
ATOM     22  N   UNL     1       1.889  -7.312   2.251  0.00  0.00    -0.205 N 
ATOM     23  H   UNL     1       2.343  -6.798   2.937  0.00  0.00    +0.177 HD
BRANCH  22  24
ATOM     24  N   UNL     1       1.641  -8.677   2.448  0.00  0.00    -0.185 NA
ATOM     25  C   UNL     1       2.017  -9.252   3.548  0.00  0.00    +0.063 C 
ATOM     26  C   UNL     1       2.721  -8.453   4.614  0.00  0.00    +0.068 C 
BRANCH  25  27
ATOM     27  C   UNL     1       1.754 -10.688   3.756  0.00  0.00    -0.002 A 
ATOM     28  C   UNL     1       2.153 -11.310   4.942  0.00  0.00    +0.012 A 
ATOM     29  C   UNL     1       1.905 -12.653   5.130  0.00  0.00    +0.039 A 
ATOM     30  C   UNL     1       1.262 -13.387   4.146  0.00  0.00    +0.123 A 
ATOM     31  C   UNL     1       0.865 -12.776   2.967  0.00  0.00    +0.039 A 
ATOM     32  C   UNL     1       1.102 -11.432   2.769  0.00  0.00    +0.012 A 
ATOM     33  F   UNL     1       1.023 -14.703   4.335  0.00  0.00    -0.205 F 
ENDBRANCH  25  27
ENDBRANCH  22  24
ENDBRANCH  19  20
ENDBRANCH   1  19
TORSDOF 7
