REMARK  Name = ZINC21674248
REMARK  9 active torsions:
REMARK  status: ('A' for Active; 'I' for Inactive)
REMARK    1  A    between atoms: C_1  and  O_2
REMARK    2  A    between atoms: O_2  and  C_3
REMARK    3  A    between atoms: C_6  and  O_33
REMARK    4  A    between atoms: N_10  and  C_15
REMARK    5  A    between atoms: C_12  and  O_14
REMARK    6  A    between atoms: C_18  and  S_24
REMARK    7  A    between atoms: C_20  and  N_21
REMARK    8  A    between atoms: S_24  and  N_27
REMARK    9  A    between atoms: O_33  and  C_34
REMARK                            x       y       z     vdW  Elec       q    Type
REMARK                         _______ _______ _______ _____ _____    ______ ____
ROOT
ATOM      1  C   UNL     1       1.470  -2.522   2.235  0.00  0.00    +0.061 A 
ATOM      2  C   UNL     1       2.831  -2.491   1.959  0.00  0.00    +0.027 A 
ATOM      3  C   UNL     1       3.727  -3.051   2.849  0.00  0.00    +0.030 A 
ATOM      4  C   UNL     1       3.270  -3.651   4.008  0.00  0.00    +0.108 A 
ATOM      5  C   UNL     1       1.916  -3.688   4.283  0.00  0.00    +0.063 A 
ATOM      6  C   UNL     1       1.014  -3.126   3.400  0.00  0.00    +0.149 A 
ENDROOT
BRANCH   1  14
ATOM      7  C   UNL     1      -0.214   1.434   0.031  0.00  0.00    +0.125 A 
ATOM      8  C   UNL     1      -1.040   2.011  -0.913  0.00  0.00    +0.049 A 
ATOM      9  C   UNL     1      -1.740   1.211  -1.794  0.00  0.00    +0.049 A 
ATOM     10  C   UNL     1      -1.608  -0.166  -1.728  0.00  0.00    +0.126 A 
ATOM     11  C   UNL     1      -0.774  -0.748  -0.779  0.00  0.00    +0.032 A 
ATOM     12  C   UNL     1      -0.076   0.051   0.098  0.00  0.00    +0.021 A 
ATOM     13  C   UNL     1       0.845  -0.528   1.139  0.00  0.00    +0.144 C 
ATOM     14  N   UNL     1       0.561  -1.952   1.340  0.00  0.00    -0.321 N 
ATOM     15  C   UNL     1       0.576  -2.662   0.051  0.00  0.00    +0.141 C 
ATOM     16  C   UNL     1      -0.665  -2.250  -0.743  0.00  0.00    +0.166 C 
BRANCH   7  18
ATOM     17  C   UNL     1       0.289   3.636   0.776  0.00  0.00    +0.277 C 
ATOM     18  O   UNL     1       0.474   2.225   0.898  0.00  0.00    -0.495 OA
ENDBRANCH   7  18
BRANCH  16  19
ATOM     19  O   UNL     1      -0.562  -2.751  -2.077  0.00  0.00    -0.385 OA
ATOM     20  H   UNL     1      -0.473  -3.833  -2.253  0.00  0.00    +0.210 HD
ENDBRANCH  16  19
BRANCH  10  21
ATOM     21  O   UNL     1      -2.297  -0.954  -2.596  0.00  0.00    -0.495 OA
ATOM     22  C   UNL     1      -3.136  -0.294  -3.546  0.00  0.00    +0.277 C 
ENDBRANCH  10  21
ENDBRANCH   1  14
BRANCH   6  23
ATOM     23  N   UNL     1      -0.435  -3.167   3.695  0.00  0.00    +0.058 N 
ATOM     24  O   UNL     1      -0.828  -3.608   4.760  0.00  0.00    -0.126 OA
ATOM     25  O   UNL     1      -1.236  -2.759   2.873  0.00  0.00    -0.126 OA
ENDBRANCH   6  23
BRANCH   4  26
ATOM     26  S   UNL     1       4.416  -4.369   5.137  0.00  0.00    +0.061 S 
ATOM     27  O   UNL     1       5.662  -3.722   4.917  0.00  0.00    -0.153 OA
ATOM     28  O   UNL     1       3.780  -4.384   6.407  0.00  0.00    -0.153 OA
BRANCH  26  29
ATOM     29  N   UNL     1       4.619  -5.950   4.690  0.00  0.00    -0.172 NA
ATOM     30  C   UNL     1       3.761  -7.010   5.245  0.00  0.00    +0.137 C 
ATOM     31  C   UNL     1       3.209  -7.841   4.076  0.00  0.00    +0.177 C 
ATOM     32  O   UNL     1       4.295  -8.271   3.251  0.00  0.00    -0.377 OA
ATOM     33  C   UNL     1       5.023  -7.203   2.639  0.00  0.00    +0.177 C 
ATOM     34  C   UNL     1       5.665  -6.339   3.731  0.00  0.00    +0.137 C 
ENDBRANCH  26  29
ENDBRANCH   4  26
TORSDOF 7
