REMARK  Name = ZINC20527919
REMARK  9 active torsions:
REMARK  status: ('A' for Active; 'I' for Inactive)
REMARK    1  A    between atoms: C_1  and  C_2
REMARK    2  A    between atoms: C_5  and  N_9
REMARK    3  A    between atoms: C_7  and  C_8
REMARK    4  A    between atoms: C_10  and  C_12
REMARK    5  A    between atoms: C_12  and  S_13
REMARK    6  A    between atoms: S_13  and  C_14
REMARK    7  A    between atoms: N_18  and  N_19
REMARK    8  A    between atoms: N_20  and  N_21
REMARK    9  A    between atoms: C_22  and  C_23
REMARK                            x       y       z     vdW  Elec       q    Type
REMARK                         _______ _______ _______ _____ _____    ______ ____
ROOT
ATOM      1  C   UNL     1       1.856   5.527  -0.360  0.00  0.00    +0.210 A 
ATOM      2  N   UNL     1       0.557   5.488  -0.183  0.00  0.00    -0.119 NA
ATOM      3  N   UNL     1       0.153   4.147  -0.231  0.00  0.00    -0.109 NA
ATOM      4  C   UNL     1       1.220   3.410  -0.427  0.00  0.00    +0.254 A 
ATOM      5  N   UNL     1       2.299   4.244  -0.516  0.00  0.00    -0.211 N 
ATOM      6  N   UNL     1       1.247   2.027  -0.532  0.00  0.00    -0.204 N 
ATOM      7  H   UNL     1       2.201   1.507  -0.702  0.00  0.00    +0.177 HD
ENDROOT
BRANCH   5   8
ATOM      8  N   UNL     1       3.594   3.862  -0.723  0.00  0.00    -0.294 N 
ATOM      9  H   UNL     1       3.842   2.796  -0.835  0.00  0.00    +0.163 HD
ATOM     10  H   UNL     1       4.389   4.620  -0.777  0.00  0.00    +0.163 HD
ENDBRANCH   5   8
BRANCH   6  11
ATOM     11  N   UNL     1       0.059   1.292  -0.421  0.00  0.00    -0.187 NA
ATOM     12  C   UNL     1       0.084  -0.002  -0.519  0.00  0.00    +0.139 C 
BRANCH  12  13
ATOM     13  C   UNL     1      -1.166  -0.775  -0.403  0.00  0.00    +0.013 A 
ATOM     14  C   UNL     1      -1.142  -2.168  -0.508  0.00  0.00    +0.012 A 
ATOM     15  C   UNL     1      -2.315  -2.885  -0.397  0.00  0.00    +0.021 A 
ATOM     16  C   UNL     1      -3.515  -2.228  -0.183  0.00  0.00    +0.042 A 
ATOM     17  C   UNL     1      -3.547  -0.848  -0.077  0.00  0.00    +0.040 A 
ATOM     18  C   UNL     1      -2.380  -0.118  -0.180  0.00  0.00    +0.051 A 
ATOM     19 CL   UNL     1      -2.420   1.612  -0.041  0.00  0.00    -0.083 Cl
ATOM     20 CL   UNL     1      -4.987  -3.139  -0.045  0.00  0.00    -0.083 Cl
ENDBRANCH  12  13
ENDBRANCH   6  11
BRANCH   1  21
ATOM     21  S   UNL     1       2.854   6.978  -0.392  0.00  0.00    -0.075 S 
BRANCH  21  22
ATOM     22  C   UNL     1       1.672   8.329  -0.129  0.00  0.00    +0.173 C 
BRANCH  22  24
ATOM     23  N   UNL     1       1.726  10.796   0.045  0.00  0.00    -0.285 N 
ATOM     24  C   UNL     1       2.405   9.646  -0.134  0.00  0.00    +0.227 C 
ATOM     25  O   UNL     1       3.607   9.671  -0.298  0.00  0.00    -0.275 OA
ATOM     26  H   UNL     1       0.628  10.782   0.107  0.00  0.00    +0.155 HD
BRANCH  23  31
ATOM     27  C   UNL     1       4.530  15.709   0.474  0.00  0.00    +0.044 C 
ATOM     28  C   UNL     1       3.785  14.404   0.360  0.00  0.00    -0.047 A 
ATOM     29  C   UNL     1       4.352  13.241   0.848  0.00  0.00    +0.005 A 
ATOM     30  C   UNL     1       3.669  12.044   0.751  0.00  0.00    +0.023 A 
ATOM     31  C   UNL     1       2.417  12.008   0.151  0.00  0.00    +0.034 A 
ATOM     32  C   UNL     1       1.851  13.177  -0.339  0.00  0.00    +0.027 A 
ATOM     33  C   UNL     1       2.536  14.372  -0.232  0.00  0.00    -0.046 A 
ATOM     34  C   UNL     1       1.922  15.642  -0.763  0.00  0.00    +0.044 C 
ENDBRANCH  23  31
ENDBRANCH  22  24
ENDBRANCH  21  22
ENDBRANCH   1  21
TORSDOF 7
