REMARK  Name = ZINC67536421
REMARK  6 active torsions:
REMARK  status: ('A' for Active; 'I' for Inactive)
REMARK    1  A    between atoms: C_1  and  C_2
REMARK    2  A    between atoms: C_2  and  C_4
REMARK    3  A    between atoms: C_2  and  N_10
REMARK    4  A    between atoms: N_13  and  C_14
REMARK    5  A    between atoms: C_14  and  C_15
REMARK    6  A    between atoms: C_19  and  N_21
REMARK                            x       y       z     vdW  Elec       q    Type
REMARK                         _______ _______ _______ _____ _____    ______ ____
ROOT
ATOM      1  N   UNL     1      -1.372  -0.511   0.012  0.00  0.00    -0.292 N 
ATOM      2  C   UNL     1      -2.051  -0.643  -1.145  0.00  0.00    +0.300 C 
ATOM      3  O   UNL     1      -1.522  -0.341  -2.197  0.00  0.00    -0.253 OA
ATOM      4  N   UNL     1      -3.315  -1.109  -1.135  0.00  0.00    -0.295 N 
ATOM      5  H   UNL     1      -1.794  -0.752   0.852  0.00  0.00    +0.151 HD
ATOM      6  H   UNL     1      -3.737  -1.350  -0.295  0.00  0.00    +0.151 HD
ENDROOT
BRANCH   1   8
ATOM      7  C   UNL     1      -0.019   1.526   0.010  0.00  0.00    +0.033 C 
ATOM      8  C   UNL     1       0.002  -0.004   0.002  0.00  0.00    +0.108 C 
BRANCH   8   9
ATOM      9  C   UNL     1       0.731  -0.503   1.223  0.00  0.00    +0.011 A 
ATOM     10  C   UNL     1       2.009  -0.938   1.335  0.00  0.00    +0.014 A 
ATOM     11  C   UNL     1       2.471  -1.355   2.570  0.00  0.00    +0.028 A 
ATOM     12  C   UNL     1       1.629  -1.315   3.633  0.00  0.00    +0.078 A 
ATOM     13  S   UNL     1       0.136  -0.668   2.898  0.00  0.00    -0.080 S 
ATOM     14 CL   UNL     1       1.927  -1.770   5.282  0.00  0.00    -0.076 Cl
ENDBRANCH   8   9
ENDBRANCH   1   8
BRANCH   4  15
ATOM     15  C   UNL     1      -4.053  -1.252  -2.393  0.00  0.00    +0.141 C 
BRANCH  15  16
ATOM     16  C   UNL     1      -5.432  -1.789  -2.108  0.00  0.00    -0.028 A 
ATOM     17  C   UNL     1      -5.652  -3.154  -2.086  0.00  0.00    +0.005 A 
ATOM     18  C   UNL     1      -6.916  -3.646  -1.825  0.00  0.00    +0.003 A 
ATOM     19  C   UNL     1      -7.962  -2.774  -1.585  0.00  0.00    +0.033 A 
ATOM     20  C   UNL     1      -7.742  -1.409  -1.607  0.00  0.00    +0.127 A 
ATOM     21  C   UNL     1      -6.476  -0.917  -1.863  0.00  0.00    +0.038 A 
BRANCH  20  22
ATOM     22  N   UNL     1      -8.861  -0.476  -1.350  0.00  0.00    +0.056 N 
ATOM     23  O   UNL     1      -9.968  -0.906  -1.123  0.00  0.00    -0.126 OA
ATOM     24  O   UNL     1      -8.669   0.718  -1.369  0.00  0.00    -0.126 OA
ENDBRANCH  20  22
ENDBRANCH  15  16
ENDBRANCH   4  15
TORSDOF 5
