REMARK  Name = ZINC08844191
REMARK  9 active torsions:
REMARK  status: ('A' for Active; 'I' for Inactive)
REMARK    1  A    between atoms: C_1  and  C_2
REMARK    2  A    between atoms: C_2  and  C_3
REMARK    3  A    between atoms: C_6  and  N_9
REMARK    4  A    between atoms: C_10  and  C_12
REMARK    5  A    between atoms: C_12  and  C_14
REMARK    6  A    between atoms: C_12  and  S_15
REMARK    7  A    between atoms: S_15  and  C_16
REMARK    8  A    between atoms: C_21  and  C_30
REMARK    9  A    between atoms: C_22  and  C_24
REMARK                            x       y       z     vdW  Elec       q    Type
REMARK                         _______ _______ _______ _____ _____    ______ ____
ROOT
ATOM      1  C   UNL     1      -0.134   3.965   0.106  0.00  0.00    +0.170 A 
ATOM      2  N   UNL     1       1.133   3.474   0.003  0.00  0.00    -0.301 N 
ATOM      3  H   UNL     1       1.887   4.083  -0.015  0.00  0.00    +0.171 HD
ATOM      4  C   UNL     1       1.343   2.143  -0.075  0.00  0.00    +0.270 A 
ATOM      5  O   UNL     1       2.473   1.696  -0.167  0.00  0.00    -0.266 OA
ATOM      6  C   UNL     1       0.220   1.275  -0.046  0.00  0.00    +0.142 A 
ATOM      7  C   UNL     1      -1.062   1.845   0.057  0.00  0.00    +0.096 A 
ATOM      8  N   UNL     1      -1.187   3.172   0.134  0.00  0.00    -0.222 NA
ENDROOT
BRANCH   7   9
ATOM      9  C   UNL     1      -2.262   0.981   0.085  0.00  0.00    +0.002 A 
ATOM     10  C   UNL     1      -3.354   1.272  -0.734  0.00  0.00    +0.010 A 
ATOM     11  C   UNL     1      -4.468   0.458  -0.708  0.00  0.00    +0.001 A 
ATOM     12  C   UNL     1      -4.509  -0.638   0.136  0.00  0.00    +0.000 A 
ATOM     13  C   UNL     1      -3.432  -0.928   0.955  0.00  0.00    +0.001 A 
ATOM     14  C   UNL     1      -2.310  -0.126   0.934  0.00  0.00    +0.010 A 
ENDBRANCH   7   9
BRANCH   6  15
ATOM     15  C   UNL     1       0.388  -0.145  -0.125  0.00  0.00    +0.107 C 
ATOM     16  N   UNL     1       0.520  -1.272  -0.188  0.00  0.00    -0.191 NA
ENDBRANCH   6  15
BRANCH   1  17
ATOM     17  S   UNL     1      -0.371   5.708   0.204  0.00  0.00    -0.075 S 
BRANCH  17  18
ATOM     18  C   UNL     1      -2.176   5.773   0.321  0.00  0.00    +0.137 C 
ATOM     19  C   UNL     1      -2.626   5.121   1.630  0.00  0.00    +0.029 C 
BRANCH  18  21
ATOM     20  N   UNL     1      -3.902   7.509  -0.033  0.00  0.00    -0.285 N 
ATOM     21  C   UNL     1      -2.629   7.210   0.294  0.00  0.00    +0.230 C 
ATOM     22  O   UNL     1      -1.849   8.098   0.568  0.00  0.00    -0.274 OA
ATOM     23  H   UNL     1      -4.508   6.806  -0.314  0.00  0.00    +0.155 HD
BRANCH  20  27
ATOM     24  C   UNL     1      -5.231  11.453   0.160  0.00  0.00    -0.048 A 
ATOM     25  C   UNL     1      -3.933  11.181  -0.231  0.00  0.00    +0.005 A 
ATOM     26  C   UNL     1      -3.490   9.874  -0.296  0.00  0.00    +0.023 A 
ATOM     27  C   UNL     1      -4.348   8.834   0.032  0.00  0.00    +0.033 A 
ATOM     28  C   UNL     1      -5.653   9.110   0.419  0.00  0.00    +0.023 A 
ATOM     29  C   UNL     1      -6.089  10.419   0.488  0.00  0.00    +0.005 A 
BRANCH  24  31
ATOM     30  C   UNL     1      -6.306  13.284  -1.120  0.00  0.00    +0.009 C 
ATOM     31  C   UNL     1      -5.712  12.879   0.230  0.00  0.00    +0.032 C 
ENDBRANCH  24  31
ENDBRANCH  20  27
ENDBRANCH  18  21
ENDBRANCH  17  18
ENDBRANCH   1  17
TORSDOF 7
