REMARK  Name = ZINC09554009
REMARK  5 active torsions:
REMARK  status: ('A' for Active; 'I' for Inactive)
REMARK    1  A    between atoms: C_3  and  C_8
REMARK    2  A    between atoms: N_10  and  C_11
REMARK    3  A    between atoms: C_11  and  N_13
REMARK    4  A    between atoms: N_16  and  C_19
REMARK    5  A    between atoms: C_22  and  N_26
REMARK                            x       y       z     vdW  Elec       q    Type
REMARK                         _______ _______ _______ _____ _____    ______ ____
ROOT
ATOM      1  N   UNL     1       4.218  -1.002  -0.081  0.00  0.00    -0.309 N 
ATOM      2  C   UNL     1       3.949  -0.342   1.206  0.00  0.00    +0.125 C 
ATOM      3  C   UNL     1       2.530   0.236   1.169  0.00  0.00    +0.124 C 
ATOM      4  N   UNL     1       2.386   1.097  -0.012  0.00  0.00    -0.326 N 
ATOM      5  C   UNL     1       2.546   0.329  -1.254  0.00  0.00    +0.124 C 
ATOM      6  C   UNL     1       3.965  -0.246  -1.317  0.00  0.00    +0.125 C 
ENDROOT
BRANCH   4   7
ATOM      7  C   UNL     1       1.162   1.771   0.006  0.00  0.00    +0.048 A 
ATOM      8  C   UNL     1      -0.028   1.054   0.016  0.00  0.00    +0.027 A 
ATOM      9  C   UNL     1      -1.236   1.724   0.027  0.00  0.00    +0.034 A 
ATOM     10  C   UNL     1      -1.262   3.106   0.040  0.00  0.00    +0.128 A 
ATOM     11  C   UNL     1      -0.080   3.824   0.030  0.00  0.00    +0.054 A 
ATOM     12  C   UNL     1       1.132   3.161   0.013  0.00  0.00    +0.064 A 
ATOM     13 CL   UNL     1       2.616   4.062  -0.000  0.00  0.00    -0.082 Cl
BRANCH  10  14
ATOM     14  N   UNL     1      -2.559   3.820   0.058  0.00  0.00    +0.056 N 
ATOM     15  O   UNL     1      -2.584   5.037   0.064  0.00  0.00    -0.126 OA
ATOM     16  O   UNL     1      -3.601   3.189   0.066  0.00  0.00    -0.126 OA
ENDBRANCH  10  14
ENDBRANCH   4   7
BRANCH   1  17
ATOM     17  C   UNL     1       4.684  -2.266  -0.126  0.00  0.00    +0.139 C 
ATOM     18  S   UNL     1       5.092  -3.080   1.323  0.00  0.00    -0.018 S 
BRANCH  17  21
ATOM     19  C   UNL     1       5.191  -4.186  -1.353  0.00  0.00    +0.250 C 
ATOM     20  O   UNL     1       5.389  -4.794  -0.319  0.00  0.00    -0.270 OA
ATOM     21  N   UNL     1       4.828  -2.889  -1.312  0.00  0.00    -0.264 N 
ATOM     22  H   UNL     1       4.671  -2.403  -2.137  0.00  0.00    +0.157 HD
BRANCH  19  25
ATOM     23  C   UNL     1       5.272  -4.816  -5.054  0.00  0.00    +0.002 A 
ATOM     24  C   UNL     1       5.118  -4.175  -3.842  0.00  0.00    +0.013 A 
ATOM     25  C   UNL     1       5.350  -4.869  -2.654  0.00  0.00    +0.038 A 
ATOM     26  C   UNL     1       5.726  -6.212  -2.699  0.00  0.00    +0.028 A 
ATOM     27  C   UNL     1       5.872  -6.844  -3.917  0.00  0.00    +0.019 A 
ATOM     28  C   UNL     1       5.645  -6.148  -5.093  0.00  0.00    +0.015 A 
ATOM     29 BR   UNL     1       6.381  -8.664  -3.982  0.00  0.00    -0.050 Br
ENDBRANCH  19  25
ENDBRANCH  17  21
ENDBRANCH   1  17
TORSDOF 5
