REMARK  Name = ZINC35957306
REMARK  8 active torsions:
REMARK  status: ('A' for Active; 'I' for Inactive)
REMARK    1  A    between atoms: C_5  and  O_7
REMARK    2  A    between atoms: O_7  and  C_8
REMARK    3  A    between atoms: C_8  and  C_9
REMARK    4  A    between atoms: C_11  and  C_14
REMARK    5  A    between atoms: N_16  and  C_17
REMARK    6  A    between atoms: C_17  and  C_18
REMARK    7  A    between atoms: C_18  and  N_19
REMARK    8  A    between atoms: N_22  and  C_23
REMARK                            x       y       z     vdW  Elec       q    Type
REMARK                         _______ _______ _______ _____ _____    ______ ____
ROOT
ATOM      1  C   UNL     1       0.600  -7.285   1.856  0.00  0.00    +0.263 C 
ATOM      2  O   UNL     1       0.769  -8.462   1.601  0.00  0.00    -0.269 OA
ATOM      3  N   UNL     1       0.556  -6.873   3.139  0.00  0.00    -0.309 N 
ATOM      4  H   UNL     1       0.421  -5.934   3.343  0.00  0.00    +0.149 HD
ENDROOT
BRANCH   1   7
ATOM      5  C   UNL     1       0.128  -4.204  -0.021  0.00  0.00    +0.116 A 
ATOM      6  N   UNL     1       0.258  -5.007   1.000  0.00  0.00    -0.236 NA
ATOM      7  C   UNL     1       0.445  -6.309   0.764  0.00  0.00    +0.133 A 
ATOM      8  C   UNL     1       0.483  -6.683  -0.552  0.00  0.00    +0.080 A 
ATOM      9  S   UNL     1       0.254  -5.222  -1.350  0.00  0.00    -0.076 S 
BRANCH   5  10
ATOM     10  C   UNL     1      -0.089  -2.713  -0.010  0.00  0.00    +0.291 C 
BRANCH  10  11
ATOM     11  O   UNL     1       1.175  -2.047  -0.029  0.00  0.00    -0.482 OA
BRANCH  11  16
ATOM     12  C   UNL     1      -0.070   1.372   0.009  0.00  0.00    +0.004 A 
ATOM     13  C   UNL     1       1.118   2.080  -0.008  0.00  0.00    +0.003 A 
ATOM     14  C   UNL     1       2.326   1.408  -0.032  0.00  0.00    +0.042 A 
ATOM     15  C   UNL     1       2.349   0.025  -0.040  0.00  0.00    +0.165 A 
ATOM     16  C   UNL     1       1.156  -0.688  -0.022  0.00  0.00    +0.156 A 
ATOM     17  C   UNL     1      -0.053  -0.009   0.003  0.00  0.00    +0.048 A 
ATOM     18  F   UNL     1       3.529  -0.632  -0.064  0.00  0.00    -0.202 F 
ENDBRANCH  11  16
ENDBRANCH  10  11
ENDBRANCH   5  10
ENDBRANCH   1   7
BRANCH   3  19
ATOM     19  C   UNL     1       0.711  -7.843   4.226  0.00  0.00    +0.123 C 
BRANCH  19  20
ATOM     20  C   UNL     1       0.622  -7.121   5.571  0.00  0.00    +0.124 C 
BRANCH  20  21
ATOM     21  N   UNL     1       0.777  -8.091   6.658  0.00  0.00    -0.298 N 
ATOM     22  C   UNL     1       0.732  -7.679   7.940  0.00  0.00    +0.304 C 
ATOM     23  O   UNL     1       0.563  -6.503   8.196  0.00  0.00    -0.253 OA
ATOM     24  N   UNL     1       0.875  -8.572   8.940  0.00  0.00    -0.268 N 
ATOM     25  H   UNL     1       0.911  -9.030   6.454  0.00  0.00    +0.150 HD
ATOM     26  H   UNL     1       0.944  -9.518   8.739  0.00  0.00    +0.156 HD
BRANCH  24  27
ATOM     27  C   UNL     1       0.922  -8.133  10.269  0.00  0.00    +0.053 A 
ATOM     28  C   UNL     1       0.165  -7.040  10.668  0.00  0.00    +0.026 A 
ATOM     29  C   UNL     1       0.214  -6.609  11.980  0.00  0.00    +0.022 A 
ATOM     30  C   UNL     1       1.017  -7.266  12.896  0.00  0.00    +0.042 A 
ATOM     31  C   UNL     1       1.773  -8.355  12.502  0.00  0.00    +0.041 A 
ATOM     32  C   UNL     1       1.724  -8.794  11.192  0.00  0.00    +0.064 A 
ATOM     33 CL   UNL     1       2.666 -10.166  10.699  0.00  0.00    -0.082 Cl
ATOM     34 CL   UNL     1       1.076  -6.721  14.543  0.00  0.00    -0.083 Cl
ENDBRANCH  24  27
ENDBRANCH  20  21
ENDBRANCH  19  20
ENDBRANCH   3  19
TORSDOF 8
