REMARK  Name = ZINC39698161
REMARK  6 active torsions:
REMARK  status: ('A' for Active; 'I' for Inactive)
REMARK    1  A    between atoms: C_1  and  C_2
REMARK    2  A    between atoms: N_16  and  N_17
REMARK    3  A    between atoms: C_18  and  C_19
REMARK    4  A    between atoms: C_21  and  O_27
REMARK    5  A    between atoms: C_22  and  O_26
REMARK    6  A    between atoms: O_27  and  C_28
REMARK                            x       y       z     vdW  Elec       q    Type
REMARK                         _______ _______ _______ _____ _____    ______ ____
ROOT
ATOM      1  C   UNL     1      -0.018   1.503   0.010  0.00  0.00    +0.044 C 
ATOM      2  C   UNL     1       0.002  -0.004   0.002  0.00  0.00    -0.050 A 
ATOM      3  C   UNL     1       0.005  -0.672  -1.230  0.00  0.00    +0.005 A 
ATOM      4  C   UNL     1       0.018  -2.022  -1.308  0.00  0.00    +0.026 A 
ATOM      5  C   UNL     1       0.028  -2.812  -0.071  0.00  0.00    +0.046 A 
ATOM      6  N   UNL     1       0.073  -4.106   0.139  0.00  0.00    -0.359 N 
ATOM      7  C   UNL     1      -0.065  -4.355   1.565  0.00  0.00    +0.229 C 
ATOM      8  C   UNL     1       0.065  -2.998   2.235  0.00  0.00    +0.115 C 
ATOM      9  C   UNL     1       0.036  -2.075   1.218  0.00  0.00    +0.025 A 
ATOM     10  C   UNL     1       0.022  -0.662   1.184  0.00  0.00    +0.015 A 
ATOM     11  N   UNL     1       0.302  -2.882   3.544  0.00  0.00    -0.146 NA
ATOM     12  N   UNL     1       0.931  -3.879   4.089  0.00  0.00    -0.113 NA
ATOM     13  C   UNL     1       1.375  -4.934   3.364  0.00  0.00    +0.230 C 
ATOM     14  N   UNL     1       0.973  -5.206   2.143  0.00  0.00    -0.330 N 
ATOM     15  N   UNL     1       2.303  -5.775   3.943  0.00  0.00    -0.206 N 
ATOM     16  H   UNL     1       2.640  -6.539   3.449  0.00  0.00    +0.177 HD
ATOM     17  H   UNL     1       0.180  -4.786  -0.544  0.00  0.00    +0.162 HD
ATOM     18  H   UNL     1       1.353  -5.944   1.641  0.00  0.00    +0.165 HD
ENDROOT
BRANCH  15  19
ATOM     19  N   UNL     1       2.758  -5.526   5.244  0.00  0.00    -0.188 NA
ATOM     20  C   UNL     1       3.631  -6.318   5.789  0.00  0.00    +0.138 C 
BRANCH  20  21
ATOM     21  C   UNL     1       4.110  -6.056   7.159  0.00  0.00    -0.001 A 
ATOM     22  C   UNL     1       5.054  -6.904   7.745  0.00  0.00    +0.059 A 
ATOM     23  C   UNL     1       5.500  -6.654   9.029  0.00  0.00    +0.163 A 
ATOM     24  C   UNL     1       5.009  -5.559   9.736  0.00  0.00    +0.173 A 
ATOM     25  C   UNL     1       4.071  -4.717   9.156  0.00  0.00    +0.063 A 
ATOM     26  C   UNL     1       3.626  -4.957   7.872  0.00  0.00    +0.028 A 
ATOM     27 BR   UNL     1       3.409  -3.233  10.123  0.00  0.00    -0.046 Br
BRANCH  24  28
ATOM     28  O   UNL     1       5.449  -5.315  11.000  0.00  0.00    -0.503 OA
ATOM     29  H   UNL     1       6.228  -4.743  11.041  0.00  0.00    +0.292 HD
ENDBRANCH  24  28
BRANCH  23  30
ATOM     30  O   UNL     1       6.419  -7.477   9.602  0.00  0.00    -0.491 OA
ATOM     31  C   UNL     1       6.878  -8.581   8.819  0.00  0.00    +0.277 C 
ENDBRANCH  23  30
ENDBRANCH  20  21
ENDBRANCH  15  19
TORSDOF 4
