REMARK  Name = ZINC14889412
REMARK  13 active torsions:
REMARK  status: ('A' for Active; 'I' for Inactive)
REMARK    1  A    between atoms: C_1  and  C_2
REMARK    2  A    between atoms: C_2  and  C_3
REMARK    3  A    between atoms: C_2  and  N_4
REMARK    4  A    between atoms: C_5  and  C_7
REMARK    5  A    between atoms: C_10  and  S_23
REMARK    6  A    between atoms: C_13  and  C_14
REMARK    7  A    between atoms: C_13  and  N_60
REMARK    8  A    between atoms: C_17  and  O_21
REMARK    9  A    between atoms: C_19  and  O_20
REMARK   10  A    between atoms: O_21  and  C_22
REMARK   11  A    between atoms: S_23  and  C_24
REMARK   12  A    between atoms: C_27  and  O_30
REMARK   13  A    between atoms: O_30  and  C_31
REMARK                            x       y       z     vdW  Elec       q    Type
REMARK                         _______ _______ _______ _____ _____    ______ ____
ROOT
ATOM      1  C   UNL     1      -2.856   2.319  -1.997  0.00  0.00    +0.021 C 
ATOM      2  C   UNL     1      -2.638   1.921  -3.469  0.00  0.00    +0.006 C 
ATOM      3  C   UNL     1      -2.671   0.375  -3.478  0.00  0.00    +0.034 C 
ATOM      4  C   UNL     1      -2.333   0.013  -2.010  0.00  0.00    -0.063 C 
ATOM      5  N   UNL     1      -3.029   1.063  -1.258  0.00  0.00    +0.391 N 
ATOM      6  H   UNL     1      -4.028   0.836  -1.189  0.00  0.00    -0.080 HD
ENDROOT
BRANCH   1   8
ATOM      7  N   UNL     1      -4.147   4.368  -2.497  0.00  0.00    -0.314 N 
ATOM      8  C   UNL     1      -4.090   3.174  -1.873  0.00  0.00    +0.200 C 
ATOM      9  O   UNL     1      -5.031   2.789  -1.213  0.00  0.00    -0.278 OA
ATOM     10  H   UNL     1      -3.394   4.676  -3.025  0.00  0.00    +0.149 HD
BRANCH   7  12
ATOM     11  C   UNL     1      -4.976   6.667  -2.601  0.00  0.00    +0.027 C 
ATOM     12  C   UNL     1      -5.348   5.200  -2.377  0.00  0.00    +0.067 C 
ATOM     13  C   UNL     1      -6.375   4.768  -3.425  0.00  0.00    +0.027 C 
ENDBRANCH   7  12
ENDBRANCH   1   8
BRANCH   5  14
ATOM     14  C   UNL     1      -2.461   1.190   0.118  0.00  0.00    -0.038 C 
BRANCH  14  15
ATOM     15  C   UNL     1      -1.057   1.730   0.021  0.00  0.00    -0.022 A 
ATOM     16  C   UNL     1       0.013   0.860  -0.075  0.00  0.00    +0.009 A 
ATOM     17  C   UNL     1       1.300   1.353  -0.170  0.00  0.00    +0.046 A 
ATOM     18  C   UNL     1       1.522   2.723  -0.163  0.00  0.00    +0.124 A 
ATOM     19  C   UNL     1       0.452   3.597  -0.060  0.00  0.00    +0.091 A 
ATOM     20  C   UNL     1      -0.839   3.100   0.034  0.00  0.00    +0.122 A 
BRANCH  20  21
ATOM     21  O   UNL     1      -1.891   3.955   0.135  0.00  0.00    -0.506 OA
ATOM     22  H   UNL     1      -2.207   4.292  -0.715  0.00  0.00    +0.292 HD
ENDBRANCH  20  21
BRANCH  18  23
ATOM     23  O   UNL     1       2.789   3.206  -0.256  0.00  0.00    -0.495 OA
ATOM     24  C   UNL     1       3.844   2.248  -0.359  0.00  0.00    +0.277 C 
ENDBRANCH  18  23
ENDBRANCH  14  15
ENDBRANCH   5  14
BRANCH   3  25
ATOM     25  S   UNL     1      -1.416  -0.287  -4.607  0.00  0.00    -0.124 S 
BRANCH  25  26
ATOM     26  C   UNL     1      -2.102  -0.023  -6.209  0.00  0.00    +0.008 A 
ATOM     27  C   UNL     1      -3.318   0.635  -6.344  0.00  0.00    +0.018 A 
ATOM     28  C   UNL     1      -3.853   0.845  -7.600  0.00  0.00    +0.047 A 
ATOM     29  C   UNL     1      -3.181   0.391  -8.725  0.00  0.00    +0.120 A 
ATOM     30  C   UNL     1      -1.969  -0.271  -8.591  0.00  0.00    +0.047 A 
ATOM     31  C   UNL     1      -1.430  -0.478  -7.337  0.00  0.00    +0.018 A 
BRANCH  29  32
ATOM     32  O   UNL     1      -3.710   0.595  -9.961  0.00  0.00    -0.495 OA
ATOM     33  C   UNL     1      -4.961   1.283 -10.026  0.00  0.00    +0.277 C 
ENDBRANCH  29  32
ENDBRANCH  25  26
ENDBRANCH   3  25
TORSDOF 9
