REMARK  Name = ZINC18479092
REMARK  11 active torsions:
REMARK  status: ('A' for Active; 'I' for Inactive)
REMARK    1  A    between atoms: C_1  and  C_2
REMARK    2  A    between atoms: C_5  and  C_8
REMARK    3  A    between atoms: C_11  and  S_14
REMARK    4  A    between atoms: N_12  and  N_13
REMARK    5  A    between atoms: S_14  and  C_15
REMARK    6  A    between atoms: C_15  and  C_16
REMARK    7  A    between atoms: N_18  and  C_19
REMARK    8  A    between atoms: C_19  and  C_21
REMARK    9  A    between atoms: C_19  and  C_31
REMARK   10  A    between atoms: C_31  and  C_32
REMARK   11  A    between atoms: C_31  and  C_33
REMARK                            x       y       z     vdW  Elec       q    Type
REMARK                         _______ _______ _______ _____ _____    ______ ____
ROOT
ATOM      1  C   UNL     1      -6.078  -0.139   0.865  0.00  0.00    +0.224 C 
ATOM      2  O   UNL     1      -6.091  -1.304   0.531  0.00  0.00    -0.275 OA
ATOM      3  N   UNL     1      -5.262   0.733   0.240  0.00  0.00    -0.308 N 
ATOM      4  H   UNL     1      -5.251   1.665   0.507  0.00  0.00    +0.149 HD
ENDROOT
BRANCH   1   5
ATOM      5  C   UNL     1      -6.973   0.336   1.980  0.00  0.00    +0.173 C 
BRANCH   5   6
ATOM      6  S   UNL     1      -7.939  -1.058   2.612  0.00  0.00    -0.075 S 
BRANCH   6  10
ATOM      7  C   UNL     1     -10.251   0.200   5.501  0.00  0.00    +0.182 A 
ATOM      8  N   UNL     1      -9.618   1.292   5.141  0.00  0.00    -0.127 NA
ATOM      9  N   UNL     1      -8.802   1.032   4.184  0.00  0.00    -0.121 NA
ATOM     10  C   UNL     1      -8.869  -0.242   3.867  0.00  0.00    +0.209 A 
ATOM     11  N   UNL     1      -9.790  -0.817   4.696  0.00  0.00    -0.224 N 
BRANCH   7  16
ATOM     12  C   UNL     1     -14.201  -0.254   9.661  0.00  0.00    +0.044 C 
ATOM     13  C   UNL     1     -13.166  -0.135   8.571  0.00  0.00    -0.050 A 
ATOM     14  C   UNL     1     -12.544  -1.272   8.085  0.00  0.00    +0.004 A 
ATOM     15  C   UNL     1     -11.596  -1.170   7.088  0.00  0.00    +0.012 A 
ATOM     16  C   UNL     1     -11.265   0.083   6.569  0.00  0.00    +0.021 A 
ATOM     17  C   UNL     1     -11.893   1.226   7.068  0.00  0.00    +0.012 A 
ATOM     18  C   UNL     1     -12.843   1.110   8.062  0.00  0.00    +0.004 A 
ENDBRANCH   7  16
BRANCH  11  19
ATOM     19  N   UNL     1     -10.175  -2.127   4.720  0.00  0.00    -0.295 N 
ATOM     20  H   UNL     1      -9.659  -2.643   5.418  0.00  0.00    +0.163 HD
ATOM     21  H   UNL     1     -11.169  -2.210   4.871  0.00  0.00    +0.163 HD
ENDBRANCH  11  19
ENDBRANCH   6  10
ENDBRANCH   5   6
ENDBRANCH   1   5
BRANCH   3  22
ATOM     22  C   UNL     1      -4.391   0.272  -0.845  0.00  0.00    +0.106 C 
BRANCH  22  23
ATOM     23  C   UNL     1      -3.201   1.189  -0.958  0.00  0.00    -0.023 A 
ATOM     24  C   UNL     1      -3.366   2.554  -0.812  0.00  0.00    +0.009 A 
ATOM     25  C   UNL     1      -2.278   3.400  -0.920  0.00  0.00    +0.050 A 
ATOM     26  C   UNL     1      -1.016   2.880  -1.168  0.00  0.00    +0.162 A 
ATOM     27  C   UNL     1      -0.850   1.508  -1.312  0.00  0.00    +0.162 A 
ATOM     28  C   UNL     1      -1.947   0.665  -1.207  0.00  0.00    +0.055 A 
ATOM     29  O   UNL     1       0.380   0.976  -1.555  0.00  0.00    -0.485 OA
ATOM     30  C   UNL     1       1.388   1.877  -2.025  0.00  0.00    +0.270 C 
ATOM     31  C   UNL     1       1.348   3.140  -1.154  0.00  0.00    +0.270 C 
ATOM     32  O   UNL     1       0.046   3.725  -1.272  0.00  0.00    -0.485 OA
ENDBRANCH  22  23
BRANCH  22  33
ATOM     33  C   UNL     1      -5.169   0.280  -2.162  0.00  0.00    +0.008 C 
ATOM     34  C   UNL     1      -5.540   1.719  -2.526  0.00  0.00    +0.009 C 
ATOM     35  C   UNL     1      -4.300  -0.318  -3.271  0.00  0.00    +0.009 C 
ENDBRANCH  22  33
ENDBRANCH   3  22
TORSDOF 8
