REMARK  Name = ZINC05968775
REMARK  6 active torsions:
REMARK  status: ('A' for Active; 'I' for Inactive)
REMARK    1  A    between atoms: C_1  and  C_2
REMARK    2  A    between atoms: C_5  and  C_8
REMARK    3  A    between atoms: C_8  and  C_10
REMARK    4  A    between atoms: C_8  and  N_56
REMARK    5  A    between atoms: N_17  and  O_25
REMARK    6  A    between atoms: C_18  and  C_19
REMARK                            x       y       z     vdW  Elec       q    Type
REMARK                         _______ _______ _______ _____ _____    ______ ____
ROOT
ATOM      1  C   UNL     1       2.535   3.645  -0.003  0.00  0.00    -0.020 A 
ATOM      2  C   UNL     1       1.143   3.197   0.008  0.00  0.00    +0.006 A 
ATOM      3  C   UNL     1      -0.087   3.860   0.022  0.00  0.00    +0.010 A 
ATOM      4  C   UNL     1      -1.247   3.138   0.029  0.00  0.00    +0.001 A 
ATOM      5  C   UNL     1      -1.214   1.750   0.017  0.00  0.00    +0.002 A 
ATOM      6  C   UNL     1      -0.013   1.076   0.008  0.00  0.00    +0.030 A 
ATOM      7  C   UNL     1       1.181   1.790   0.000  0.00  0.00    +0.088 A 
ATOM      8  N   UNL     1       2.506   1.413  -0.014  0.00  0.00    -0.184 N 
ATOM      9  C   UNL     1       3.308   2.531  -0.016  0.00  0.00    +0.090 A 
ENDROOT
BRANCH   9  10
ATOM     10  C   UNL     1       4.787   2.520  -0.029  0.00  0.00    +0.002 A 
ATOM     11  C   UNL     1       5.487   3.369  -0.888  0.00  0.00    +0.010 A 
ATOM     12  C   UNL     1       6.866   3.358  -0.890  0.00  0.00    +0.001 A 
ATOM     13  C   UNL     1       7.556   2.500  -0.053  0.00  0.00    +0.000 A 
ATOM     14  C   UNL     1       6.868   1.652   0.797  0.00  0.00    +0.001 A 
ATOM     15  C   UNL     1       5.489   1.657   0.814  0.00  0.00    +0.010 A 
ENDBRANCH   9  10
BRANCH   8  16
ATOM     16  O   UNL     1       2.973   0.076  -0.025  0.00  0.00    -0.426 OA
ATOM     17  H   UNL     1       3.095  -0.290  -0.912  0.00  0.00    +0.326 HD
ENDBRANCH   8  16
BRANCH   1  18
ATOM     18  C   UNL     1       3.017   5.073   0.000  0.00  0.00    -0.004 C 
BRANCH  18  23
ATOM     19  C   UNL     1       2.346   7.322   5.281  0.00  0.00    +0.044 C 
ATOM     20  C   UNL     1       2.521   6.735   3.904  0.00  0.00    -0.050 A 
ATOM     21  C   UNL     1       3.762   6.280   3.499  0.00  0.00    +0.003 A 
ATOM     22  C   UNL     1       3.923   5.742   2.236  0.00  0.00    +0.002 A 
ATOM     23  C   UNL     1       2.842   5.659   1.377  0.00  0.00    -0.057 A 
ATOM     24  C   UNL     1       1.603   6.119   1.780  0.00  0.00    +0.002 A 
ATOM     25  C   UNL     1       1.441   6.653   3.045  0.00  0.00    +0.003 A 
ENDBRANCH  18  23
BRANCH  18  31
ATOM     26  C   UNL     1       2.315   5.261  -2.310  0.00  0.00    -0.049 C 
ATOM     27  C   UNL     1       1.443   6.071  -3.273  0.00  0.00    +0.141 C 
ATOM     28  O   UNL     1       1.869   7.436  -3.260  0.00  0.00    -0.383 OA
ATOM     29  C   UNL     1       1.806   8.047  -1.968  0.00  0.00    +0.141 C 
ATOM     30  C   UNL     1       2.682   7.256  -0.993  0.00  0.00    -0.049 C 
ATOM     31  N   UNL     1       2.211   5.856  -0.962  0.00  0.00    +0.390 N 
ATOM     32  H   UNL     1       1.229   5.840  -0.664  0.00  0.00    -0.080 HD
ENDBRANCH  18  31
ENDBRANCH   1  18
TORSDOF 5
