REMARK  Name = ZINC01126198
REMARK  8 active torsions:
REMARK  status: ('A' for Active; 'I' for Inactive)
REMARK    1  A    between atoms: C_1  and  C_2
REMARK    2  A    between atoms: C_2  and  C_3
REMARK    3  A    between atoms: C_8  and  N_9
REMARK    4  A    between atoms: N_9  and  C_10
REMARK    5  A    between atoms: N_9  and  S_24
REMARK    6  A    between atoms: C_10  and  C_11
REMARK    7  A    between atoms: N_13  and  C_14
REMARK    8  A    between atoms: S_24  and  C_27
REMARK                            x       y       z     vdW  Elec       q    Type
REMARK                         _______ _______ _______ _____ _____    ______ ____
ROOT
ATOM      1  N   UNL     1       4.704  -3.600  -0.264  0.00  0.00    -0.194 N 
ENDROOT
BRANCH   1   7
ATOM      2  C   UNL     1       6.037  -5.114  -1.589  0.00  0.00    -0.025 A 
ATOM      3  C   UNL     1       6.173  -5.936  -2.690  0.00  0.00    +0.005 A 
ATOM      4  C   UNL     1       5.125  -6.082  -3.580  0.00  0.00    +0.000 A 
ATOM      5  C   UNL     1       3.938  -5.405  -3.372  0.00  0.00    +0.002 A 
ATOM      6  C   UNL     1       3.793  -4.585  -2.270  0.00  0.00    +0.025 A 
ATOM      7  C   UNL     1       4.846  -4.432  -1.376  0.00  0.00    +0.055 A 
BRANCH   2   9
ATOM      8  C   UNL     1       7.313  -6.227   0.222  0.00  0.00    +0.009 C 
ATOM      9  C   UNL     1       7.179  -4.956  -0.619  0.00  0.00    +0.033 C 
ENDBRANCH   2   9
ENDBRANCH   1   7
BRANCH   1  10
ATOM     10  S   UNL     1       4.382  -4.253   1.224  0.00  0.00    +0.075 S 
ATOM     11  O   UNL     1       4.591  -5.654   1.106  0.00  0.00    -0.150 OA
ATOM     12  O   UNL     1       5.074  -3.457   2.176  0.00  0.00    -0.150 OA
BRANCH  10  13
ATOM     13  C   UNL     1       2.662  -4.025   1.531  0.00  0.00    +0.109 A 
ATOM     14  C   UNL     1       2.211  -2.847   2.096  0.00  0.00    +0.029 A 
ATOM     15  C   UNL     1       0.861  -2.666   2.333  0.00  0.00    +0.002 A 
ATOM     16  C   UNL     1      -0.037  -3.668   2.014  0.00  0.00    +0.000 A 
ATOM     17  C   UNL     1       0.415  -4.848   1.454  0.00  0.00    +0.002 A 
ATOM     18  C   UNL     1       1.764  -5.027   1.212  0.00  0.00    +0.029 A 
ENDBRANCH  10  13
ENDBRANCH   1  10
BRANCH   1  19
ATOM     19  C   UNL     1       4.841  -2.149  -0.412  0.00  0.00    +0.227 C 
BRANCH  19  20
ATOM     20  C   UNL     1       3.514  -1.557  -0.812  0.00  0.00    +0.236 C 
ATOM     21  O   UNL     1       2.525  -2.259  -0.852  0.00  0.00    -0.274 OA
ATOM     22  N   UNL     1       3.426  -0.249  -1.125  0.00  0.00    -0.284 N 
ATOM     23  H   UNL     1       4.229   0.291  -1.180  0.00  0.00    +0.155 HD
BRANCH  22  24
ATOM     24  C   UNL     1       2.174   0.329  -1.370  0.00  0.00    +0.037 A 
ATOM     25  C   UNL     1       1.126  -0.454  -1.836  0.00  0.00    +0.027 A 
ATOM     26  C   UNL     1      -0.108   0.117  -2.080  0.00  0.00    +0.051 A 
ATOM     27  C   UNL     1      -0.305   1.472  -1.859  0.00  0.00    +0.162 A 
ATOM     28  C   UNL     1       0.741   2.258  -1.389  0.00  0.00    +0.164 A 
ATOM     29  C   UNL     1       1.980   1.685  -1.147  0.00  0.00    +0.072 A 
ATOM     30  O   UNL     1       0.564   3.587  -1.159  0.00  0.00    -0.485 OA
ATOM     31  C   UNL     1      -0.579   4.200  -1.766  0.00  0.00    +0.270 C 
ATOM     32  C   UNL     1      -1.795   3.296  -1.523  0.00  0.00    +0.270 C 
ATOM     33  O   UNL     1      -1.527   2.018  -2.112  0.00  0.00    -0.485 OA
ENDBRANCH  22  24
ENDBRANCH  19  20
ENDBRANCH   1  19
TORSDOF 7
