REMARK  Name = ZINC00108170
REMARK  3 active torsions:
REMARK  status: ('A' for Active; 'I' for Inactive)
REMARK    1  A    between atoms: C_8  and  C_15
REMARK    2  A    between atoms: C_18  and  O_21
REMARK    3  A    between atoms: O_21  and  C_22
REMARK                            x       y       z     vdW  Elec       q    Type
REMARK                         _______ _______ _______ _____ _____    ______ ____
ROOT
ATOM      1  C   UNL     1      -3.143  11.226   3.051  0.00  0.00    +0.000 A 
ATOM      2  C   UNL     1      -2.335  11.181   4.172  0.00  0.00    +0.002 A 
ATOM      3  C   UNL     1      -1.156  10.456   4.146  0.00  0.00    +0.026 A 
ATOM      4  C   UNL     1      -0.801   9.780   2.997  0.00  0.00    +0.048 A 
ATOM      5  C   UNL     1      -1.587   9.863   1.851  0.00  0.00    -0.041 A 
ATOM      6  C   UNL     1      -2.771  10.571   1.891  0.00  0.00    +0.004 A 
ATOM      7  C   UNL     1      -1.119   9.189   0.598  0.00  0.00    -0.043 C 
ATOM      8  C   UNL     1      -1.120   7.122   1.857  0.00  0.00    +0.008 C 
ATOM      9  C   UNL     1       0.168   7.656   2.414  0.00  0.00    +0.014 A 
ATOM     10  N   UNL     1       0.300   8.908   2.952  0.00  0.00    -0.321 N 
ATOM     11  C   UNL     1       1.575   9.084   3.372  0.00  0.00    +0.091 A 
ATOM     12  C   UNL     1       2.261   7.952   3.096  0.00  0.00    +0.020 A 
ATOM     13  C   UNL     1       1.364   7.048   2.487  0.00  0.00    +0.022 A 
ATOM     14  N   UNL     1      -1.422   7.744   0.551  0.00  0.00    +0.390 N 
ATOM     15  H   UNL     1      -0.849   7.300  -0.177  0.00  0.00    -0.084 HD
ATOM     16  H   UNL     1      -2.416   7.611   0.332  0.00  0.00    -0.084 HD
ENDROOT
BRANCH   8  17
ATOM     17  C   UNL     1      -1.003   5.630   1.677  0.00  0.00    -0.056 A 
ATOM     18  C   UNL     1      -1.531   4.776   2.628  0.00  0.00    +0.006 A 
ATOM     19  C   UNL     1      -1.425   3.409   2.465  0.00  0.00    +0.046 A 
ATOM     20  C   UNL     1      -0.787   2.892   1.346  0.00  0.00    +0.127 A 
ATOM     21  C   UNL     1      -0.253   3.751   0.396  0.00  0.00    +0.046 A 
ATOM     22  C   UNL     1      -0.368   5.117   0.561  0.00  0.00    +0.006 A 
BRANCH  20  23
ATOM     23  O   UNL     1      -0.682   1.547   1.184  0.00  0.00    -0.434 OA
BRANCH  23  24
ATOM     24  C   UNL     1      -0.013   1.086   0.008  0.00  0.00    +0.541 C 
ATOM     25  F   UNL     1       1.300   1.570  -0.002  0.00  0.00    -0.166 F 
ATOM     26  F   UNL     1      -0.689   1.549  -1.125  0.00  0.00    -0.166 F 
ENDBRANCH  23  24
ENDBRANCH  20  23
ENDBRANCH   8  17
TORSDOF 3
