REMARK  Name = ZINC50092867
REMARK  7 active torsions:
REMARK  status: ('A' for Active; 'I' for Inactive)
REMARK    1  A    between atoms: C_1  and  C_2
REMARK    2  A    between atoms: C_7  and  C_9
REMARK    3  A    between atoms: C_7  and  N_11
REMARK    4  A    between atoms: C_9  and  N_10
REMARK    5  A    between atoms: N_11  and  C_12
REMARK    6  A    between atoms: N_11  and  S_13
REMARK    7  A    between atoms: S_13  and  C_16
REMARK                            x       y       z     vdW  Elec       q    Type
REMARK                         _______ _______ _______ _____ _____    ______ ____
ROOT
ATOM      1  C   UNL     1       0.814   1.298  -1.010  0.00  0.00    +0.007 C 
ATOM      2  C   UNL     1       0.766  -0.229  -0.941  0.00  0.00    -0.012 C 
ATOM      3  C   UNL     1      -0.587  -0.722  -1.456  0.00  0.00    +0.003 C 
ATOM      4  C   UNL     1      -0.634  -2.249  -1.386  0.00  0.00    +0.002 C 
ATOM      5  C   UNL     1      -0.446  -2.700   0.064  0.00  0.00    +0.022 C 
ATOM      6  C   UNL     1       0.908  -2.207   0.579  0.00  0.00    +0.028 C 
ATOM      7  C   UNL     1       0.955  -0.679   0.509  0.00  0.00    +0.025 C 
ENDROOT
BRANCH   6   8
ATOM      8  N   UNL     1       1.979  -2.767  -0.249  0.00  0.00    -0.175 NA
ATOM      9  C   UNL     1       1.674  -3.807  -1.235  0.00  0.00    +0.132 C 
BRANCH   8  10
ATOM     10  S   UNL     1       3.533  -2.224  -0.071  0.00  0.00    +0.064 S 
ATOM     11  O   UNL     1       4.020  -1.951  -1.378  0.00  0.00    -0.153 OA
ATOM     12  O   UNL     1       3.505  -1.240   0.953  0.00  0.00    -0.153 OA
BRANCH  10  13
ATOM     13  C   UNL     1       4.487  -3.570   0.550  0.00  0.00    +0.140 A 
ATOM     14  C   UNL     1       5.377  -4.226  -0.279  0.00  0.00    +0.031 A 
ATOM     15  C   UNL     1       6.126  -5.281   0.208  0.00  0.00    +0.002 A 
ATOM     16  C   UNL     1       5.984  -5.681   1.524  0.00  0.00    +0.003 A 
ATOM     17  C   UNL     1       5.095  -5.026   2.354  0.00  0.00    +0.040 A 
ATOM     18  C   UNL     1       4.349  -3.965   1.869  0.00  0.00    +0.150 A 
ATOM     19  F   UNL     1       3.482  -3.321   2.681  0.00  0.00    -0.203 F 
ENDBRANCH  10  13
ENDBRANCH   8  10
ENDBRANCH   6   8
BRANCH   6  20
ATOM     20  C   UNL     1       1.097  -2.658   2.029  0.00  0.00    -0.062 C 
BRANCH  20  21
ATOM     21  N   UNL     1       1.117  -4.125   2.087  0.00  0.00    +0.379 N 
ATOM     22  H   UNL     1       0.221  -4.486   1.794  0.00  0.00    -0.090 HD
ATOM     23  H   UNL     1       1.837  -4.476   1.475  0.00  0.00    -0.090 HD
ATOM     24  H   UNL     1       1.305  -4.422   3.033  0.00  0.00    -0.090 HD
ENDBRANCH  20  21
ENDBRANCH   6  20
TORSDOF 5
