REMARK  Name = ZINC37638140
REMARK  5 active torsions:
REMARK  status: ('A' for Active; 'I' for Inactive)
REMARK    1  A    between atoms: C_1  and  C_2
REMARK    2  A    between atoms: N_4  and  C_21
REMARK    3  A    between atoms: C_5  and  C_8
REMARK    4  A    between atoms: C_11  and  C_20
REMARK    5  A    between atoms: N_13  and  C_14
REMARK                            x       y       z     vdW  Elec       q    Type
REMARK                         _______ _______ _______ _____ _____    ______ ____
ROOT
ATOM      1  C   UNL     1       1.414  -3.195  -3.292  0.00  0.00    +0.062 C 
ATOM      2  C   UNL     1       1.094  -2.945  -1.841  0.00  0.00    +0.036 C 
ATOM      3  N   UNL     1       1.861  -3.218  -0.866  0.00  0.00    -0.189 NA
ATOM      4  N   UNL     1       1.343  -2.893   0.386  0.00  0.00    -0.219 N 
ATOM      5  C   UNL     1       0.005  -2.305   0.204  0.00  0.00    +0.126 C 
ATOM      6  C   UNL     1      -0.185  -2.325  -1.326  0.00  0.00    +0.078 C 
ENDROOT
BRANCH   5   7
ATOM      7  C   UNL     1      -1.058  -3.157   0.900  0.00  0.00    +0.126 C 
ATOM      8  C   UNL     1      -1.099  -4.576   0.297  0.00  0.00    +0.078 C 
ATOM      9  C   UNL     1      -2.499  -4.690  -0.263  0.00  0.00    +0.036 C 
ATOM     10  N   UNL     1      -3.136  -3.612  -0.049  0.00  0.00    -0.189 NA
ATOM     11  N   UNL     1      -2.406  -2.631   0.627  0.00  0.00    -0.219 N 
ATOM     12  C   UNL     1      -3.055  -5.900  -0.968  0.00  0.00    +0.062 C 
BRANCH  11  13
ATOM     13  C   UNL     1      -2.873  -1.365   0.984  0.00  0.00    +0.052 A 
ATOM     14  C   UNL     1      -2.096  -0.536   1.785  0.00  0.00    +0.025 A 
ATOM     15  C   UNL     1      -2.561   0.716   2.136  0.00  0.00    +0.002 A 
ATOM     16  C   UNL     1      -3.799   1.145   1.692  0.00  0.00    +0.000 A 
ATOM     17  C   UNL     1      -4.575   0.323   0.895  0.00  0.00    +0.002 A 
ATOM     18  C   UNL     1      -4.113  -0.928   0.535  0.00  0.00    +0.025 A 
ENDBRANCH  11  13
ENDBRANCH   5   7
BRANCH   4  19
ATOM     19  C   UNL     1       1.985  -3.092   1.609  0.00  0.00    +0.052 A 
ATOM     20  C   UNL     1       1.425  -2.592   2.779  0.00  0.00    +0.025 A 
ATOM     21  C   UNL     1       2.063  -2.791   3.987  0.00  0.00    +0.002 A 
ATOM     22  C   UNL     1       3.258  -3.486   4.034  0.00  0.00    +0.000 A 
ATOM     23  C   UNL     1       3.817  -3.986   2.872  0.00  0.00    +0.002 A 
ATOM     24  C   UNL     1       3.182  -3.796   1.661  0.00  0.00    +0.025 A 
ENDBRANCH   4  19
TORSDOF 3
