REMARK  Name = ZINC65743180
REMARK  8 active torsions:
REMARK  status: ('A' for Active; 'I' for Inactive)
REMARK    1  A    between atoms: C_1  and  C_2
REMARK    2  A    between atoms: C_6  and  C_29
REMARK    3  A    between atoms: C_8  and  O_11
REMARK    4  A    between atoms: O_11  and  C_12
REMARK    5  A    between atoms: C_12  and  C_14
REMARK    6  A    between atoms: C_17  and  N_21
REMARK    7  A    between atoms: C_29  and  C_30
REMARK    8  A    between atoms: C_29  and  C_31
REMARK                            x       y       z     vdW  Elec       q    Type
REMARK                         _______ _______ _______ _____ _____    ______ ____
ROOT
ATOM      1  C   UNL     1       3.560  -3.206   3.487  0.00  0.00    +0.286 C 
ATOM      2  O   UNL     1       4.896  -2.632   3.513  0.00  0.00    -0.331 OA
ATOM      3  C   UNL     1       5.482  -2.726   4.818  0.00  0.00    +0.235 C 
ATOM      4  C   UNL     1       4.500  -2.193   5.896  0.00  0.00    +0.126 C 
ATOM      5  S   UNL     1       2.886  -2.541   5.071  0.00  0.00    -0.114 S 
ENDROOT
BRANCH   3   6
ATOM      6  N   UNL     1       6.714  -1.933   4.853  0.00  0.00    -0.272 N 
ATOM      7  C   UNL     1       7.880  -2.510   5.257  0.00  0.00    +0.096 A 
ATOM      8  C   UNL     1       9.012  -1.766   5.284  0.00  0.00    +0.061 A 
ATOM      9  C   UNL     1       8.949  -0.413   4.893  0.00  0.00    +0.123 A 
ATOM     10  N   UNL     1       7.791   0.106   4.507  0.00  0.00    -0.178 NA
ATOM     11  C   UNL     1       6.688  -0.640   4.481  0.00  0.00    +0.352 A 
ATOM     12  O   UNL     1       5.635  -0.141   4.117  0.00  0.00    -0.244 OA
ATOM     13  N   UNL     1      10.084   0.366   4.912  0.00  0.00    -0.343 N 
ATOM     14  H   UNL     1      10.929  -0.016   5.195  0.00  0.00    +0.144 HD
ATOM     15  H   UNL     1      10.037   1.296   4.643  0.00  0.00    +0.144 HD
ENDBRANCH   3   6
BRANCH   1  16
ATOM     16  C   UNL     1       2.772  -2.704   2.305  0.00  0.00    +0.347 C 
ATOM     17  O   UNL     1       3.333  -2.468   1.261  0.00  0.00    -0.247 OA
BRANCH  16  18
ATOM     18  O   UNL     1       1.447  -2.519   2.411  0.00  0.00    -0.459 OA
BRANCH  18  24
ATOM     19  C   UNL     1      -0.008   1.530   0.035  0.00  0.00    +0.007 C 
ATOM     20  C   UNL     1       0.012   0.000   0.022  0.00  0.00    -0.011 C 
ATOM     21  C   UNL     1      -1.424  -0.529   0.021  0.00  0.00    +0.004 C 
ATOM     22  C   UNL     1      -1.403  -2.059   0.007  0.00  0.00    +0.007 C 
ATOM     23  C   UNL     1      -0.672  -2.570   1.250  0.00  0.00    +0.032 C 
ATOM     24  C   UNL     1       0.764  -2.041   1.250  0.00  0.00    +0.180 C 
ATOM     25  C   UNL     1       0.743  -0.511   1.264  0.00  0.00    +0.048 C 
BRANCH  23  26
ATOM     26  C   UNL     1      -0.652  -4.100   1.236  0.00  0.00    -0.011 C 
ATOM     27  C   UNL     1      -2.080  -4.630   1.372  0.00  0.00    +0.007 C 
ATOM     28  C   UNL     1      -0.050  -4.590  -0.083  0.00  0.00    +0.007 C 
ENDBRANCH  23  26
ENDBRANCH  18  24
ENDBRANCH  16  18
ENDBRANCH   1  16
TORSDOF 5
