REMARK  Name = ZINC53341045
REMARK  8 active torsions:
REMARK  status: ('A' for Active; 'I' for Inactive)
REMARK    1  A    between atoms: C_1  and  C_2
REMARK    2  A    between atoms: C_2  and  C_3
REMARK    3  A    between atoms: C_2  and  C_4
REMARK    4  A    between atoms: C_2  and  C_5
REMARK    5  A    between atoms: C_8  and  C_11
REMARK    6  A    between atoms: C_17  and  C_19
REMARK    7  A    between atoms: C_19  and  S_20
REMARK    8  A    between atoms: S_20  and  C_21
REMARK                            x       y       z     vdW  Elec       q    Type
REMARK                         _______ _______ _______ _____ _____    ______ ____
ROOT
ATOM      1  C   UNL     1       2.707  -1.868  -4.752  0.00  0.00    +0.106 C 
ATOM      2  C   UNL     1       2.739  -0.747  -5.812  0.00  0.00    +0.029 C 
ATOM      3  C   UNL     1       4.146  -0.909  -6.447  0.00  0.00    +0.021 C 
ATOM      4  C   UNL     1       4.992  -1.337  -5.222  0.00  0.00    +0.108 C 
ATOM      5  N   UNL     1       4.101  -2.211  -4.432  0.00  0.00    -0.294 N 
ATOM      6  C   UNL     1       4.496  -3.162  -3.563  0.00  0.00    +0.226 C 
ATOM      7  O   UNL     1       3.670  -3.820  -2.967  0.00  0.00    -0.275 OA
ENDROOT
BRANCH   1  11
ATOM      8  C   UNL     1       0.707  -0.490  -1.238  0.00  0.00    -0.042 A 
ATOM      9  C   UNL     1       0.036  -1.284  -2.148  0.00  0.00    +0.004 A 
ATOM     10  C   UNL     1       0.683  -1.730  -3.286  0.00  0.00    +0.006 A 
ATOM     11  C   UNL     1       2.001  -1.381  -3.513  0.00  0.00    -0.027 A 
ATOM     12  C   UNL     1       2.672  -0.586  -2.603  0.00  0.00    +0.006 A 
ATOM     13  C   UNL     1       2.024  -0.137  -1.467  0.00  0.00    +0.004 A 
BRANCH   8  15
ATOM     14  C   UNL     1      -0.019   1.526   0.010  0.00  0.00    +0.015 C 
ATOM     15  C   UNL     1       0.002  -0.004   0.002  0.00  0.00    -0.013 C 
ATOM     16  C   UNL     1       0.742  -0.511   1.242  0.00  0.00    +0.015 C 
ATOM     17  C   UNL     1      -1.433  -0.534   0.013  0.00  0.00    +0.015 C 
ENDBRANCH   8  15
ENDBRANCH   1  11
BRANCH   6  18
ATOM     18  C   UNL     1       5.965  -3.407  -3.331  0.00  0.00    +0.172 C 
BRANCH  18  19
ATOM     19  S   UNL     1       6.171  -4.739  -2.116  0.00  0.00    -0.088 S 
BRANCH  19  20
ATOM     20  C   UNL     1       7.918  -4.903  -1.956  0.00  0.00    +0.160 A 
ATOM     21  N   UNL     1       8.879  -4.229  -2.558  0.00  0.00    -0.133 NA
ATOM     22  N   UNL     1      10.195  -4.523  -2.284  0.00  0.00    -0.125 NA
ATOM     23  C   UNL     1      10.489  -5.476  -1.422  0.00  0.00    +0.180 A 
ATOM     24  S   UNL     1       8.860  -6.022  -0.931  0.00  0.00    -0.025 S 
ATOM     25  N   UNL     1      11.734  -5.932  -1.003  0.00  0.00    -0.336 N 
ATOM     26  H   UNL     1      12.542  -5.530  -1.359  0.00  0.00    +0.144 HD
ATOM     27  H   UNL     1      11.794  -6.651  -0.354  0.00  0.00    +0.144 HD
ENDBRANCH  19  20
ENDBRANCH  18  19
ENDBRANCH   6  18
TORSDOF 5
