REMARK  Name = ZINC37067731
REMARK  8 active torsions:
REMARK  status: ('A' for Active; 'I' for Inactive)
REMARK    1  A    between atoms: C_1  and  C_2
REMARK    2  A    between atoms: C_2  and  C_3
REMARK    3  A    between atoms: C_2  and  C_4
REMARK    4  A    between atoms: C_4  and  O_5
REMARK    5  A    between atoms: O_5  and  C_6
REMARK    6  A    between atoms: C_7  and  N_21
REMARK    7  A    between atoms: C_10  and  N_12
REMARK    8  A    between atoms: N_12  and  C_13
REMARK                            x       y       z     vdW  Elec       q    Type
REMARK                         _______ _______ _______ _____ _____    ______ ____
ROOT
ATOM      1  C   UNL     1      -2.637  -2.655   0.302  0.00  0.00    +0.238 A 
ATOM      2  C   UNL     1      -2.676  -4.009  -0.028  0.00  0.00    +0.087 A 
ATOM      3  C   UNL     1      -3.898  -4.598  -0.330  0.00  0.00    +0.031 A 
ATOM      4  C   UNL     1      -5.039  -3.811  -0.291  0.00  0.00    +0.046 A 
ATOM      5  C   UNL     1      -4.927  -2.469   0.046  0.00  0.00    +0.127 A 
ATOM      6  N   UNL     1      -3.747  -1.938   0.334  0.00  0.00    -0.196 NA
ENDROOT
BRANCH   2   7
ATOM      7  N   UNL     1      -1.496  -4.767  -0.055  0.00  0.00    -0.354 N 
ATOM      8  H   UNL     1      -0.646  -4.350   0.157  0.00  0.00    +0.142 HD
ATOM      9  H   UNL     1      -1.530  -5.709  -0.285  0.00  0.00    +0.142 HD
ENDBRANCH   2   7
BRANCH   5  10
ATOM     10  N   UNL     1      -6.069  -1.672   0.086  0.00  0.00    -0.299 N 
ATOM     11  H   UNL     1      -6.945  -2.072  -0.035  0.00  0.00    +0.154 HD
BRANCH  10  12
ATOM     12  C   UNL     1      -5.954  -0.296   0.303  0.00  0.00    +0.038 A 
ATOM     13  C   UNL     1      -4.910   0.414  -0.276  0.00  0.00    +0.061 A 
ATOM     14  C   UNL     1      -4.798   1.776  -0.061  0.00  0.00    +0.128 A 
ATOM     15  C   UNL     1      -5.726   2.431   0.731  0.00  0.00    +0.076 A 
ATOM     16  C   UNL     1      -6.767   1.725   1.310  0.00  0.00    +0.128 A 
ATOM     17  C   UNL     1      -6.887   0.364   1.092  0.00  0.00    +0.061 A 
ATOM     18  F   UNL     1      -7.671   2.367   2.082  0.00  0.00    -0.205 F 
ATOM     19  F   UNL     1      -3.783   2.467  -0.624  0.00  0.00    -0.205 F 
ENDBRANCH  10  12
ENDBRANCH   5  10
BRANCH   1  20
ATOM     20  O   UNL     1      -1.449  -2.069   0.599  0.00  0.00    -0.475 OA
BRANCH  20  21
ATOM     21  C   UNL     1      -1.477  -0.681   0.935  0.00  0.00    +0.233 C 
BRANCH  21  23
ATOM     22  C   UNL     1      -0.068   1.311   1.473  0.00  0.00    +0.010 C 
ATOM     23  C   UNL     1      -0.056  -0.200   1.236  0.00  0.00    +0.020 C 
ATOM     24  C   UNL     1       0.468  -0.909   2.487  0.00  0.00    +0.010 C 
ENDBRANCH  21  23
ENDBRANCH  20  21
ENDBRANCH   1  20
TORSDOF 6
