REMARK  Name = ZINC63426634
REMARK  10 active torsions:
REMARK  status: ('A' for Active; 'I' for Inactive)
REMARK    1  A    between atoms: C_1  and  C_2
REMARK    2  A    between atoms: C_2  and  C_3
REMARK    3  A    between atoms: C_3  and  C_4
REMARK    4  A    between atoms: C_6  and  C_22
REMARK    5  A    between atoms: C_8  and  O_21
REMARK    6  A    between atoms: N_10  and  C_12
REMARK    7  A    between atoms: C_15  and  N_18
REMARK    8  A    between atoms: N_23  and  C_24
REMARK    9  A    between atoms: C_24  and  C_25
REMARK   10  A    between atoms: C_25  and  C_26
REMARK                            x       y       z     vdW  Elec       q    Type
REMARK                         _______ _______ _______ _____ _____    ______ ____
ROOT
ATOM      1  C   UNL     1       0.739  -2.027  -1.265  0.00  0.00    +0.085 C 
ATOM      2  C   UNL     1       1.400  -2.559  -2.566  0.00  0.00    +0.096 C 
ATOM      3  C   UNL     1       1.954  -3.916  -2.052  0.00  0.00    +0.227 C 
ATOM      4  N   UNL     1       2.321  -3.626  -0.653  0.00  0.00    -0.238 N 
ATOM      5  N   UNL     1       1.621  -2.543  -0.196  0.00  0.00    -0.234 NA
ATOM      6  H   UNL     1       1.091  -2.774   0.630  0.00  0.00    +0.145 HD
ENDROOT
BRANCH   4   7
ATOM      7  C   UNL     1       3.247  -4.355   0.097  0.00  0.00    +0.047 A 
ATOM      8  C   UNL     1       3.904  -5.440  -0.470  0.00  0.00    +0.027 A 
ATOM      9  C   UNL     1       4.819  -6.157   0.275  0.00  0.00    +0.034 A 
ATOM     10  C   UNL     1       5.082  -5.797   1.584  0.00  0.00    +0.126 A 
ATOM     11  C   UNL     1       4.430  -4.717   2.151  0.00  0.00    +0.034 A 
ATOM     12  C   UNL     1       3.518  -3.992   1.411  0.00  0.00    +0.027 A 
BRANCH  10  13
ATOM     13  N   UNL     1       6.063  -6.569   2.380  0.00  0.00    +0.056 N 
ATOM     14  O   UNL     1       6.633  -7.513   1.885  0.00  0.00    -0.126 OA
ATOM     15  O   UNL     1       6.294  -6.255   3.524  0.00  0.00    -0.126 OA
ENDBRANCH  10  13
ENDBRANCH   4   7
BRANCH   3  16
ATOM     16  O   UNL     1       0.945  -4.926  -2.112  0.00  0.00    -0.372 OA
ATOM     17  H   UNL     1       1.239  -5.794  -1.803  0.00  0.00    +0.212 HD
ENDBRANCH   3  16
BRANCH   2  18
ATOM     18  C   UNL     1       0.379  -2.761  -3.656  0.00  0.00    +0.087 C 
ATOM     19  N   UNL     1       0.485  -2.120  -4.758  0.00  0.00    -0.295 NA
BRANCH  19  20
ATOM     20  C   UNL     1      -0.507  -2.316  -5.817  0.00  0.00    +0.145 C 
BRANCH  20  21
ATOM     21  C   UNL     1      -1.278  -1.013  -6.042  0.00  0.00    +0.056 C 
BRANCH  21  22
ATOM     22  C   UNL     1      -2.298  -1.214  -7.132  0.00  0.00    -0.040 C 
ATOM     23  C   UNL     1      -3.604  -1.530  -6.975  0.00  0.00    -0.001 A 
ATOM     24  C   UNL     1      -4.433  -1.773  -5.788  0.00  0.00    +0.010 A 
ATOM     25  C   UNL     1      -5.740  -2.078  -5.952  0.00  0.00    +0.001 A 
ATOM     26  C   UNL     1      -6.322  -2.168  -7.224  0.00  0.00    +0.002 A 
ATOM     27  C   UNL     1      -5.626  -1.959  -8.361  0.00  0.00    +0.026 A 
ATOM     28  C   UNL     1      -4.243  -1.632  -8.307  0.00  0.00    +0.043 A 
ATOM     29  N   UNL     1      -3.366  -1.388  -9.251  0.00  0.00    -0.380 N 
ATOM     30  C   UNL     1      -2.072  -1.098  -8.623  0.00  0.00    +0.144 C 
ATOM     31  H   UNL     1      -3.544  -1.394 -10.204  0.00  0.00    +0.160 HD
ENDBRANCH  21  22
ENDBRANCH  20  21
ENDBRANCH  19  20
ENDBRANCH   2  18
BRANCH   1  32
ATOM     32  C   UNL     1       0.718  -0.497  -1.257  0.00  0.00    +0.021 C 
BRANCH  32  34
ATOM     33  C   UNL     1      -0.019   1.526   0.010  0.00  0.00    +0.004 C 
ATOM     34  C   UNL     1       0.002  -0.004   0.002  0.00  0.00    -0.002 C 
ENDBRANCH  32  34
ENDBRANCH   1  32
TORSDOF 9
