REMARK  Name = ZINC67340138
REMARK  3 active torsions:
REMARK  status: ('A' for Active; 'I' for Inactive)
REMARK    1  A    between atoms: C_1  and  C_2
REMARK    2  A    between atoms: C_6  and  C_10
REMARK    3  A    between atoms: C_16  and  C_18
REMARK                            x       y       z     vdW  Elec       q    Type
REMARK                         _______ _______ _______ _____ _____    ______ ____
ROOT
ATOM      1  C   UNL     1      -0.028   1.496  -0.184  0.00  0.00    +0.087 C 
ATOM      2  C   UNL     1      -0.002  -0.007  -0.083  0.00  0.00    +0.117 A 
ATOM      3  C   UNL     1      -1.073  -0.793   0.068  0.00  0.00    +0.108 A 
ATOM      4  C   UNL     1      -0.554  -2.194   0.122  0.00  0.00    +0.039 A 
ATOM      5  C   UNL     1      -1.515  -3.285   0.294  0.00  0.00    +0.059 A 
ATOM      6  C   UNL     1      -2.830  -2.941   0.192  0.00  0.00    +0.140 A 
ATOM      7  O   UNL     1      -3.268  -1.702  -0.108  0.00  0.00    -0.422 OA
ATOM      8  C   UNL     1      -2.527  -0.597   0.180  0.00  0.00    +0.348 A 
ATOM      9  O   UNL     1      -3.025   0.464   0.505  0.00  0.00    -0.244 OA
ATOM     10  C   UNL     1       0.795  -2.087  -0.011  0.00  0.00    +0.143 A 
ATOM     11  O   UNL     1       1.101  -0.773  -0.137  0.00  0.00    -0.459 OA
ENDROOT
BRANCH   6  12
ATOM     12  C   UNL     1      -3.840  -3.993   0.426  0.00  0.00    +0.017 A 
ATOM     13  C   UNL     1      -3.438  -5.292   0.746  0.00  0.00    +0.011 A 
ATOM     14  C   UNL     1      -4.387  -6.270   0.963  0.00  0.00    +0.001 A 
ATOM     15  C   UNL     1      -5.733  -5.966   0.864  0.00  0.00    +0.000 A 
ATOM     16  C   UNL     1      -6.138  -4.681   0.547  0.00  0.00    +0.001 A 
ATOM     17  C   UNL     1      -5.200  -3.692   0.333  0.00  0.00    +0.011 A 
ENDBRANCH   6  12
BRANCH  10  18
ATOM     18  C   UNL     1       1.755  -3.205  -0.023  0.00  0.00    +0.018 A 
ATOM     19  C   UNL     1       1.508  -4.335  -0.808  0.00  0.00    +0.011 A 
ATOM     20  C   UNL     1       2.412  -5.377  -0.813  0.00  0.00    +0.001 A 
ATOM     21  C   UNL     1       3.561  -5.306  -0.044  0.00  0.00    +0.000 A 
ATOM     22  C   UNL     1       3.812  -4.190   0.735  0.00  0.00    +0.001 A 
ATOM     23  C   UNL     1       2.921  -3.138   0.746  0.00  0.00    +0.011 A 
ENDBRANCH  10  18
TORSDOF 2
