REMARK  Name = ZINC02834583
REMARK  2 active torsions:
REMARK  status: ('A' for Active; 'I' for Inactive)
REMARK    1  A    between atoms: C_2  and  C_3
REMARK    2  A    between atoms: C_3  and  N_4
REMARK                            x       y       z     vdW  Elec       q    Type
REMARK                         _______ _______ _______ _____ _____    ______ ____
ROOT
ATOM      1  N   UNL     1      -1.807   7.145   0.123  0.00  0.00    -0.263 N 
ATOM      2  C   UNL     1      -2.998   6.437   0.009  0.00  0.00    +0.045 A 
ATOM      3  C   UNL     1      -4.321   6.857  -0.053  0.00  0.00    +0.024 A 
ATOM      4  C   UNL     1      -5.338   5.931  -0.168  0.00  0.00    +0.002 A 
ATOM      5  C   UNL     1      -5.056   4.576  -0.222  0.00  0.00    +0.001 A 
ATOM      6  C   UNL     1      -3.749   4.138  -0.162  0.00  0.00    +0.010 A 
ATOM      7  C   UNL     1      -2.716   5.064  -0.046  0.00  0.00    +0.010 A 
ATOM      8  C   UNL     1      -1.246   4.935   0.041  0.00  0.00    +0.065 C 
ATOM      9  C   UNL     1      -0.502   3.771   0.027  0.00  0.00    +0.093 A 
ATOM     10  C   UNL     1      -0.934   2.379  -0.243  0.00  0.00    +0.272 A 
ATOM     11  O   UNL     1      -2.092   2.119  -0.502  0.00  0.00    -0.266 OA
ATOM     12  N   UNL     1       0.000   1.418  -0.189  0.00  0.00    -0.253 N 
ATOM     13  C   UNL     1       0.034   0.021  -0.367  0.00  0.00    +0.077 A 
ATOM     14  C   UNL     1      -0.941  -0.911  -0.675  0.00  0.00    +0.028 A 
ATOM     15  C   UNL     1      -0.601  -2.246  -0.786  0.00  0.00    +0.002 A 
ATOM     16  C   UNL     1       0.710  -2.653  -0.593  0.00  0.00    +0.002 A 
ATOM     17  C   UNL     1       1.692  -1.736  -0.287  0.00  0.00    +0.030 A 
ATOM     18  C   UNL     1       1.361  -0.383  -0.170  0.00  0.00    +0.091 A 
ATOM     19  N   UNL     1       2.081   0.733   0.113  0.00  0.00    -0.221 NA
ATOM     20  C   UNL     1       1.296   1.771   0.102  0.00  0.00    +0.182 A 
ATOM     21  S   UNL     1       1.244   3.536   0.325  0.00  0.00    -0.045 S 
ATOM     22  C   UNL     1      -0.747   6.320   0.153  0.00  0.00    +0.253 C 
ATOM     23  O   UNL     1       0.419   6.655   0.251  0.00  0.00    -0.270 OA
ENDROOT
BRANCH   1  24
ATOM     24  C   UNL     1      -1.720   8.605   0.208  0.00  0.00    +0.140 C 
BRANCH  24  26
ATOM     25  C   UNL     1      -0.830   9.778   2.155  0.00  0.00    +0.005 C 
ATOM     26  C   UNL     1      -1.780   9.030   1.653  0.00  0.00    -0.015 C 
ENDBRANCH  24  26
ENDBRANCH   1  24
TORSDOF 2
