REMARK  Name = ZINC13065000
REMARK  13 active torsions:
REMARK  status: ('A' for Active; 'I' for Inactive)
REMARK    1  A    between atoms: C_1  and  C_2
REMARK    2  A    between atoms: C_2  and  C_3
REMARK    3  A    between atoms: C_3  and  C_5
REMARK    4  A    between atoms: C_3  and  N_69
REMARK    5  A    between atoms: N_9  and  C_10
REMARK    6  A    between atoms: C_10  and  C_11
REMARK    7  A    between atoms: C_11  and  O_12
REMARK    8  A    between atoms: O_12  and  C_13
REMARK    9  A    between atoms: C_14  and  C_15
REMARK   10  A    between atoms: C_14  and  N_69
REMARK   11  A    between atoms: C_18  and  C_28
REMARK   12  A    between atoms: C_20  and  C_27
REMARK   13  A    between atoms: C_29  and  N_69
REMARK                            x       y       z     vdW  Elec       q    Type
REMARK                         _______ _______ _______ _____ _____    ______ ____
ROOT
ATOM      1  N   UNL     1      -1.797  -0.082   1.603  0.00  0.00    +0.391 N 
ATOM      2  H   UNL     1      -1.310  -0.281   2.485  0.00  0.00    -0.080 HD
ENDROOT
BRANCH   1   3
ATOM      3  C   UNL     1      -3.231  -0.399   1.765  0.00  0.00    -0.067 C 
ATOM      4  C   UNL     1      -3.930   0.765   2.471  0.00  0.00    -0.015 C 
ATOM      5  C   UNL     1      -5.410   0.428   2.665  0.00  0.00    -0.002 C 
ATOM      6  C   UNL     1      -5.538  -0.836   3.517  0.00  0.00    -0.000 C 
ATOM      7  C   UNL     1      -4.840  -2.000   2.811  0.00  0.00    -0.002 C 
ATOM      8  C   UNL     1      -3.360  -1.663   2.616  0.00  0.00    -0.015 C 
ENDBRANCH   1   3
BRANCH   1   9
ATOM      9  C   UNL     1      -1.629   1.350   1.275  0.00  0.00    +0.003 C 
BRANCH   9  10
ATOM     10  C   UNL     1      -0.215   1.756   1.597  0.00  0.00    +0.138 A 
ATOM     11  N   UNL     1       0.879   1.111   1.272  0.00  0.00    -0.115 NA
ATOM     12  N   UNL     1       1.884   1.776   1.726  0.00  0.00    -0.023 NA
ATOM     13  N   UNL     1       1.460   2.830   2.332  0.00  0.00    -0.044 NA
ATOM     14  N   UNL     1       0.172   2.856   2.270  0.00  0.00    -0.229 N 
BRANCH  14  15
ATOM     15  C   UNL     1      -0.706   3.887   2.829  0.00  0.00    +0.175 C 
BRANCH  15  16
ATOM     16  C   UNL     1      -1.082   3.513   4.264  0.00  0.00    +0.183 C 
BRANCH  16  17
ATOM     17  O   UNL     1      -1.938   4.518   4.810  0.00  0.00    -0.381 OA
ATOM     18  C   UNL     1      -2.350   4.264   6.154  0.00  0.00    +0.194 C 
ENDBRANCH  16  17
ENDBRANCH  15  16
ENDBRANCH  14  15
ENDBRANCH   9  10
BRANCH   9  20
ATOM     19  C   UNL     1      -3.373   1.289  -0.513  0.00  0.00    +0.002 C 
ATOM     20  C   UNL     1      -1.905   1.594  -0.210  0.00  0.00    -0.011 C 
ENDBRANCH   9  20
ENDBRANCH   1   9
BRANCH   1  21
ATOM     21  C   UNL     1      -1.212  -0.917   0.532  0.00  0.00    -0.036 C 
BRANCH  21  22
ATOM     22  C   UNL     1      -1.038  -2.320   1.054  0.00  0.00    +0.001 A 
ATOM     23  C   UNL     1      -1.795  -3.326   0.551  0.00  0.00    +0.017 A 
ATOM     24  C   UNL     1      -1.598  -4.679   1.076  0.00  0.00    +0.002 A 
ATOM     25  C   UNL     1      -2.345  -5.758   0.592  0.00  0.00    -0.041 A 
ATOM     26  C   UNL     1      -2.140  -7.008   1.106  0.00  0.00    +0.007 A 
ATOM     27  C   UNL     1      -1.198  -7.215   2.105  0.00  0.00    -0.048 A 
ATOM     28  C   UNL     1      -0.452  -6.166   2.596  0.00  0.00    +0.029 A 
ATOM     29  C   UNL     1      -0.642  -4.886   2.088  0.00  0.00    +0.050 A 
ATOM     30  N   UNL     1       0.092  -3.818   2.561  0.00  0.00    -0.322 N 
ATOM     31  H   UNL     1       0.750  -3.962   3.258  0.00  0.00    +0.169 HD
ATOM     32  C   UNL     1      -0.092  -2.581   2.069  0.00  0.00    +0.251 A 
ATOM     33  O   UNL     1       0.574  -1.661   2.510  0.00  0.00    -0.268 OA
ATOM     34  C   UNL     1      -0.990  -8.602   2.657  0.00  0.00    +0.044 C 
ATOM     35  C   UNL     1      -3.371  -5.545  -0.491  0.00  0.00    +0.044 C 
ENDBRANCH  21  22
ENDBRANCH   1  21
TORSDOF 9
