REMARK  Name = ZINC64697343
REMARK  12 active torsions:
REMARK  status: ('A' for Active; 'I' for Inactive)
REMARK    1  A    between atoms: C_1  and  C_2
REMARK    2  A    between atoms: C_2  and  N_3
REMARK    3  A    between atoms: C_9  and  C_11
REMARK    4  A    between atoms: C_11  and  C_13
REMARK    5  A    between atoms: C_11  and  N_14
REMARK    6  A    between atoms: N_14  and  C_15
REMARK    7  A    between atoms: C_15  and  C_16
REMARK    8  A    between atoms: C_16  and  C_18
REMARK    9  A    between atoms: C_16  and  C_27
REMARK   10  A    between atoms: C_21  and  N_24
REMARK   11  A    between atoms: N_24  and  C_25
REMARK   12  A    between atoms: N_24  and  C_26
REMARK                            x       y       z     vdW  Elec       q    Type
REMARK                         _______ _______ _______ _____ _____    ______ ____
ROOT
ATOM      1  C   UNL     1       5.464  -7.020  -4.067  0.00  0.00    +0.030 C 
ENDROOT
BRANCH   1   2
ATOM      2  C   UNL     1       6.289  -6.997  -2.806  0.00  0.00    -0.036 C 
ATOM      3  C   UNL     1       7.527  -6.473  -2.654  0.00  0.00    -0.001 A 
ATOM      4  C   UNL     1       8.441  -5.796  -3.582  0.00  0.00    +0.010 A 
ATOM      5  C   UNL     1       9.643  -5.375  -3.127  0.00  0.00    +0.001 A 
ATOM      6  C   UNL     1      10.037  -5.568  -1.796  0.00  0.00    +0.002 A 
ATOM      7  C   UNL     1       9.252  -6.182  -0.885  0.00  0.00    +0.026 A 
ATOM      8  C   UNL     1       7.967  -6.665  -1.254  0.00  0.00    +0.043 A 
ATOM      9  N   UNL     1       7.037  -7.283  -0.567  0.00  0.00    -0.380 N 
ATOM     10  C   UNL     1       5.898  -7.548  -1.453  0.00  0.00    +0.145 C 
ATOM     11  H   UNL     1       7.091  -7.521   0.372  0.00  0.00    +0.160 HD
ENDBRANCH   1   2
BRANCH   1  12
ATOM     12  C   UNL     1       5.157  -8.447  -4.441  0.00  0.00    -0.042 A 
ATOM     13  C   UNL     1       4.449  -9.252  -3.567  0.00  0.00    +0.006 A 
ATOM     14  C   UNL     1       4.167 -10.561  -3.906  0.00  0.00    +0.023 A 
ATOM     15  C   UNL     1       4.595 -11.068  -5.127  0.00  0.00    +0.029 A 
ATOM     16  C   UNL     1       5.306 -10.257  -6.002  0.00  0.00    +0.023 A 
ATOM     17  C   UNL     1       5.580  -8.947  -5.659  0.00  0.00    +0.006 A 
BRANCH  15  18
ATOM     18  N   UNL     1       4.311 -12.391  -5.473  0.00  0.00    -0.336 N 
ATOM     19  C   UNL     1       3.671 -13.281  -4.501  0.00  0.00    +0.129 C 
ATOM     20  C   UNL     1       4.654 -12.889  -6.808  0.00  0.00    +0.129 C 
ENDBRANCH  15  18
ENDBRANCH   1  12
BRANCH   1  21
ATOM     21  C   UNL     1       4.155  -6.261  -3.834  0.00  0.00    -0.069 C 
BRANCH  21  22
ATOM     22  N   UNL     1       4.449  -4.843  -3.588  0.00  0.00    +0.387 N 
ATOM     23  H   UNL     1       4.925  -4.454  -4.388  0.00  0.00    -0.085 HD
ATOM     24  H   UNL     1       5.037  -4.758  -2.772  0.00  0.00    -0.085 HD
BRANCH  22  25
ATOM     25  C   UNL     1       3.192  -4.115  -3.364  0.00  0.00    +0.013 C 
ATOM     26  C   UNL     1       2.531  -4.621  -2.080  0.00  0.00    -0.004 C 
BRANCH  25  33
ATOM     27  N   UNL     1       0.586   0.079  -4.132  0.00  0.00    -0.300 NA
ATOM     28  C   UNL     1       0.420  -1.343  -4.463  0.00  0.00    +0.103 C 
ATOM     29  C   UNL     1       1.074  -2.197  -3.372  0.00  0.00    +0.123 C 
ATOM     30  N   UNL     1       2.467  -1.756  -3.205  0.00  0.00    -0.300 N 
ATOM     31  C   UNL     1       2.723  -0.321  -3.007  0.00  0.00    +0.123 C 
ATOM     32  C   UNL     1       2.004   0.459  -4.112  0.00  0.00    +0.103 C 
ATOM     33  C   UNL     1       3.482  -2.642  -3.233  0.00  0.00    +0.201 C 
ATOM     34  O   UNL     1       4.628  -2.254  -3.153  0.00  0.00    -0.277 OA
BRANCH  27  36
ATOM     35  C   UNL     1      -1.671   0.674  -4.873  0.00  0.00    +0.020 C 
ATOM     36  C   UNL     1      -0.174   0.927  -5.060  0.00  0.00    +0.081 C 
ENDBRANCH  27  36
ENDBRANCH  25  33
ENDBRANCH  22  25
ENDBRANCH  21  22
ENDBRANCH   1  21
TORSDOF 8
