REMARK  Name = ZINC65329918
REMARK  7 active torsions:
REMARK  status: ('A' for Active; 'I' for Inactive)
REMARK    1  A    between atoms: C_1  and  C_2
REMARK    2  A    between atoms: C_5  and  N_8
REMARK    3  A    between atoms: N_10  and  C_11
REMARK    4  A    between atoms: C_11  and  C_12
REMARK    5  A    between atoms: C_12  and  C_13
REMARK    6  A    between atoms: N_22  and  C_23
REMARK    7  A    between atoms: C_23  and  C_25
REMARK                            x       y       z     vdW  Elec       q    Type
REMARK                         _______ _______ _______ _____ _____    ______ ____
ROOT
ATOM      1  N   UNL     1       0.032  -4.043   0.481  0.00  0.00    -0.328 N 
ATOM      2  C   UNL     1       0.061  -5.000   1.454  0.00  0.00    +0.194 C 
ATOM      3  N   UNL     1      -0.049  -6.318   1.119  0.00  0.00    -0.357 N 
ATOM      4  N   UNL     1       0.197  -4.649   2.724  0.00  0.00    -0.143 NA
ATOM      5  H   UNL     1      -0.361  -6.961   1.775  0.00  0.00    +0.162 HD
ATOM      6  H   UNL     1       0.675  -3.317   0.495  0.00  0.00    +0.169 HD
ENDROOT
BRANCH   1  11
ATOM      7  C   UNL     1      -3.853  -4.312  -3.644  0.00  0.00    +0.044 C 
ATOM      8  C   UNL     1      -2.821  -4.240  -2.548  0.00  0.00    -0.050 A 
ATOM      9  C   UNL     1      -1.605  -3.625  -2.784  0.00  0.00    +0.005 A 
ATOM     10  C   UNL     1      -0.657  -3.558  -1.782  0.00  0.00    +0.026 A 
ATOM     11  C   UNL     1      -0.926  -4.109  -0.536  0.00  0.00    +0.042 A 
ATOM     12  C   UNL     1      -2.148  -4.726  -0.302  0.00  0.00    +0.026 A 
ATOM     13  C   UNL     1      -3.094  -4.785  -1.307  0.00  0.00    +0.005 A 
ENDBRANCH   1  11
BRANCH   4  14
ATOM     14  C   UNL     1       0.353  -3.358   3.049  0.00  0.00    +0.270 C 
ATOM     15  O   UNL     1       0.279  -2.499   2.188  0.00  0.00    -0.268 OA
BRANCH  14  16
ATOM     16  C   UNL     1       0.616  -2.976   4.454  0.00  0.00    +0.043 A 
ATOM     17  C   UNL     1       0.812  -3.963   5.422  0.00  0.00    +0.017 A 
ATOM     18  C   UNL     1       1.057  -3.605   6.730  0.00  0.00    +0.050 A 
ATOM     19  C   UNL     1       1.110  -2.266   7.090  0.00  0.00    +0.166 A 
ATOM     20  C   UNL     1       0.914  -1.275   6.127  0.00  0.00    +0.167 A 
ATOM     21  C   UNL     1       0.674  -1.629   4.813  0.00  0.00    +0.062 A 
ATOM     22  O   UNL     1       1.014  -0.055   6.731  0.00  0.00    -0.453 OA
ATOM     23  C   UNL     1       0.866  -0.311   8.140  0.00  0.00    +0.466 C 
ATOM     24  O   UNL     1       1.332  -1.664   8.294  0.00  0.00    -0.453 OA
ENDBRANCH  14  16
ENDBRANCH   4  14
BRANCH   3  25
ATOM     25  C   UNL     1       0.303  -6.762  -0.232  0.00  0.00    +0.120 C 
BRANCH  25  26
ATOM     26  C   UNL     1      -0.018  -8.250  -0.379  0.00  0.00    +0.054 C 
BRANCH  26  27
ATOM     27  C   UNL     1       0.456  -8.736  -1.725  0.00  0.00    -0.040 C 
ATOM     28  C   UNL     1       1.659  -9.282  -2.015  0.00  0.00    -0.001 A 
ATOM     29  C   UNL     1       2.841  -9.576  -1.196  0.00  0.00    +0.010 A 
ATOM     30  C   UNL     1       3.922 -10.138  -1.783  0.00  0.00    +0.001 A 
ATOM     31  C   UNL     1       3.942 -10.445  -3.150  0.00  0.00    +0.002 A 
ATOM     32  C   UNL     1       2.894 -10.205  -3.967  0.00  0.00    +0.026 A 
ATOM     33  C   UNL     1       1.705  -9.617  -3.456  0.00  0.00    +0.043 A 
ATOM     34  N   UNL     1       0.575  -9.290  -4.035  0.00  0.00    -0.380 N 
ATOM     35  C   UNL     1      -0.320  -8.716  -3.023  0.00  0.00    +0.144 C 
ATOM     36  H   UNL     1       0.363  -9.412  -4.974  0.00  0.00    +0.160 HD
ENDBRANCH  26  27
ENDBRANCH  25  26
ENDBRANCH   3  25
TORSDOF 6
