REMARK  Name = ZINC21581523
REMARK  8 active torsions:
REMARK  status: ('A' for Active; 'I' for Inactive)
REMARK    1  A    between atoms: C_1  and  C_2
REMARK    2  A    between atoms: C_2  and  C_27
REMARK    3  A    between atoms: N_5  and  N_9
REMARK    4  A    between atoms: C_10  and  C_12
REMARK    5  A    between atoms: C_12  and  N_13
REMARK    6  A    between atoms: C_19  and  C_21
REMARK    7  A    between atoms: C_27  and  C_28
REMARK    8  A    between atoms: C_28  and  C_29
REMARK                            x       y       z     vdW  Elec       q    Type
REMARK                         _______ _______ _______ _____ _____    ______ ____
ROOT
ATOM      1  N   UNL     1       0.689  -3.206  -6.832  0.00  0.00    -0.225 N 
ATOM      2  C   UNL     1       0.680  -2.220  -5.913  0.00  0.00    +0.213 C 
ATOM      3  O   UNL     1       1.657  -2.026  -5.222  0.00  0.00    -0.276 OA
ATOM      4  H   UNL     1      -0.198  -3.382  -7.459  0.00  0.00    +0.173 HD
ENDROOT
BRANCH   1   9
ATOM      5  C   UNL     1       3.774  -5.970  -8.917  0.00  0.00    +0.041 C 
ATOM      6  C   UNL     1       3.753  -4.953  -7.774  0.00  0.00    +0.112 C 
ATOM      7  C   UNL     1       2.689  -3.901  -8.021  0.00  0.00    +0.263 C 
ATOM      8  O   UNL     1       2.627  -3.127  -8.952  0.00  0.00    -0.271 OA
ATOM      9  N   UNL     1       1.828  -4.006  -6.990  0.00  0.00    -0.137 N 
ATOM     10  C   UNL     1       2.192  -4.972  -6.139  0.00  0.00    +0.326 C 
ATOM     11  O   UNL     1       1.569  -5.257  -5.135  0.00  0.00    -0.251 OA
ATOM     12  N   UNL     1       3.323  -5.592  -6.519  0.00  0.00    -0.284 N 
ATOM     13  H   UNL     1       3.916  -6.413  -6.088  0.00  0.00    +0.151 HD
BRANCH   6  14
ATOM     14  C   UNL     1       5.130  -4.307  -7.606  0.00  0.00    +0.040 C 
BRANCH  14  15
ATOM     15  C   UNL     1       6.159  -5.383  -7.255  0.00  0.00    +0.038 C 
BRANCH  15  16
ATOM     16  C   UNL     1       7.515  -4.747  -7.089  0.00  0.00    -0.047 A 
ATOM     17  C   UNL     1       8.361  -4.628  -8.176  0.00  0.00    +0.003 A 
ATOM     18  C   UNL     1       9.602  -4.040  -8.025  0.00  0.00    +0.000 A 
ATOM     19  C   UNL     1      10.003  -3.580  -6.784  0.00  0.00    +0.000 A 
ATOM     20  C   UNL     1       9.159  -3.704  -5.696  0.00  0.00    +0.000 A 
ATOM     21  C   UNL     1       7.915  -4.288  -5.848  0.00  0.00    +0.003 A 
ENDBRANCH  15  16
ENDBRANCH  14  15
ENDBRANCH   6  14
ENDBRANCH   1   9
BRANCH   2  22
ATOM     22  C   UNL     1      -0.546  -1.359  -5.743  0.00  0.00    +0.020 C 
BRANCH  22  23
ATOM     23  N   UNL     1      -0.260  -0.284  -4.784  0.00  0.00    +0.387 N 
ATOM     24  C   UNL     1       0.006  -0.829  -3.446  0.00  0.00    -0.059 C 
ATOM     25  C   UNL     1       0.119   0.323  -2.442  0.00  0.00    +0.089 C 
ATOM     26  N   UNL     1       1.125   1.276  -2.937  0.00  0.00    -0.303 N 
ATOM     27  C   UNL     1       0.999   1.767  -4.317  0.00  0.00    +0.089 C 
ATOM     28  C   UNL     1       0.854   0.553  -5.249  0.00  0.00    -0.059 C 
ATOM     29  C   UNL     1       2.132   1.692  -2.143  0.00  0.00    +0.244 C 
ATOM     30  O   UNL     1       2.217   1.281  -1.006  0.00  0.00    -0.273 OA
ATOM     31  H   UNL     1      -1.152   0.355  -4.714  0.00  0.00    -0.081 HD
BRANCH  29  32
ATOM     32  C   UNL     1       3.151   2.669  -2.670  0.00  0.00    +0.204 C 
ATOM     33  C   UNL     1       2.476   4.022  -2.969  0.00  0.00    +0.043 C 
ATOM     34  C   UNL     1       3.247   5.034  -2.086  0.00  0.00    +0.031 C 
ATOM     35  C   UNL     1       4.576   4.283  -1.817  0.00  0.00    +0.161 C 
ATOM     36  O   UNL     1       4.164   2.906  -1.678  0.00  0.00    -0.367 OA
ENDBRANCH  29  32
ENDBRANCH  22  23
ENDBRANCH   2  22
TORSDOF 7
