REMARK  Name = ZINC48746760
REMARK  4 active torsions:
REMARK  status: ('A' for Active; 'I' for Inactive)
REMARK    1  A    between atoms: C_1  and  C_2
REMARK    2  A    between atoms: C_11  and  N_13
REMARK    3  A    between atoms: N_13  and  C_14
REMARK    4  A    between atoms: C_14  and  C_15
REMARK                            x       y       z     vdW  Elec       q    Type
REMARK                         _______ _______ _______ _____ _____    ______ ____
ROOT
ATOM      1  C   UNL     1      -0.018   1.503   0.010  0.00  0.00    +0.046 C 
ATOM      2  C   UNL     1       0.002  -0.004   0.002  0.00  0.00    -0.028 A 
ATOM      3  C   UNL     1       0.006  -0.686  -1.198  0.00  0.00    +0.020 A 
ATOM      4  C   UNL     1       0.024  -2.069  -1.216  0.00  0.00    +0.018 A 
ATOM      5  C   UNL     1       0.039  -2.773  -0.023  0.00  0.00    +0.019 A 
ATOM      6  C   UNL     1       0.036  -2.095   1.175  0.00  0.00    -0.030 A 
ATOM      7  C   UNL     1       0.023  -0.706   1.206  0.00  0.00    +0.038 A 
ATOM      8  N   UNL     1       0.029  -0.253   2.526  0.00  0.00    -0.286 N 
ATOM      9  C   UNL     1       0.051  -1.264   3.410  0.00  0.00    +0.208 C 
ATOM     10  O   UNL     1       0.061  -1.163   4.619  0.00  0.00    -0.277 OA
ATOM     11  C   UNL     1       0.049  -2.552   2.615  0.00  0.00    +0.049 C 
ATOM     12 BR   UNL     1       0.028  -2.996  -2.864  0.00  0.00    -0.050 Br
ATOM     13  H   UNL     1       0.019   0.685   2.776  0.00  0.00    +0.155 HD
ENDROOT
BRANCH  11  14
ATOM     14  N   UNL     1      -1.146  -3.352   2.912  0.00  0.00    +0.392 N 
ATOM     15  H   UNL     1      -1.968  -2.772   2.832  0.00  0.00    -0.084 HD
ATOM     16  H   UNL     1      -1.210  -4.117   2.257  0.00  0.00    -0.084 HD
BRANCH  14  17
ATOM     17  C   UNL     1      -1.053  -3.884   4.278  0.00  0.00    -0.045 C 
BRANCH  17  18
ATOM     18  C   UNL     1      -2.280  -4.705   4.582  0.00  0.00    -0.064 A 
ATOM     19  C   UNL     1      -3.395  -4.103   5.135  0.00  0.00    +0.003 A 
ATOM     20  C   UNL     1      -4.520  -4.855   5.414  0.00  0.00    +0.015 A 
ATOM     21  C   UNL     1      -4.530  -6.211   5.140  0.00  0.00    +0.018 A 
ATOM     22  C   UNL     1      -3.414  -6.813   4.588  0.00  0.00    +0.015 A 
ATOM     23  C   UNL     1      -2.291  -6.059   4.304  0.00  0.00    +0.003 A 
ATOM     24 BR   UNL     1      -6.069  -7.242   5.522  0.00  0.00    -0.050 Br
ENDBRANCH  17  18
ENDBRANCH  14  17
ENDBRANCH  11  14
TORSDOF 3
