REMARK  Name = ZINC05297098
REMARK  7 active torsions:
REMARK  status: ('A' for Active; 'I' for Inactive)
REMARK    1  A    between atoms: C_1  and  O_2
REMARK    2  A    between atoms: O_2  and  C_3
REMARK    3  A    between atoms: C_12  and  C_13
REMARK    4  A    between atoms: C_15  and  C_19
REMARK    5  A    between atoms: N_21  and  N_22
REMARK    6  A    between atoms: C_23  and  C_24
REMARK    7  A    between atoms: C_33  and  O_34
REMARK                            x       y       z     vdW  Elec       q    Type
REMARK                         _______ _______ _______ _____ _____    ______ ____
ROOT
ATOM      1  C   UNL     1       0.058  -2.816   0.017  0.00  0.00    +0.097 A 
ATOM      2  C   UNL     1      -0.698  -2.326  -1.065  0.00  0.00    +0.062 A 
ATOM      3  C   UNL     1      -1.061  -3.444  -1.792  0.00  0.00    +0.122 A 
ATOM      4  N   UNL     1      -0.527  -4.520  -1.140  0.00  0.00    -0.272 N 
ATOM      5  H   UNL     1      -0.619  -5.443  -1.422  0.00  0.00    +0.189 HD
ATOM      6  N   UNL     1       0.117  -4.126  -0.102  0.00  0.00    -0.173 NA
ENDROOT
BRANCH   1  16
ATOM      7  C   UNL     1      -0.059  -1.027   1.746  0.00  0.00    +0.130 A 
ATOM      8  C   UNL     1       0.520  -0.265   2.762  0.00  0.00    +0.047 A 
ATOM      9  C   UNL     1       1.816  -0.453   3.131  0.00  0.00    +0.012 A 
ATOM     10  C   UNL     1       2.598  -1.429   2.488  0.00  0.00    -0.017 A 
ATOM     11  C   UNL     1       3.939  -1.642   2.853  0.00  0.00    +0.008 A 
ATOM     12  C   UNL     1       4.669  -2.595   2.211  0.00  0.00    +0.001 A 
ATOM     13  C   UNL     1       4.107  -3.365   1.195  0.00  0.00    +0.001 A 
ATOM     14  C   UNL     1       2.812  -3.186   0.815  0.00  0.00    +0.009 A 
ATOM     15  C   UNL     1       2.029  -2.213   1.455  0.00  0.00    -0.005 A 
ATOM     16  C   UNL     1       0.678  -2.004   1.090  0.00  0.00    +0.051 A 
BRANCH   7  18
ATOM     17  C   UNL     1      -2.058   0.205   2.111  0.00  0.00    +0.277 C 
ATOM     18  O   UNL     1      -1.355  -0.815   1.399  0.00  0.00    -0.494 OA
ENDBRANCH   7  18
ENDBRANCH   1  16
BRANCH   3  19
ATOM     19  C   UNL     1      -1.864  -3.470  -3.025  0.00  0.00    +0.281 C 
ATOM     20  O   UNL     1      -2.280  -2.431  -3.502  0.00  0.00    -0.267 OA
ATOM     21  N   UNL     1      -2.138  -4.645  -3.626  0.00  0.00    -0.202 N 
ATOM     22  H   UNL     1      -1.806  -5.473  -3.245  0.00  0.00    +0.178 HD
BRANCH  21  23
ATOM     23  N   UNL     1      -2.903  -4.670  -4.799  0.00  0.00    -0.187 NA
ATOM     24  C   UNL     1      -3.167  -5.804  -5.378  0.00  0.00    +0.142 C 
BRANCH  24  25
ATOM     25  C   UNL     1      -3.969  -5.830  -6.609  0.00  0.00    +0.044 A 
ATOM     26  C   UNL     1      -4.281  -7.096  -7.270  0.00  0.00    -0.006 A 
ATOM     27  C   UNL     1      -3.831  -8.319  -6.757  0.00  0.00    +0.009 A 
ATOM     28  C   UNL     1      -4.145  -9.477  -7.404  0.00  0.00    +0.001 A 
ATOM     29  C   UNL     1      -4.907  -9.462  -8.569  0.00  0.00    +0.001 A 
ATOM     30  C   UNL     1      -5.361  -8.291  -9.095  0.00  0.00    +0.008 A 
ATOM     31  C   UNL     1      -5.057  -7.077  -8.455  0.00  0.00    -0.017 A 
ATOM     32  C   UNL     1      -5.509  -5.849  -8.968  0.00  0.00    +0.012 A 
ATOM     33  C   UNL     1      -5.210  -4.681  -8.341  0.00  0.00    +0.046 A 
ATOM     34  C   UNL     1      -4.454  -4.649  -7.170  0.00  0.00    +0.126 A 
BRANCH  34  35
ATOM     35  O   UNL     1      -4.184  -3.459  -6.573  0.00  0.00    -0.506 OA
ATOM     36  H   UNL     1      -3.369  -3.040  -6.882  0.00  0.00    +0.292 HD
ENDBRANCH  34  35
ENDBRANCH  24  25
ENDBRANCH  21  23
ENDBRANCH   3  19
TORSDOF 6
