REMARK  Name = ZINC12974622
REMARK  9 active torsions:
REMARK  status: ('A' for Active; 'I' for Inactive)
REMARK    1  A    between atoms: C_1  and  S_2
REMARK    2  A    between atoms: S_2  and  C_3
REMARK    3  A    between atoms: C_3  and  C_4
REMARK    4  A    between atoms: C_4  and  C_5
REMARK    5  A    between atoms: C_5  and  C_7
REMARK    6  A    between atoms: C_5  and  N_29
REMARK    7  A    between atoms: N_12  and  S_15
REMARK    8  A    between atoms: S_15  and  C_18
REMARK    9  A    between atoms: C_30  and  C_32
REMARK                            x       y       z     vdW  Elec       q    Type
REMARK                         _______ _______ _______ _____ _____    ______ ____
ROOT
ATOM      1  C   UNL     1      -2.253   0.744  -0.541  0.00  0.00    +0.236 C 
ATOM      2  O   UNL     1      -1.897  -0.300  -1.044  0.00  0.00    -0.274 OA
ATOM      3  N   UNL     1      -3.563   1.060  -0.499  0.00  0.00    -0.297 N 
ATOM      4  C   UNL     1      -4.002   2.365   0.013  0.00  0.00    +0.125 C 
ATOM      5  C   UNL     1      -4.864   3.044  -1.065  0.00  0.00    +0.128 C 
ATOM      6  N   UNL     1      -5.879   2.086  -1.525  0.00  0.00    -0.174 NA
ATOM      7  C   UNL     1      -5.440   0.778  -2.032  0.00  0.00    +0.128 C 
ATOM      8  C   UNL     1      -4.578   0.101  -0.959  0.00  0.00    +0.125 C 
ENDROOT
BRANCH   6   9
ATOM      9  S   UNL     1      -7.488   2.473  -1.473  0.00  0.00    +0.061 S 
ATOM     10  O   UNL     1      -7.566   3.892  -1.494  0.00  0.00    -0.153 OA
ATOM     11  O   UNL     1      -8.133   1.661  -2.445  0.00  0.00    -0.153 OA
BRANCH   9  12
ATOM     12  C   UNL     1      -8.097   1.958   0.098  0.00  0.00    +0.109 A 
ATOM     13  C   UNL     1      -8.614   0.685   0.253  0.00  0.00    +0.032 A 
ATOM     14  C   UNL     1      -9.089   0.272   1.485  0.00  0.00    +0.051 A 
ATOM     15  C   UNL     1      -9.056   1.143   2.561  0.00  0.00    +0.162 A 
ATOM     16  C   UNL     1      -8.542   2.423   2.404  0.00  0.00    +0.164 A 
ATOM     17  C   UNL     1      -8.062   2.831   1.171  0.00  0.00    +0.078 A 
ATOM     18  O   UNL     1      -8.512   3.273   3.471  0.00  0.00    -0.488 OA
ATOM     19  C   UNL     1      -9.782   3.727   3.943  0.00  0.00    +0.232 C 
ATOM     20  C   UNL     1     -10.392   2.719   4.905  0.00  0.00    +0.082 C 
ATOM     21  C   UNL     1     -10.717   1.397   4.229  0.00  0.00    +0.232 C 
ATOM     22  O   UNL     1      -9.525   0.750   3.780  0.00  0.00    -0.488 OA
ENDBRANCH   9  12
ENDBRANCH   6   9
BRANCH   1  23
ATOM     23  C   UNL     1      -1.232   1.689   0.038  0.00  0.00    +0.160 C 
BRANCH  23  24
ATOM     24  N   UNL     1       0.089   1.380  -0.516  0.00  0.00    -0.304 N 
ATOM     25  C   UNL     1       1.036   2.337  -0.574  0.00  0.00    +0.217 C 
ATOM     26  O   UNL     1       0.797   3.453  -0.162  0.00  0.00    -0.275 OA
ATOM     27  H   UNL     1       0.280   0.488  -0.845  0.00  0.00    +0.149 HD
BRANCH  25  28
ATOM     28  C   UNL     1       2.392   2.021  -1.150  0.00  0.00    +0.075 C 
ATOM     29  C   UNL     1       3.582   2.003  -0.187  0.00  0.00    +0.013 C 
ATOM     30  C   UNL     1       3.424   3.150  -1.187  0.00  0.00    +0.013 C 
ENDBRANCH  25  28
ENDBRANCH  23  24
BRANCH  23  31
ATOM     31  C   UNL     1      -1.196   1.531   1.560  0.00  0.00    +0.042 C 
BRANCH  31  32
ATOM     32  C   UNL     1      -0.260   2.582   2.159  0.00  0.00    +0.071 C 
BRANCH  32  34
ATOM     33  C   UNL     1       0.921   3.696   4.513  0.00  0.00    +0.084 C 
ATOM     34  S   UNL     1      -0.217   2.395   3.963  0.00  0.00    -0.164 S 
ENDBRANCH  32  34
ENDBRANCH  31  32
ENDBRANCH  23  31
ENDBRANCH   1  23
TORSDOF 8
