REMARK  Name = ZINC64006587
REMARK  11 active torsions:
REMARK  status: ('A' for Active; 'I' for Inactive)
REMARK    1  A    between atoms: C_1  and  C_2
REMARK    2  A    between atoms: C_2  and  O_3
REMARK    3  A    between atoms: O_3  and  C_4
REMARK    4  A    between atoms: C_9  and  C_10
REMARK    5  A    between atoms: C_10  and  N_11
REMARK    6  A    between atoms: C_17  and  C_19
REMARK    7  A    between atoms: C_19  and  C_20
REMARK    8  A    between atoms: N_22  and  C_23
REMARK    9  A    between atoms: N_22  and  C_24
REMARK   10  A    between atoms: C_24  and  C_25
REMARK   11  A    between atoms: C_27  and  C_35
REMARK                            x       y       z     vdW  Elec       q    Type
REMARK                         _______ _______ _______ _____ _____    ______ ____
ROOT
ATOM      1  N   UNL     1       3.212  -0.714  -3.236  0.00  0.00    +0.391 N 
ATOM      2  C   UNL     1       4.242  -1.753  -3.389  0.00  0.00    -0.058 C 
ATOM      3  C   UNL     1       5.561  -1.227  -2.820  0.00  0.00    +0.085 C 
ATOM      4  N   UNL     1       5.859   0.086  -3.388  0.00  0.00    -0.318 N 
ATOM      5  C   UNL     1       4.931   0.838  -3.990  0.00  0.00    +0.200 C 
ATOM      6  O   UNL     1       5.252   1.927  -4.416  0.00  0.00    -0.278 OA
ATOM      7  C   UNL     1       3.508   0.388  -4.160  0.00  0.00    +0.028 C 
ATOM      8  H   UNL     1       6.765   0.425  -3.325  0.00  0.00    +0.149 HD
ATOM      9  H   UNL     1       3.215  -0.369  -2.288  0.00  0.00    -0.080 HD
ENDROOT
BRANCH   1  10
ATOM     10  C   UNL     1       1.893  -1.278  -3.551  0.00  0.00    -0.038 C 
BRANCH  10  16
ATOM     11  C   UNL     1       1.145  -2.038  -1.281  0.00  0.00    +0.122 A 
ATOM     12  C   UNL     1       0.838  -3.042  -0.374  0.00  0.00    +0.046 A 
ATOM     13  C   UNL     1       0.954  -4.367  -0.748  0.00  0.00    +0.004 A 
ATOM     14  C   UNL     1       1.377  -4.693  -2.024  0.00  0.00    +0.000 A 
ATOM     15  C   UNL     1       1.684  -3.694  -2.929  0.00  0.00    +0.005 A 
ATOM     16  C   UNL     1       1.563  -2.367  -2.562  0.00  0.00    -0.022 A 
BRANCH  11  17
ATOM     17  O   UNL     1       1.031  -0.734  -0.916  0.00  0.00    -0.492 OA
BRANCH  17  19
ATOM     18  C   UNL     1       0.479   1.036   0.634  0.00  0.00    +0.048 C 
ATOM     19  C   UNL     1       0.679  -0.469   0.443  0.00  0.00    +0.225 C 
ENDBRANCH  17  19
ENDBRANCH  11  17
ENDBRANCH  10  16
ENDBRANCH   1  10
BRANCH   7  20
ATOM     20  C   UNL     1       2.567   1.560  -3.871  0.00  0.00    +0.090 C 
BRANCH  20  21
ATOM     21  C   UNL     1       2.837   2.089  -2.486  0.00  0.00    +0.214 C 
ATOM     22  O   UNL     1       3.735   1.619  -1.821  0.00  0.00    -0.276 OA
ATOM     23  N   UNL     1       2.079   3.086  -1.986  0.00  0.00    -0.302 N 
ATOM     24  C   UNL     1       0.935   3.589  -2.750  0.00  0.00    +0.132 C 
BRANCH  23  25
ATOM     25  C   UNL     1       2.400   3.665  -0.679  0.00  0.00    +0.136 C 
BRANCH  25  26
ATOM     26  C   UNL     1       3.319   4.873  -0.869  0.00  0.00    +0.123 C 
ATOM     27  C   UNL     1       3.535   5.577   0.452  0.00  0.00    -0.040 C 
ATOM     28  C   UNL     1       3.056   6.831   0.292  0.00  0.00    -0.001 A 
ATOM     29  C   UNL     1       2.974   7.987   1.192  0.00  0.00    +0.010 A 
ATOM     30  C   UNL     1       2.428   9.137   0.736  0.00  0.00    +0.001 A 
ATOM     31  C   UNL     1       1.940   9.253  -0.573  0.00  0.00    +0.002 A 
ATOM     32  C   UNL     1       1.980   8.235  -1.459  0.00  0.00    +0.026 A 
ATOM     33  C   UNL     1       2.533   6.979  -1.086  0.00  0.00    +0.043 A 
ATOM     34  N   UNL     1       2.684   5.858  -1.752  0.00  0.00    -0.376 N 
ATOM     35  C   UNL     1       4.157   4.997   1.696  0.00  0.00    +0.042 C 
ATOM     36  H   UNL     1       2.421   5.706  -2.673  0.00  0.00    +0.160 HD
ENDBRANCH  25  26
ENDBRANCH  23  25
ENDBRANCH  20  21
ENDBRANCH   7  20
TORSDOF 8
