REMARK  Name = ZINC06269485
REMARK  14 active torsions:
REMARK  status: ('A' for Active; 'I' for Inactive)
REMARK    1  A    between atoms: C_1  and  C_2
REMARK    2  A    between atoms: C_5  and  C_37
REMARK    3  A    between atoms: C_6  and  S_8
REMARK    4  A    between atoms: S_8  and  N_11
REMARK    5  A    between atoms: N_11  and  C_12
REMARK    6  A    between atoms: C_14  and  C_23
REMARK    7  A    between atoms: C_15  and  O_22
REMARK    8  A    between atoms: C_23  and  C_25
REMARK    9  A    between atoms: C_23  and  C_31
REMARK   10  A    between atoms: C_25  and  C_27
REMARK   11  A    between atoms: C_31  and  O_33
REMARK   12  A    between atoms: O_33  and  C_34
REMARK   13  A    between atoms: C_34  and  C_35
REMARK   14  A    between atoms: C_34  and  C_36
REMARK                            x       y       z     vdW  Elec       q    Type
REMARK                         _______ _______ _______ _____ _____    ______ ____
ROOT
ATOM      1  C   UNL     1       1.234   2.201   2.128  0.00  0.00    +0.056 A 
ATOM      2  C   UNL     1       0.060   2.828   1.771  0.00  0.00    +0.033 A 
ATOM      3  C   UNL     1       0.076   3.977   0.985  0.00  0.00    +0.018 A 
ATOM      4  C   UNL     1       1.252   4.509   0.540  0.00  0.00    +0.129 A 
ATOM      5  C   UNL     1       2.473   3.894   0.880  0.00  0.00    +0.026 A 
ATOM      6  C   UNL     1       2.466   2.727   1.683  0.00  0.00    +0.008 A 
ATOM      7  C   UNL     1       3.683   2.114   2.020  0.00  0.00    +0.010 A 
ATOM      8  C   UNL     1       4.853   2.648   1.573  0.00  0.00    +0.001 A 
ATOM      9  C   UNL     1       4.861   3.796   0.782  0.00  0.00    +0.001 A 
ATOM     10  C   UNL     1       3.700   4.416   0.436  0.00  0.00    +0.012 A 
ENDROOT
BRANCH   1  11
ATOM     11  N   UNL     1       1.205   1.051   2.920  0.00  0.00    -0.216 N 
ATOM     12  H   UNL     1       1.901   0.897   3.578  0.00  0.00    +0.174 HD
BRANCH  11  13
ATOM     13  S   UNL     1      -0.019  -0.050   2.736  0.00  0.00    +0.073 S 
ATOM     14  O   UNL     1      -1.236   0.672   2.856  0.00  0.00    -0.150 OA
ATOM     15  O   UNL     1       0.299  -1.153   3.573  0.00  0.00    -0.150 OA
BRANCH  13  21
ATOM     16  C   UNL     1      -2.077  -0.592  -2.038  0.00  0.00    +0.044 C 
ATOM     17  C   UNL     1      -0.934  -0.857  -1.092  0.00  0.00    -0.049 A 
ATOM     18  C   UNL     1       0.173  -1.562  -1.526  0.00  0.00    +0.004 A 
ATOM     19  C   UNL     1       1.223  -1.802  -0.660  0.00  0.00    +0.005 A 
ATOM     20  C   UNL     1       1.162  -1.344   0.643  0.00  0.00    -0.024 A 
ATOM     21  C   UNL     1       0.056  -0.639   1.077  0.00  0.00    +0.112 A 
ATOM     22  C   UNL     1      -0.993  -0.396   0.209  0.00  0.00    +0.032 A 
ATOM     23  C   UNL     1       2.305  -1.609   1.589  0.00  0.00    +0.046 C 
ENDBRANCH  13  21
ENDBRANCH  11  13
ENDBRANCH   1  11
BRANCH   4  24
ATOM     24  O   UNL     1       1.245   5.629  -0.231  0.00  0.00    -0.506 OA
ATOM     25  H   UNL     1       1.194   5.454  -1.180  0.00  0.00    +0.292 HD
ENDBRANCH   4  24
BRANCH   3  26
ATOM     26  C   UNL     1      -1.225   4.642   0.617  0.00  0.00    +0.206 C 
BRANCH  26  27
ATOM     27  C   UNL     1      -1.900   5.152   1.864  0.00  0.00    +0.254 C 
ATOM     28  O   UNL     1      -1.662   4.640   2.931  0.00  0.00    -0.287 OA
BRANCH  27  29
ATOM     29  C   UNL     1      -2.871   6.301   1.779  0.00  0.00    +0.452 C 
ATOM     30  F   UNL     1      -3.363   6.592   3.056  0.00  0.00    -0.163 F 
ATOM     31  F   UNL     1      -2.219   7.426   1.263  0.00  0.00    -0.163 F 
ATOM     32  F   UNL     1      -3.934   5.952   0.939  0.00  0.00    -0.163 F 
ENDBRANCH  27  29
ENDBRANCH  26  27
BRANCH  26  33
ATOM     33  C   UNL     1      -2.123   3.644  -0.068  0.00  0.00    +0.323 C 
ATOM     34  O   UNL     1      -1.787   2.486  -0.150  0.00  0.00    -0.250 OA
BRANCH  33  35
ATOM     35  O   UNL     1      -3.297   4.040  -0.585  0.00  0.00    -0.461 OA
BRANCH  35  36
ATOM     36  C   UNL     1      -4.110   3.025  -1.229  0.00  0.00    +0.170 C 
ATOM     37  C   UNL     1      -5.045   2.390  -0.198  0.00  0.00    +0.052 C 
ATOM     38  C   UNL     1      -4.940   3.667  -2.342  0.00  0.00    +0.052 C 
ENDBRANCH  35  36
ENDBRANCH  33  35
ENDBRANCH  26  33
ENDBRANCH   3  26
TORSDOF 10
