REMARK  Name = ZINC44878539
REMARK  11 active torsions:
REMARK  status: ('A' for Active; 'I' for Inactive)
REMARK    1  A    between atoms: C_1  and  C_2
REMARK    2  A    between atoms: N_7  and  C_9
REMARK    3  A    between atoms: C_9  and  C_10
REMARK    4  A    between atoms: C_13  and  C_16
REMARK    5  A    between atoms: C_16  and  N_17
REMARK    6  A    between atoms: C_18  and  C_20
REMARK    7  A    between atoms: C_20  and  C_22
REMARK    8  A    between atoms: C_20  and  N_23
REMARK    9  A    between atoms: N_23  and  C_24
REMARK   10  A    between atoms: N_23  and  S_32
REMARK   11  A    between atoms: S_32  and  C_35
REMARK                            x       y       z     vdW  Elec       q    Type
REMARK                         _______ _______ _______ _____ _____    ______ ____
ROOT
ATOM      1  N   UNL     1      -0.831  -8.477   1.716  0.00  0.00    -0.310 N 
ATOM      2  C   UNL     1      -0.665  -9.795   1.486  0.00  0.00    +0.235 C 
ATOM      3  O   UNL     1      -0.323 -10.530   2.388  0.00  0.00    -0.274 OA
ATOM      4  H   UNL     1      -1.104  -7.889   0.995  0.00  0.00    +0.149 HD
ENDROOT
BRANCH   2   5
ATOM      5  C   UNL     1      -0.905 -10.355   0.107  0.00  0.00    +0.180 C 
ATOM      6  C   UNL     1       0.065  -9.706  -0.882  0.00  0.00    +0.040 C 
BRANCH   5   7
ATOM      7  N   UNL     1      -0.688 -11.803   0.124  0.00  0.00    -0.195 N 
BRANCH   7   8
ATOM      8  C   UNL     1       0.596 -12.316   0.329  0.00  0.00    +0.071 A 
ATOM      9  C   UNL     1       1.067 -12.518   1.619  0.00  0.00    +0.046 A 
ATOM     10  C   UNL     1       2.337 -13.025   1.818  0.00  0.00    +0.043 A 
ATOM     11  C   UNL     1       3.139 -13.331   0.732  0.00  0.00    +0.021 A 
ATOM     12  C   UNL     1       2.673 -13.130  -0.554  0.00  0.00    +0.023 A 
ATOM     13  C   UNL     1       1.402 -12.630  -0.759  0.00  0.00    +0.064 A 
ATOM     14 CL   UNL     1       0.815 -12.386  -2.375  0.00  0.00    -0.082 Cl
ATOM     15 CL   UNL     1       2.927 -13.278   3.431  0.00  0.00    -0.083 Cl
ENDBRANCH   7   8
BRANCH   7  16
ATOM     16  S   UNL     1      -1.965 -12.834  -0.099  0.00  0.00    +0.043 S 
ATOM     17  O   UNL     1      -1.529 -14.074   0.440  0.00  0.00    -0.155 OA
ATOM     18  O   UNL     1      -3.082 -12.154   0.458  0.00  0.00    -0.155 OA
ATOM     19  C   UNL     1      -2.149 -12.965  -1.899  0.00  0.00    +0.218 C 
ENDBRANCH   7  16
ENDBRANCH   5   7
ENDBRANCH   2   5
BRANCH   1  20
ATOM     20  C   UNL     1      -0.598  -7.933   3.056  0.00  0.00    +0.139 C 
BRANCH  20  24
ATOM     21  C   UNL     1      -1.312  -3.722   3.030  0.00  0.00    -0.064 A 
ATOM     22  C   UNL     1      -2.345  -4.596   3.311  0.00  0.00    +0.002 A 
ATOM     23  C   UNL     1      -2.114  -5.959   3.319  0.00  0.00    +0.005 A 
ATOM     24  C   UNL     1      -0.850  -6.447   3.046  0.00  0.00    -0.030 A 
ATOM     25  C   UNL     1       0.183  -5.573   2.764  0.00  0.00    +0.005 A 
ATOM     26  C   UNL     1      -0.049  -4.210   2.751  0.00  0.00    +0.002 A 
BRANCH  21  27
ATOM     27  C   UNL     1      -1.563  -2.236   3.020  0.00  0.00    -0.043 C 
BRANCH  27  33
ATOM     28  C   UNL     1      -3.213   1.509   0.333  0.00  0.00    +0.005 C 
ATOM     29  C   UNL     1      -2.832   0.027   0.308  0.00  0.00    -0.031 C 
ATOM     30  C   UNL     1      -1.719  -0.198  -0.719  0.00  0.00    -0.001 C 
ATOM     31  C   UNL     1      -1.291  -1.668  -0.679  0.00  0.00    -0.018 C 
ATOM     32  C   UNL     1      -0.851  -2.027   0.741  0.00  0.00    -0.078 C 
ATOM     33  N   UNL     1      -1.966  -1.816   1.671  0.00  0.00    +0.383 N 
ATOM     34  C   UNL     1      -2.336  -0.396   1.693  0.00  0.00    -0.075 C 
ATOM     35  H   UNL     1      -2.759  -2.364   1.374  0.00  0.00    -0.081 HD
ENDBRANCH  27  33
ENDBRANCH  21  27
ENDBRANCH  20  24
ENDBRANCH   1  20
TORSDOF 8
