REMARK  Name = ZINC09256784
REMARK  5 active torsions:
REMARK  status: ('A' for Active; 'I' for Inactive)
REMARK    1  A    between atoms: C_4  and  C_7
REMARK    2  A    between atoms: C_18  and  S_19
REMARK    3  A    between atoms: S_19  and  C_20
REMARK    4  A    between atoms: N_24  and  C_25
REMARK    5  A    between atoms: C_25  and  C_26
REMARK                            x       y       z     vdW  Elec       q    Type
REMARK                         _______ _______ _______ _____ _____    ______ ____
ROOT
ATOM      1  C   UNL     1      -1.220  -0.685   0.108  0.00  0.00    +0.010 A 
ATOM      2  C   UNL     1      -0.019   0.151  -0.052  0.00  0.00    +0.007 A 
ATOM      3  C   UNL     1       1.249  -0.424  -0.160  0.00  0.00    +0.010 A 
ATOM      4  C   UNL     1       2.353   0.385  -0.308  0.00  0.00    +0.001 A 
ATOM      5  C   UNL     1       2.211   1.764  -0.351  0.00  0.00    +0.002 A 
ATOM      6  C   UNL     1       0.967   2.347  -0.245  0.00  0.00    +0.026 A 
ATOM      7  C   UNL     1      -0.162   1.548  -0.095  0.00  0.00    +0.050 A 
ATOM      8  N   UNL     1      -1.417   2.115   0.019  0.00  0.00    -0.321 N 
ATOM      9  H   UNL     1      -1.505   3.081  -0.012  0.00  0.00    +0.169 HD
ATOM     10  C   UNL     1      -2.518   1.359   0.159  0.00  0.00    +0.264 A 
ATOM     11  O   UNL     1      -3.605   1.904   0.250  0.00  0.00    -0.267 OA
ATOM     12  C   UNL     1      -2.448  -0.054   0.210  0.00  0.00    +0.088 A 
ENDROOT
BRANCH   1  16
ATOM     13  C   UNL     1      -0.925  -4.921   0.253  0.00  0.00    +0.000 A 
ATOM     14  C   UNL     1      -1.549  -4.310  -0.820  0.00  0.00    +0.001 A 
ATOM     15  C   UNL     1      -1.648  -2.935  -0.873  0.00  0.00    +0.008 A 
ATOM     16  C   UNL     1      -1.117  -2.160   0.159  0.00  0.00    -0.016 A 
ATOM     17  C   UNL     1      -0.484  -2.782   1.236  0.00  0.00    +0.008 A 
ATOM     18  C   UNL     1      -0.396  -4.158   1.280  0.00  0.00    +0.001 A 
ENDBRANCH   1  16
BRANCH  12  19
ATOM     19  S   UNL     1      -3.918  -1.006   0.404  0.00  0.00    -0.042 S 
BRANCH  19  20
ATOM     20  C   UNL     1      -4.391  -0.512   2.028  0.00  0.00    +0.215 A 
ATOM     21  N   UNL     1      -3.796   0.393   2.773  0.00  0.00    -0.101 NA
ATOM     22  N   UNL     1      -4.396   0.510   3.903  0.00  0.00    -0.022 NA
ATOM     23  N   UNL     1      -5.399  -0.296   3.963  0.00  0.00    -0.043 NA
ATOM     24  N   UNL     1      -5.438  -0.990   2.741  0.00  0.00    -0.215 N 
BRANCH  24  25
ATOM     25  C   UNL     1      -6.403  -2.013   2.329  0.00  0.00    +0.190 C 
BRANCH  25  26
ATOM     26  C   UNL     1      -5.899  -3.373   2.737  0.00  0.00    +0.011 A 
ATOM     27  C   UNL     1      -6.108  -4.050   3.893  0.00  0.00    +0.013 A 
ATOM     28  C   UNL     1      -5.540  -5.300   4.049  0.00  0.00    +0.008 A 
ATOM     29  C   UNL     1      -4.791  -5.813   3.043  0.00  0.00    +0.045 A 
ATOM     30  S   UNL     1      -4.877  -4.515   1.820  0.00  0.00    -0.100 S 
ENDBRANCH  25  26
ENDBRANCH  24  25
ENDBRANCH  19  20
ENDBRANCH  12  19
TORSDOF 5
