REMARK  Name = ZINC56590921
REMARK  8 active torsions:
REMARK  status: ('A' for Active; 'I' for Inactive)
REMARK    1  A    between atoms: C_1  and  C_2
REMARK    2  A    between atoms: C_6  and  C_8
REMARK    3  A    between atoms: N_16  and  C_17
REMARK    4  A    between atoms: C_20  and  C_23
REMARK    5  A    between atoms: C_23  and  C_24
REMARK    6  A    between atoms: N_26  and  C_27
REMARK    7  A    between atoms: C_27  and  C_28
REMARK    8  A    between atoms: C_27  and  C_29
REMARK                            x       y       z     vdW  Elec       q    Type
REMARK                         _______ _______ _______ _____ _____    ______ ____
ROOT
ATOM      1  C   UNL     1       0.055  -2.845   2.484  0.00  0.00    +0.108 C 
ATOM      2  C   UNL     1       1.492  -3.316   2.788  0.00  0.00    +0.029 C 
ATOM      3  C   UNL     1       1.275  -4.730   3.389  0.00  0.00    +0.021 C 
ATOM      4  C   UNL     1       0.066  -5.236   2.563  0.00  0.00    +0.110 C 
ATOM      5  N   UNL     1      -0.787  -4.045   2.371  0.00  0.00    -0.278 N 
ATOM      6  C   UNL     1      -2.113  -4.055   2.133  0.00  0.00    +0.307 C 
ATOM      7  O   UNL     1      -2.713  -3.007   1.992  0.00  0.00    -0.252 OA
ATOM      8  N   UNL     1      -2.775  -5.226   2.052  0.00  0.00    -0.269 N 
ATOM      9  H   UNL     1      -2.287  -6.063   2.097  0.00  0.00    +0.156 HD
ENDROOT
BRANCH   1  15
ATOM     10  C   UNL     1      -0.033   1.514   0.027  0.00  0.00    +0.044 C 
ATOM     11  C   UNL     1      -0.012   0.007   0.011  0.00  0.00    -0.050 A 
ATOM     12  C   UNL     1      -0.015  -0.672  -1.193  0.00  0.00    +0.003 A 
ATOM     13  C   UNL     1       0.005  -2.054  -1.207  0.00  0.00    +0.001 A 
ATOM     14  C   UNL     1       0.027  -2.757  -0.017  0.00  0.00    +0.005 A 
ATOM     15  C   UNL     1       0.031  -2.078   1.187  0.00  0.00    -0.027 A 
ATOM     16  C   UNL     1       0.016  -0.696   1.201  0.00  0.00    +0.008 A 
ENDBRANCH   1  15
BRANCH   8  17
ATOM     17  C   UNL     1      -4.166  -5.235   1.901  0.00  0.00    +0.035 A 
ATOM     18  C   UNL     1      -4.926  -6.225   2.511  0.00  0.00    +0.023 A 
ATOM     19  C   UNL     1      -6.299  -6.231   2.361  0.00  0.00    +0.006 A 
ATOM     20  C   UNL     1      -6.917  -5.252   1.605  0.00  0.00    -0.039 A 
ATOM     21  C   UNL     1      -6.164  -4.265   0.997  0.00  0.00    +0.006 A 
ATOM     22  C   UNL     1      -4.791  -4.250   1.147  0.00  0.00    +0.023 A 
BRANCH  20  23
ATOM     23  C   UNL     1      -8.415  -5.261   1.444  0.00  0.00    +0.130 C 
BRANCH  23  24
ATOM     24  C   UNL     1      -9.045  -4.452   2.548  0.00  0.00    +0.218 C 
ATOM     25  O   UNL     1      -8.345  -3.920   3.384  0.00  0.00    -0.275 OA
ATOM     26  N   UNL     1     -10.385  -4.319   2.607  0.00  0.00    -0.313 N 
ATOM     27  H   UNL     1     -10.944  -4.744   1.939  0.00  0.00    +0.149 HD
BRANCH  26  28
ATOM     28  C   UNL     1     -10.996  -3.532   3.681  0.00  0.00    +0.067 C 
ATOM     29  C   UNL     1     -11.014  -2.055   3.284  0.00  0.00    +0.027 C 
ATOM     30  C   UNL     1     -12.429  -4.015   3.914  0.00  0.00    +0.027 C 
ENDBRANCH  26  28
ENDBRANCH  23  24
ENDBRANCH  20  23
ENDBRANCH   8  17
TORSDOF 5
