REMARK  Name = ZINC02293292
REMARK  4 active torsions:
REMARK  status: ('A' for Active; 'I' for Inactive)
REMARK    1  A    between atoms: C_1  and  C_2
REMARK    2  A    between atoms: N_13  and  C_21
REMARK    3  A    between atoms: C_16  and  S_19
REMARK    4  A    between atoms: S_19  and  C_20
REMARK                            x       y       z     vdW  Elec       q    Type
REMARK                         _______ _______ _______ _____ _____    ______ ____
ROOT
ATOM      1  C   UNL     1       3.674  -0.023   2.201  0.00  0.00    +0.008 C 
ATOM      2  C   UNL     1       2.391   0.432   1.503  0.00  0.00    -0.009 C 
ATOM      3  C   UNL     1       1.182   0.099   2.382  0.00  0.00    +0.008 C 
ATOM      4  C   UNL     1      -0.111   0.318   1.594  0.00  0.00    +0.037 C 
ATOM      5  C   UNL     1      -0.089   1.720   0.998  0.00  0.00    -0.023 A 
ATOM      6  C   UNL     1       1.065   2.406   0.877  0.00  0.00    -0.004 A 
ATOM      7  S   UNL     1       0.598   3.950   0.147  0.00  0.00    -0.074 S 
ATOM      8  C   UNL     1      -1.100   3.680   0.006  0.00  0.00    +0.102 A 
ATOM      9  C   UNL     1      -1.293   2.402   0.518  0.00  0.00    +0.075 A 
ATOM     10  C   UNL     1      -2.685   1.899   0.518  0.00  0.00    +0.268 A 
ATOM     11  O   UNL     1      -2.935   0.790   0.956  0.00  0.00    -0.266 OA
ATOM     12  N   UNL     1      -3.672   2.670   0.033  0.00  0.00    -0.245 N 
ATOM     13  C   UNL     1      -3.419   3.936  -0.471  0.00  0.00    +0.245 A 
ATOM     14  N   UNL     1      -2.143   4.438  -0.477  0.00  0.00    -0.249 N 
ATOM     15  C   UNL     1      -2.189   5.690  -1.032  0.00  0.00    +0.198 A 
ATOM     16  N   UNL     1      -3.435   5.953  -1.341  0.00  0.00    -0.120 NA
ATOM     17  N   UNL     1      -4.214   4.844  -0.987  0.00  0.00    -0.109 NA
ATOM     18  C   UNL     1       2.435   1.950   1.276  0.00  0.00    +0.046 C 
ENDROOT
BRANCH  12  19
ATOM     19  C   UNL     1      -4.986   2.185   0.038  0.00  0.00    +0.053 A 
ATOM     20  C   UNL     1      -5.807   2.412   1.135  0.00  0.00    +0.026 A 
ATOM     21  C   UNL     1      -7.104   1.936   1.134  0.00  0.00    +0.002 A 
ATOM     22  C   UNL     1      -7.581   1.226   0.048  0.00  0.00    +0.000 A 
ATOM     23  C   UNL     1      -6.764   0.994  -1.044  0.00  0.00    +0.002 A 
ATOM     24  C   UNL     1      -5.468   1.472  -1.052  0.00  0.00    +0.026 A 
ENDBRANCH  12  19
BRANCH  15  25
ATOM     25  S   UNL     1      -0.814   6.764  -1.277  0.00  0.00    -0.089 S 
ATOM     26  C   UNL     1      -1.543   8.245  -2.029  0.00  0.00    +0.093 C 
ENDBRANCH  15  25
TORSDOF 2
