REMARK  Name = ZINC08563705
REMARK  5 active torsions:
REMARK  status: ('A' for Active; 'I' for Inactive)
REMARK    1  A    between atoms: C_3  and  C_8
REMARK    2  A    between atoms: N_10  and  C_11
REMARK    3  A    between atoms: C_11  and  N_13
REMARK    4  A    between atoms: N_13  and  C_14
REMARK    5  A    between atoms: C_15  and  C_22
REMARK                            x       y       z     vdW  Elec       q    Type
REMARK                         _______ _______ _______ _____ _____    ______ ____
ROOT
ATOM      1  C   UNL     1      -4.837   0.984   0.030  0.00  0.00    +0.141 C 
ATOM      2  S   UNL     1      -4.819  -0.728   0.021  0.00  0.00    -0.018 S 
ENDROOT
BRANCH   1   5
ATOM      3  C   UNL     1      -2.502   1.007   0.019  0.00  0.00    +0.250 C 
ATOM      4  O   UNL     1      -2.490  -0.208   0.013  0.00  0.00    -0.270 OA
ATOM      5  N   UNL     1      -3.676   1.669   0.029  0.00  0.00    -0.264 N 
ATOM      6  H   UNL     1      -3.686   2.639   0.034  0.00  0.00    +0.157 HD
BRANCH   3   9
ATOM      7  C   UNL     1       1.172   1.783   0.000  0.00  0.00    +0.002 A 
ATOM      8  C   UNL     1      -0.013   1.076   0.008  0.00  0.00    +0.013 A 
ATOM      9  C   UNL     1      -1.230   1.759   0.017  0.00  0.00    +0.038 A 
ATOM     10  C   UNL     1      -1.241   3.155   0.029  0.00  0.00    +0.033 A 
ATOM     11  C   UNL     1      -0.048   3.851   0.022  0.00  0.00    +0.042 A 
ATOM     12  C   UNL     1       1.156   3.166   0.007  0.00  0.00    +0.020 A 
ATOM     13 CL   UNL     1      -0.058   5.587   0.030  0.00  0.00    -0.084 Cl
ENDBRANCH   3   9
ENDBRANCH   1   5
BRANCH   1  14
ATOM     14  N   UNL     1      -6.011   1.646   0.039  0.00  0.00    -0.290 N 
ATOM     15  H   UNL     1      -6.020   2.615   0.045  0.00  0.00    +0.154 HD
BRANCH  14  16
ATOM     16  C   UNL     1      -7.205   0.940   0.041  0.00  0.00    +0.089 A 
ATOM     17  C   UNL     1      -8.497   1.436   0.056  0.00  0.00    +0.084 A 
ATOM     18  C   UNL     1      -9.594   0.469   0.051  0.00  0.00    -0.018 A 
ATOM     19  C   UNL     1      -9.216  -0.822   0.042  0.00  0.00    -0.004 A 
ATOM     20  S   UNL     1      -7.441  -0.774   0.034  0.00  0.00    -0.077 S 
ATOM     21  C   UNL     1     -10.398  -1.755   0.040  0.00  0.00    +0.043 C 
ATOM     22  C   UNL     1     -11.590  -0.871  -0.388  0.00  0.00    +0.010 C 
ATOM     23  C   UNL     1     -11.122   0.528   0.061  0.00  0.00    +0.037 C 
BRANCH  17  24
ATOM     24  C   UNL     1      -8.750   2.845   0.071  0.00  0.00    +0.102 C 
ATOM     25  N   UNL     1      -8.951   3.963   0.083  0.00  0.00    -0.191 NA
ENDBRANCH  17  24
ENDBRANCH  14  16
ENDBRANCH   1  14
TORSDOF 5
