REMARK  Name = ZINC11785797
REMARK  6 active torsions:
REMARK  status: ('A' for Active; 'I' for Inactive)
REMARK    1  A    between atoms: C_11  and  C_12
REMARK    2  A    between atoms: C_12  and  N_70
REMARK    3  A    between atoms: N_15  and  C_18
REMARK    4  A    between atoms: N_26  and  C_29
REMARK    5  A    between atoms: C_29  and  C_30
REMARK    6  A    between atoms: C_30  and  O_36
REMARK                            x       y       z     vdW  Elec       q    Type
REMARK                         _______ _______ _______ _____ _____    ______ ____
ROOT
ATOM      1  C   UNL     1       2.192  -3.599  -5.840  0.00  0.00    +0.043 A 
ATOM      2  C   UNL     1       3.425  -3.981  -6.373  0.00  0.00    +0.024 A 
ATOM      3  C   UNL     1       4.558  -3.969  -5.588  0.00  0.00    +0.003 A 
ATOM      4  C   UNL     1       4.492  -3.577  -4.257  0.00  0.00    +0.014 A 
ATOM      5  C   UNL     1       3.280  -3.196  -3.709  0.00  0.00    +0.051 A 
ATOM      6  C   UNL     1       2.114  -3.205  -4.505  0.00  0.00    +0.070 A 
ATOM      7  C   UNL     1       1.021  -2.758  -3.626  0.00  0.00    +0.256 C 
ATOM      8  O   UNL     1      -0.145  -2.640  -3.949  0.00  0.00    -0.269 OA
ATOM      9  N   UNL     1       1.527  -2.499  -2.407  0.00  0.00    -0.231 N 
ATOM     10  C   UNL     1       2.851  -2.735  -2.372  0.00  0.00    +0.254 C 
ATOM     11  O   UNL     1       3.572  -2.594  -1.405  0.00  0.00    -0.270 OA
ENDROOT
BRANCH   1  14
ATOM     12  C   UNL     1      -0.098  -2.693  -8.588  0.00  0.00    -0.059 C 
ATOM     13  C   UNL     1       1.205  -2.712  -7.784  0.00  0.00    +0.086 C 
ATOM     14  N   UNL     1       1.054  -3.611  -6.632  0.00  0.00    -0.333 N 
ATOM     15  C   UNL     1       0.733  -4.976  -7.072  0.00  0.00    +0.086 C 
ATOM     16  C   UNL     1      -0.570  -4.957  -7.875  0.00  0.00    -0.059 C 
ATOM     17  N   UNL     1      -0.397  -4.067  -9.042  0.00  0.00    +0.385 N 
ATOM     18  H   UNL     1       0.387  -4.410  -9.610  0.00  0.00    -0.081 HD
BRANCH  17  19
ATOM     19  C   UNL     1      -1.625  -4.071  -9.867  0.00  0.00    -0.024 C 
BRANCH  19  30
ATOM     20  C   UNL     1       0.731  -6.635 -13.890  0.00  0.00    +0.005 A 
ATOM     21  C   UNL     1       1.274  -5.358 -13.859  0.00  0.00    +0.020 A 
ATOM     22  C   UNL     1       0.841  -4.462 -12.901  0.00  0.00    +0.113 A 
ATOM     23  N   UNL     1      -0.083  -4.804 -12.024  0.00  0.00    -0.238 NA
ATOM     24  C   UNL     1      -0.621  -6.013 -12.018  0.00  0.00    +0.138 A 
ATOM     25  C   UNL     1      -0.233  -6.965 -12.952  0.00  0.00    +0.047 A 
ATOM     26  N   UNL     1      -1.592  -6.333 -11.065  0.00  0.00    -0.307 N 
ATOM     27  C   UNL     1      -2.230  -7.536 -10.951  0.00  0.00    +0.093 A 
ATOM     28  C   UNL     1      -3.093  -7.458  -9.918  0.00  0.00    +0.020 A 
ATOM     29  C   UNL     1      -2.983  -6.164  -9.371  0.00  0.00    +0.021 A 
ATOM     30  C   UNL     1      -2.063  -5.495 -10.094  0.00  0.00    +0.009 A 
ENDBRANCH  19  30
ENDBRANCH  17  19
ENDBRANCH   1  14
BRANCH   9  31
ATOM     31  C   UNL     1       0.739  -2.027  -1.265  0.00  0.00    +0.151 C 
BRANCH  31  32
ATOM     32  C   UNL     1       0.718  -0.497  -1.257  0.00  0.00    +0.082 C 
ATOM     33  C   UNL     1       0.002  -0.004   0.002  0.00  0.00    +0.036 C 
ATOM     34  C   UNL     1      -0.019   1.526   0.010  0.00  0.00    +0.003 C 
ATOM     35  C   UNL     1       1.417   2.055  -0.000  0.00  0.00    +0.000 C 
ATOM     36  C   UNL     1       2.133   1.562  -1.259  0.00  0.00    +0.003 C 
ATOM     37  C   UNL     1       2.154   0.032  -1.268  0.00  0.00    +0.036 C 
BRANCH  32  38
ATOM     38  O   UNL     1       0.027  -0.024  -2.414  0.00  0.00    -0.387 OA
ATOM     39  H   UNL     1       0.426  -0.299  -3.251  0.00  0.00    +0.210 HD
ENDBRANCH  32  38
ENDBRANCH  31  32
ENDBRANCH   9  31
TORSDOF 6
