REMARK  Name = ZINC03356814
REMARK  9 active torsions:
REMARK  status: ('A' for Active; 'I' for Inactive)
REMARK    1  A    between atoms: C_1  and  C_2
REMARK    2  A    between atoms: C_4  and  C_29
REMARK    3  A    between atoms: C_8  and  C_12
REMARK    4  A    between atoms: C_8  and  O_28
REMARK    5  A    between atoms: C_13  and  C_18
REMARK    6  A    between atoms: C_20  and  O_26
REMARK    7  A    between atoms: C_23  and  O_24
REMARK    8  A    between atoms: O_24  and  C_25
REMARK    9  A    between atoms: O_26  and  C_27
REMARK                            x       y       z     vdW  Elec       q    Type
REMARK                         _______ _______ _______ _____ _____    ______ ____
ROOT
ATOM      1  C   UNL     1      -2.016  -1.721   1.228  0.00  0.00    +0.064 A 
ATOM      2  C   UNL     1      -2.580  -2.962   1.323  0.00  0.00    +0.091 A 
ATOM      3  N   UNL     1      -3.117  -3.347   2.478  0.00  0.00    -0.225 NA
ATOM      4  C   UNL     1      -3.123  -2.547   3.528  0.00  0.00    +0.156 A 
ATOM      5  S   UNL     1      -2.297  -1.100   2.881  0.00  0.00    -0.053 S 
ATOM      6  N   UNL     1      -3.635  -2.769   4.796  0.00  0.00    -0.337 N 
ATOM      7  H   UNL     1      -3.566  -2.080   5.475  0.00  0.00    +0.144 HD
ATOM      8  H   UNL     1      -4.062  -3.615   5.005  0.00  0.00    +0.144 HD
ENDROOT
BRANCH   1  16
ATOM      9  C   UNL     1      -2.322   3.878   1.160  0.00  0.00    +0.044 C 
ATOM     10  C   UNL     1      -1.409   2.720   0.852  0.00  0.00    -0.050 A 
ATOM     11  C   UNL     1      -0.040   2.913   0.796  0.00  0.00    +0.008 A 
ATOM     12  C   UNL     1       0.802   1.857   0.515  0.00  0.00    -0.029 A 
ATOM     13  C   UNL     1       0.278   0.586   0.284  0.00  0.00    +0.043 A 
ATOM     14  C   UNL     1      -1.098   0.406   0.343  0.00  0.00    +0.020 A 
ATOM     15  C   UNL     1      -1.936   1.461   0.624  0.00  0.00    +0.012 A 
ATOM     16  C   UNL     1      -1.348  -1.056   0.052  0.00  0.00    +0.202 C 
ATOM     17  C   UNL     1       0.036  -1.630  -0.165  0.00  0.00    +0.259 C 
ATOM     18  O   UNL     1       0.305  -2.784  -0.426  0.00  0.00    -0.272 OA
ATOM     19  N   UNL     1       0.911  -0.621  -0.014  0.00  0.00    -0.282 N 
ATOM     20  C   UNL     1       2.292   2.078   0.458  0.00  0.00    +0.045 C 
ATOM     21  H   UNL     1       1.871  -0.721  -0.102  0.00  0.00    +0.155 HD
BRANCH  16  22
ATOM     22  O   UNL     1      -2.145  -1.204  -1.124  0.00  0.00    -0.371 OA
ATOM     23  H   UNL     1      -2.795  -1.918  -1.072  0.00  0.00    +0.212 HD
ENDBRANCH  16  22
ENDBRANCH   1  16
BRANCH   2  24
ATOM     24  C   UNL     1      -2.589  -3.872   0.152  0.00  0.00    +0.046 A 
ATOM     25  C   UNL     1      -1.858  -3.550  -0.990  0.00  0.00    +0.059 A 
ATOM     26  C   UNL     1      -1.871  -4.403  -2.080  0.00  0.00    +0.121 A 
ATOM     27  C   UNL     1      -2.610  -5.577  -2.037  0.00  0.00    +0.049 A 
ATOM     28  C   UNL     1      -3.337  -5.902  -0.907  0.00  0.00    +0.050 A 
ATOM     29  C   UNL     1      -3.327  -5.058   0.191  0.00  0.00    +0.129 A 
BRANCH  29  30
ATOM     30  O   UNL     1      -4.038  -5.382   1.304  0.00  0.00    -0.494 OA
ATOM     31  C   UNL     1      -4.768  -6.610   1.274  0.00  0.00    +0.277 C 
ENDBRANCH  29  30
BRANCH  26  32
ATOM     32  O   UNL     1      -1.157  -4.090  -3.195  0.00  0.00    -0.495 OA
ATOM     33  C   UNL     1      -1.215  -5.015  -4.282  0.00  0.00    +0.277 C 
ENDBRANCH  26  32
ENDBRANCH   2  24
TORSDOF 5
