REMARK  Name = ZINC08891675
REMARK  7 active torsions:
REMARK  status: ('A' for Active; 'I' for Inactive)
REMARK    1  A    between atoms: C_1  and  C_2
REMARK    2  A    between atoms: C_2  and  C_3
REMARK    3  A    between atoms: C_3  and  C_21
REMARK    4  A    between atoms: N_6  and  C_10
REMARK    5  A    between atoms: C_10  and  C_11
REMARK    6  A    between atoms: N_13  and  C_14
REMARK    7  A    between atoms: C_17  and  C_20
REMARK                            x       y       z     vdW  Elec       q    Type
REMARK                         _______ _______ _______ _____ _____    ______ ____
ROOT
ATOM      1  C   UNL     1       0.747  -0.515   1.242  0.00  0.00    +0.138 C 
ATOM      2  C   UNL     1       2.132   0.095   1.328  0.00  0.00    +0.251 C 
ATOM      3  O   UNL     1       3.037  -0.029   0.532  0.00  0.00    -0.272 OA
ATOM      4  N   UNL     1       2.147   0.804   2.474  0.00  0.00    -0.215 N 
ATOM      5  C   UNL     1       0.977   0.728   3.118  0.00  0.00    +0.310 C 
ATOM      6  O   UNL     1       0.749   1.284   4.174  0.00  0.00    -0.252 OA
ATOM      7  N   UNL     1       0.080  -0.033   2.465  0.00  0.00    -0.281 N 
ATOM      8  H   UNL     1      -0.829  -0.227   2.744  0.00  0.00    +0.152 HD
ENDROOT
BRANCH   1   9
ATOM      9  C   UNL     1       0.825  -2.020   1.239  0.00  0.00    -0.015 A 
ATOM     10  C   UNL     1       0.877  -2.706   0.041  0.00  0.00    +0.009 A 
ATOM     11  C   UNL     1       0.950  -4.086   0.037  0.00  0.00    +0.039 A 
ATOM     12  C   UNL     1       0.970  -4.781   1.234  0.00  0.00    +0.123 A 
ATOM     13  C   UNL     1       0.918  -4.093   2.434  0.00  0.00    +0.039 A 
ATOM     14  C   UNL     1       0.851  -2.712   2.436  0.00  0.00    +0.009 A 
ATOM     15  F   UNL     1       1.041  -6.131   1.231  0.00  0.00    -0.205 F 
ENDBRANCH   1   9
BRANCH   1  17
ATOM     16  C   UNL     1      -0.005   1.517  -0.003  0.00  0.00    +0.007 C 
ATOM     17  C   UNL     1       0.014  -0.013  -0.004  0.00  0.00    +0.037 C 
ENDBRANCH   1  17
BRANCH   4  18
ATOM     18  C   UNL     1       3.304   1.563   2.956  0.00  0.00    +0.214 C 
BRANCH  18  19
ATOM     19  C   UNL     1       3.240   2.970   2.419  0.00  0.00    +0.235 C 
ATOM     20  O   UNL     1       2.320   3.305   1.703  0.00  0.00    -0.274 OA
ATOM     21  N   UNL     1       4.207   3.855   2.733  0.00  0.00    -0.284 N 
ATOM     22  H   UNL     1       4.906   3.609   3.358  0.00  0.00    +0.155 HD
BRANCH  21  23
ATOM     23  C   UNL     1       4.201   5.131   2.157  0.00  0.00    +0.033 A 
ATOM     24  C   UNL     1       5.399   5.757   1.841  0.00  0.00    +0.023 A 
ATOM     25  C   UNL     1       5.390   7.016   1.273  0.00  0.00    +0.005 A 
ATOM     26  C   UNL     1       4.189   7.653   1.019  0.00  0.00    -0.050 A 
ATOM     27  C   UNL     1       2.994   7.032   1.334  0.00  0.00    +0.005 A 
ATOM     28  C   UNL     1       2.996   5.771   1.896  0.00  0.00    +0.023 A 
ATOM     29  C   UNL     1       4.183   9.026   0.399  0.00  0.00    +0.044 C 
ENDBRANCH  21  23
ENDBRANCH  18  19
ENDBRANCH   4  18
TORSDOF 5
