REMARK  Name = ZINC58372266
REMARK  10 active torsions:
REMARK  status: ('A' for Active; 'I' for Inactive)
REMARK    1  A    between atoms: C_1  and  C_2
REMARK    2  A    between atoms: C_2  and  N_3
REMARK    3  A    between atoms: N_3  and  C_4
REMARK    4  A    between atoms: N_3  and  C_6
REMARK    5  A    between atoms: C_4  and  C_5
REMARK    6  A    between atoms: C_6  and  C_8
REMARK    7  A    between atoms: C_6  and  C_25
REMARK    8  A    between atoms: C_8  and  N_9
REMARK    9  A    between atoms: C_10  and  C_12
REMARK   10  A    between atoms: C_12  and  N_13
REMARK                            x       y       z     vdW  Elec       q    Type
REMARK                         _______ _______ _______ _____ _____    ______ ____
ROOT
ATOM      1  N   UNL     1      -1.652  -1.626  -0.680  0.00  0.00    -0.318 N 
ATOM      2  C   UNL     1      -2.983  -1.836  -0.628  0.00  0.00    +0.196 C 
ATOM      3  O   UNL     1      -3.522  -2.516  -1.476  0.00  0.00    -0.278 OA
ATOM      4  H   UNL     1      -1.221  -1.083  -0.002  0.00  0.00    +0.149 HD
ENDROOT
BRANCH   1   5
ATOM      5  C   UNL     1      -0.858  -2.218  -1.759  0.00  0.00    +0.096 C 
BRANCH   5   6
ATOM      6  C   UNL     1       0.576  -1.692  -1.684  0.00  0.00    +0.016 C 
BRANCH   6   7
ATOM      7  C   UNL     1       1.478  -2.571  -2.513  0.00  0.00    +0.093 A 
ATOM      8  C   UNL     1       2.279  -3.543  -2.041  0.00  0.00    +0.043 A 
ATOM      9  C   UNL     1       2.939  -4.107  -3.156  0.00  0.00    +0.041 A 
ATOM     10  C   UNL     1       2.502  -3.446  -4.243  0.00  0.00    +0.195 A 
ATOM     11  O   UNL     1       1.613  -2.521  -3.848  0.00  0.00    -0.469 OA
ENDBRANCH   6   7
BRANCH   6  12
ATOM     12  N   UNL     1       0.622  -0.318  -2.202  0.00  0.00    +0.387 N 
ATOM     13  H   UNL     1       0.429  -0.325  -3.193  0.00  0.00    -0.081 HD
BRANCH  12  15
ATOM     14  C   UNL     1      -0.379   1.914  -2.093  0.00  0.00    -0.017 C 
ATOM     15  C   UNL     1      -0.386   0.499  -1.513  0.00  0.00    -0.081 C 
ENDBRANCH  12  15
BRANCH  12  16
ATOM     16  C   UNL     1       1.956   0.250  -1.968  0.00  0.00    -0.081 C 
ATOM     17  C   UNL     1       2.982  -0.483  -2.836  0.00  0.00    -0.017 C 
ENDBRANCH  12  16
ENDBRANCH   6  12
ENDBRANCH   5   6
ENDBRANCH   1   5
BRANCH   2  18
ATOM     18  C   UNL     1      -3.799  -1.228   0.482  0.00  0.00    +0.019 C 
BRANCH  18  19
ATOM     19  N   UNL     1      -5.210  -1.602   0.315  0.00  0.00    +0.387 N 
ATOM     20  C   UNL     1      -5.350  -3.055   0.470  0.00  0.00    -0.078 C 
ATOM     21  C   UNL     1      -6.804  -3.461   0.217  0.00  0.00    -0.018 C 
ATOM     22  C   UNL     1      -7.710  -2.749   1.225  0.00  0.00    +0.000 C 
ATOM     23  C   UNL     1      -7.500  -1.237   1.105  0.00  0.00    -0.025 C 
ATOM     24  C   UNL     1      -6.021  -0.913   1.325  0.00  0.00    -0.065 C 
ATOM     25  C   UNL     1      -5.807   0.598   1.210  0.00  0.00    -0.015 C 
ATOM     26  C   UNL     1      -6.650   1.314   2.267  0.00  0.00    -0.002 C 
ATOM     27  C   UNL     1      -8.129   0.990   2.047  0.00  0.00    +0.000 C 
ATOM     28  C   UNL     1      -8.345  -0.520   2.160  0.00  0.00    +0.002 C 
ATOM     29  H   UNL     1      -5.521  -1.333  -0.606  0.00  0.00    -0.081 HD
ENDBRANCH  18  19
ENDBRANCH   2  18
TORSDOF 8
