REMARK  Name = ZINC15724981
REMARK  7 active torsions:
REMARK  status: ('A' for Active; 'I' for Inactive)
REMARK    1  A    between atoms: C_1  and  C_2
REMARK    2  A    between atoms: C_5  and  N_8
REMARK    3  A    between atoms: C_9  and  C_11
REMARK    4  A    between atoms: C_11  and  N_12
REMARK    5  A    between atoms: N_12  and  C_13
REMARK    6  A    between atoms: C_14  and  C_16
REMARK    7  A    between atoms: C_17  and  C_31
REMARK                            x       y       z     vdW  Elec       q    Type
REMARK                         _______ _______ _______ _____ _____    ______ ____
ROOT
ATOM      1  N   UNL     1      -0.919  -2.264  -0.090  0.00  0.00    -0.291 N 
ATOM      2  C   UNL     1       0.455  -2.771  -0.095  0.00  0.00    +0.133 C 
ATOM      3  C   UNL     1      -1.163  -0.982   0.247  0.00  0.00    +0.254 C 
ATOM      4  O   UNL     1      -2.307  -0.569   0.282  0.00  0.00    -0.269 OA
ENDROOT
BRANCH   3   5
ATOM      5  C   UNL     1      -0.049  -0.085   0.572  0.00  0.00    +0.080 A 
ATOM      6  C   UNL     1      -0.075   1.263   0.783  0.00  0.00    -0.017 A 
ATOM      7  C   UNL     1       1.108   1.942   1.084  0.00  0.00    +0.076 A 
ATOM      8  C   UNL     1       2.276   1.148   1.145  0.00  0.00    +0.116 A 
ATOM      9  S   UNL     1       1.677  -0.485   0.789  0.00  0.00    -0.064 S 
ATOM     10  N   UNL     1       3.465   1.670   1.417  0.00  0.00    -0.226 NA
ATOM     11  C   UNL     1       3.620   2.945   1.637  0.00  0.00    +0.114 A 
ATOM     12  N   UNL     1       2.565   3.810   1.611  0.00  0.00    -0.296 N 
ATOM     13  C   UNL     1       1.317   3.383   1.352  0.00  0.00    +0.263 A 
ATOM     14  O   UNL     1       0.381   4.163   1.338  0.00  0.00    -0.267 OA
ATOM     15  C   UNL     1       2.827   5.232   1.871  0.00  0.00    +0.126 C 
ATOM     16  C   UNL     1       3.511   5.847   0.653  0.00  0.00    +0.022 C 
ATOM     17  C   UNL     1       5.022   5.726   0.753  0.00  0.00    +0.002 C 
ATOM     18  C   UNL     1       5.485   4.280   0.709  0.00  0.00    +0.008 C 
ATOM     19  C   UNL     1       4.992   3.507   1.931  0.00  0.00    +0.074 C 
ATOM     20  C   UNL     1      -1.375   2.018   0.685  0.00  0.00    +0.046 C 
ENDBRANCH   3   5
BRANCH   1  21
ATOM     21  C   UNL     1      -2.029  -3.149  -0.452  0.00  0.00    +0.203 C 
BRANCH  21  23
ATOM     22  N   UNL     1      -3.252  -3.803  -2.500  0.00  0.00    -0.284 N 
ATOM     23  C   UNL     1      -2.272  -3.069  -1.937  0.00  0.00    +0.235 C 
ATOM     24  O   UNL     1      -1.587  -2.343  -2.625  0.00  0.00    -0.274 OA
ATOM     25  H   UNL     1      -3.756  -4.433  -1.961  0.00  0.00    +0.155 HD
BRANCH  22  30
ATOM     26  C   UNL     1      -4.427  -3.212  -8.018  0.00  0.00    +0.044 C 
ATOM     27  C   UNL     1      -4.115  -3.369  -6.552  0.00  0.00    -0.050 A 
ATOM     28  C   UNL     1      -2.809  -3.261  -6.109  0.00  0.00    +0.005 A 
ATOM     29  C   UNL     1      -2.520  -3.405  -4.767  0.00  0.00    +0.023 A 
ATOM     30  C   UNL     1      -3.542  -3.658  -3.861  0.00  0.00    +0.033 A 
ATOM     31  C   UNL     1      -4.851  -3.771  -4.309  0.00  0.00    +0.023 A 
ATOM     32  C   UNL     1      -5.135  -3.620  -5.653  0.00  0.00    +0.005 A 
ENDBRANCH  22  30
ENDBRANCH  21  23
ENDBRANCH   1  21
TORSDOF 4
