REMARK  Name = ZINC03339596
REMARK  6 active torsions:
REMARK  status: ('A' for Active; 'I' for Inactive)
REMARK    1  A    between atoms: C_1  and  C_2
REMARK    2  A    between atoms: C_11  and  N_15
REMARK    3  A    between atoms: N_15  and  C_16
REMARK    4  A    between atoms: C_16  and  C_17
REMARK    5  A    between atoms: C_17  and  C_19
REMARK    6  A    between atoms: C_17  and  O_25
REMARK                            x       y       z     vdW  Elec       q    Type
REMARK                         _______ _______ _______ _____ _____    ______ ____
ROOT
ATOM      1  C   UNL     1      -5.161   5.489   4.398  0.00  0.00    +0.008 C 
ATOM      2  C   UNL     1      -3.840   4.767   4.126  0.00  0.00    -0.009 C 
ATOM      3  C   UNL     1      -4.024   3.776   2.973  0.00  0.00    +0.008 C 
ATOM      4  C   UNL     1      -2.663   3.237   2.529  0.00  0.00    +0.037 C 
ATOM      5  C   UNL     1      -1.926   2.696   3.751  0.00  0.00    -0.025 A 
ATOM      6  C   UNL     1      -2.295   3.061   4.996  0.00  0.00    -0.004 A 
ATOM      7  S   UNL     1      -1.191   2.193   6.079  0.00  0.00    -0.073 S 
ATOM      8  C   UNL     1      -0.223   1.351   4.854  0.00  0.00    +0.114 A 
ATOM      9  C   UNL     1      -0.800   1.768   3.637  0.00  0.00    +0.051 A 
ATOM     10  C   UNL     1      -0.209   1.224   2.463  0.00  0.00    +0.131 A 
ATOM     11  N   UNL     1       0.818   0.398   2.583  0.00  0.00    -0.220 NA
ATOM     12  C   UNL     1       1.312   0.055   3.759  0.00  0.00    +0.224 A 
ATOM     13  N   UNL     1       0.802   0.522   4.882  0.00  0.00    -0.228 NA
ATOM     14  C   UNL     1      -3.406   3.990   5.377  0.00  0.00    +0.046 C 
ENDROOT
BRANCH  10  15
ATOM     15  N   UNL     1      -0.698   1.558   1.213  0.00  0.00    -0.326 N 
ATOM     16  H   UNL     1      -1.393   2.230   1.128  0.00  0.00    +0.148 HD
BRANCH  15  17
ATOM     17  C   UNL     1      -0.167   0.898   0.018  0.00  0.00    +0.139 C 
BRANCH  17  18
ATOM     18  C   UNL     1      -0.873   1.447  -1.224  0.00  0.00    +0.161 C 
BRANCH  18  19
ATOM     19  C   UNL     1      -0.326   0.768  -2.453  0.00  0.00    -0.018 A 
ATOM     20  C   UNL     1      -0.839  -0.451  -2.856  0.00  0.00    +0.006 A 
ATOM     21  C   UNL     1      -0.340  -1.071  -3.986  0.00  0.00    +0.000 A 
ATOM     22  C   UNL     1       0.678  -0.477  -4.708  0.00  0.00    +0.000 A 
ATOM     23  C   UNL     1       1.194   0.739  -4.303  0.00  0.00    +0.000 A 
ATOM     24  C   UNL     1       0.692   1.362  -3.175  0.00  0.00    +0.006 A 
ENDBRANCH  18  19
BRANCH  18  25
ATOM     25  O   UNL     1      -2.276   1.194  -1.124  0.00  0.00    -0.386 OA
ATOM     26  H   UNL     1      -2.503   0.256  -1.058  0.00  0.00    +0.210 HD
ENDBRANCH  18  25
ENDBRANCH  17  18
ENDBRANCH  15  17
ENDBRANCH  10  15
TORSDOF 5
