REMARK  Name = ZINC38999178
REMARK  6 active torsions:
REMARK  status: ('A' for Active; 'I' for Inactive)
REMARK    1  A    between atoms: C_6  and  C_7
REMARK    2  A    between atoms: C_7  and  S_8
REMARK    3  A    between atoms: S_8  and  C_9
REMARK    4  A    between atoms: C_14  and  C_16
REMARK    5  A    between atoms: C_18  and  N_34
REMARK    6  A    between atoms: C_23  and  C_28
REMARK                            x       y       z     vdW  Elec       q    Type
REMARK                         _______ _______ _______ _____ _____    ______ ____
ROOT
ATOM      1  C   UNL     1      -8.904  -4.981  -1.182  0.00  0.00    +0.155 C 
ATOM      2  C   UNL     1      -9.815  -5.093   0.063  0.00  0.00    +0.102 C 
ATOM      3  C   UNL     1     -10.243  -6.490   0.391  0.00  0.00    -0.021 C 
ATOM      4  C   UNL     1     -10.903  -6.877   1.497  0.00  0.00    +0.005 C 
ATOM      5  C   UNL     1     -11.133  -8.311   1.700  0.00  0.00    +0.023 C 
ATOM      6  C   UNL     1     -10.434  -9.218   0.971  0.00  0.00    +0.035 C 
ATOM      7  N   UNL     1      -9.511  -8.758   0.021  0.00  0.00    -0.328 N 
ATOM      8  C   UNL     1      -9.855  -7.517  -0.678  0.00  0.00    +0.157 C 
ATOM      9  S   UNL     1      -8.339  -6.732  -1.368  0.00  0.00    -0.119 S 
ATOM     10  H   UNL     1      -8.688  -9.236  -0.164  0.00  0.00    +0.147 HD
ENDROOT
BRANCH   1  16
ATOM     11  C   UNL     1      -3.308  -2.364   0.485  0.00  0.00    +0.160 A 
ATOM     12  N   UNL     1      -4.351  -1.767  -0.074  0.00  0.00    -0.133 NA
ATOM     13  N   UNL     1      -5.406  -2.396  -0.358  0.00  0.00    -0.125 NA
ATOM     14  C   UNL     1      -5.538  -3.690  -0.115  0.00  0.00    +0.189 A 
ATOM     15  N   UNL     1      -6.614  -4.541  -0.356  0.00  0.00    -0.262 N 
ATOM     16  C   UNL     1      -7.739  -4.061  -0.921  0.00  0.00    +0.234 C 
ATOM     17  O   UNL     1      -7.815  -2.888  -1.220  0.00  0.00    -0.274 OA
ATOM     18  S   UNL     1      -3.936  -4.036   0.605  0.00  0.00    -0.024 S 
ATOM     19  H   UNL     1      -6.554  -5.479  -0.117  0.00  0.00    +0.157 HD
BRANCH  11  20
ATOM     20  S   UNL     1      -1.747  -1.702   0.965  0.00  0.00    -0.092 S 
BRANCH  20  21
ATOM     21  C   UNL     1      -1.862   0.055   0.528  0.00  0.00    +0.111 C 
BRANCH  21  27
ATOM     22  C   UNL     1       0.454   0.823  -0.029  0.00  0.00    +0.006 A 
ATOM     23  C   UNL     1       1.635   1.459   0.304  0.00  0.00    +0.020 A 
ATOM     24  C   UNL     1       1.788   2.021   1.559  0.00  0.00    +0.041 A 
ATOM     25  C   UNL     1       0.759   1.945   2.480  0.00  0.00    +0.020 A 
ATOM     26  C   UNL     1      -0.422   1.308   2.146  0.00  0.00    +0.006 A 
ATOM     27  C   UNL     1      -0.574   0.748   0.892  0.00  0.00    -0.037 A 
ATOM     28 CL   UNL     1       3.272   2.819   1.978  0.00  0.00    -0.084 Cl
ENDBRANCH  21  27
ENDBRANCH  20  21
ENDBRANCH  11  20
ENDBRANCH   1  16
BRANCH   6  29
ATOM     29  C   UNL     1     -10.642 -10.666   1.176  0.00  0.00    -0.001 A 
ATOM     30  C   UNL     1      -9.921 -11.609   0.433  0.00  0.00    +0.027 A 
ATOM     31  C   UNL     1     -10.146 -12.951   0.657  0.00  0.00    +0.083 A 
ATOM     32  N   UNL     1     -11.027 -13.349   1.556  0.00  0.00    -0.367 N 
ATOM     33  C   UNL     1     -11.727 -12.495   2.277  0.00  0.00    +0.083 A 
ATOM     34  C   UNL     1     -11.561 -11.135   2.123  0.00  0.00    +0.027 A 
ATOM     35  H   UNL     1     -11.163 -14.300   1.691  0.00  0.00    +0.165 HD
ENDBRANCH   6  29
BRANCH   2  36
ATOM     36  N   UNL     1      -9.094  -4.546   1.220  0.00  0.00    -0.323 NA
ATOM     37  H   UNL     1      -9.690  -4.508   2.033  0.00  0.00    +0.119 HD
ATOM     38  H   UNL     1      -8.258  -5.079   1.409  0.00  0.00    +0.119 HD
ENDBRANCH   2  36
TORSDOF 6
