REMARK  Name = ZINC20356293
REMARK  8 active torsions:
REMARK  status: ('A' for Active; 'I' for Inactive)
REMARK    1  A    between atoms: C_1  and  O_2
REMARK    2  A    between atoms: O_2  and  C_3
REMARK    3  A    between atoms: C_6  and  O_9
REMARK    4  A    between atoms: O_9  and  C_10
REMARK    5  A    between atoms: C_10  and  C_11
REMARK    6  A    between atoms: C_11  and  O_12
REMARK    7  A    between atoms: O_12  and  C_13
REMARK    8  A    between atoms: C_16  and  C_19
REMARK                            x       y       z     vdW  Elec       q    Type
REMARK                         _______ _______ _______ _____ _____    ______ ____
ROOT
ATOM      1  C   UNL     1      -8.322  -4.530  -1.546  0.00  0.00    +0.121 A 
ATOM      2  C   UNL     1      -8.847  -5.457  -0.652  0.00  0.00    +0.046 A 
ATOM      3  C   UNL     1     -10.162  -5.817  -0.730  0.00  0.00    +0.011 A 
ATOM      4  C   UNL     1     -10.984  -5.250  -1.714  0.00  0.00    -0.024 A 
ATOM      5  C   UNL     1     -10.449  -4.315  -2.613  0.00  0.00    +0.011 A 
ATOM      6  C   UNL     1      -9.134  -3.959  -2.522  0.00  0.00    +0.046 A 
ENDROOT
BRANCH   4   7
ATOM      7  C   UNL     1     -12.395  -5.632  -1.804  0.00  0.00    +0.024 C 
ATOM      8  C   UNL     1     -13.095  -5.952  -0.663  0.00  0.00    +0.081 C 
ATOM      9  C   UNL     1     -12.518  -5.748   0.696  0.00  0.00    +0.153 C 
ATOM     10  N   UNL     1     -11.698  -4.773   0.989  0.00  0.00    -0.283 NA
ATOM     11  N   UNL     1     -12.942  -6.711   1.635  0.00  0.00    -0.150 N 
ATOM     12  C   UNL     1     -14.130  -7.361   1.386  0.00  0.00    +0.182 C 
ATOM     13  N   UNL     1     -14.885  -7.267   0.320  0.00  0.00    -0.152 NA
ATOM     14  C   UNL     1     -14.469  -6.512  -0.719  0.00  0.00    +0.273 C 
ATOM     15  O   UNL     1     -15.196  -6.299  -1.676  0.00  0.00    -0.268 OA
ATOM     16  S   UNL     1     -14.332  -8.344   2.849  0.00  0.00    -0.018 S 
ATOM     17  C   UNL     1     -12.791  -7.907   3.641  0.00  0.00    +0.182 C 
ATOM     18  N   UNL     1     -12.276  -7.054   2.792  0.00  0.00    -0.149 NA
ATOM     19  N   UNL     1     -12.274  -8.357   4.845  0.00  0.00    -0.308 N 
ATOM     20  C   UNL     1     -10.993  -7.942   5.436  0.00  0.00    +0.107 C 
ATOM     21  C   UNL     1     -10.825  -8.719   6.758  0.00  0.00    +0.020 C 
ATOM     22  C   UNL     1     -11.752  -9.947   6.560  0.00  0.00    +0.020 C 
ATOM     23  C   UNL     1     -12.919  -9.326   5.749  0.00  0.00    +0.107 C 
ATOM     24  H   UNL     1     -11.351  -4.685   1.891  0.00  0.00    +0.188 HD
ENDBRANCH   4   7
BRANCH   1  25
ATOM     25  O   UNL     1      -7.015  -4.176  -1.464  0.00  0.00    -0.489 OA
BRANCH  25  26
ATOM     26  C   UNL     1      -6.237  -4.799  -0.440  0.00  0.00    +0.270 C 
BRANCH  26  27
ATOM     27  C   UNL     1      -4.800  -4.279  -0.502  0.00  0.00    +0.270 C 
BRANCH  27  28
ATOM     28  O   UNL     1      -4.784  -2.884  -0.192  0.00  0.00    -0.489 OA
BRANCH  28  32
ATOM     29  C   UNL     1      -1.112  -0.998  -0.225  0.00  0.00    +0.120 A 
ATOM     30  C   UNL     1      -2.259  -0.279   0.077  0.00  0.00    +0.049 A 
ATOM     31  C   UNL     1      -3.488  -0.910   0.088  0.00  0.00    +0.049 A 
ATOM     32  C   UNL     1      -3.575  -2.263  -0.204  0.00  0.00    +0.121 A 
ATOM     33  C   UNL     1      -2.428  -2.982  -0.507  0.00  0.00    +0.049 A 
ATOM     34  C   UNL     1      -1.200  -2.350  -0.522  0.00  0.00    +0.049 A 
BRANCH  29  36
ATOM     35  C   UNL     1       0.114   1.017   0.079  0.00  0.00    +0.277 C 
ATOM     36  O   UNL     1       0.097  -0.377  -0.236  0.00  0.00    -0.495 OA
ENDBRANCH  29  36
ENDBRANCH  28  32
ENDBRANCH  27  28
ENDBRANCH  26  27
ENDBRANCH  25  26
ENDBRANCH   1  25
TORSDOF 7
