REMARK  Name = ZINC12075173
REMARK  7 active torsions:
REMARK  status: ('A' for Active; 'I' for Inactive)
REMARK    1  A    between atoms: C_4  and  C_7
REMARK    2  A    between atoms: C_9  and  C_12
REMARK    3  A    between atoms: C_12  and  N_13
REMARK    4  A    between atoms: C_14  and  C_16
REMARK    5  A    between atoms: C_16  and  C_17
REMARK    6  A    between atoms: C_24  and  C_25
REMARK    7  A    between atoms: C_24  and  N_53
REMARK                            x       y       z     vdW  Elec       q    Type
REMARK                         _______ _______ _______ _____ _____    ______ ____
ROOT
ATOM      1  C   UNL     1      -0.925   1.756   3.661  0.00  0.00    +0.089 C 
ENDROOT
BRANCH   1   2
ATOM      2  C   UNL     1      -0.089   1.240   4.834  0.00  0.00    +0.028 C 
ATOM      3  C   UNL     1      -0.818   1.506   6.121  0.00  0.00    +0.200 C 
ATOM      4  O   UNL     1      -2.012   1.295   6.167  0.00  0.00    -0.278 OA
ATOM      5  N   UNL     1      -0.206   1.965   7.218  0.00  0.00    -0.318 N 
ATOM      6  C   UNL     1       1.218   2.285   7.257  0.00  0.00    +0.085 C 
ATOM      7  C   UNL     1       1.938   1.614   6.086  0.00  0.00    -0.058 C 
ATOM      8  H   UNL     1      -0.732   2.092   8.023  0.00  0.00    +0.149 HD
ATOM      9  N   UNL     1       1.206   1.946   4.848  0.00  0.00    +0.391 N 
ATOM     10  H   UNL     1       1.036   2.959   4.819  0.00  0.00    -0.080 HD
BRANCH   9  11
ATOM     11  C   UNL     1       2.006   1.559   3.664  0.00  0.00    -0.039 C 
BRANCH  11  12
ATOM     12  C   UNL     1       3.436   1.987   3.870  0.00  0.00    -0.029 A 
ATOM     13  C   UNL     1       3.901   3.151   3.285  0.00  0.00    +0.004 A 
ATOM     14  C   UNL     1       5.211   3.547   3.479  0.00  0.00    +0.000 A 
ATOM     15  C   UNL     1       6.061   2.774   4.247  0.00  0.00    +0.003 A 
ATOM     16  C   UNL     1       5.601   1.607   4.828  0.00  0.00    +0.038 A 
ATOM     17  C   UNL     1       4.287   1.212   4.639  0.00  0.00    +0.125 A 
ATOM     18  F   UNL     1       3.836   0.072   5.206  0.00  0.00    -0.205 F 
ENDBRANCH  11  12
ENDBRANCH   9  11
ENDBRANCH   1   2
BRANCH   1  20
ATOM     19  N   UNL     1      -1.700   3.939   2.795  0.00  0.00    -0.307 N 
ATOM     20  C   UNL     1      -1.084   3.250   3.776  0.00  0.00    +0.212 C 
ATOM     21  O   UNL     1      -0.659   3.832   4.751  0.00  0.00    -0.276 OA
ATOM     22  H   UNL     1      -2.040   3.474   2.015  0.00  0.00    +0.149 HD
BRANCH  19  23
ATOM     23  C   UNL     1      -1.855   5.392   2.907  0.00  0.00    +0.203 C 
BRANCH  23  26
ATOM     24  C   UNL     1      -4.042   6.552   0.301  0.00  0.00    +0.202 A 
ATOM     25  N   UNL     1      -3.865   6.046   1.543  0.00  0.00    -0.190 NA
ATOM     26  C   UNL     1      -2.570   5.916   1.688  0.00  0.00    +0.245 A 
ATOM     27  O   UNL     1      -2.003   6.330   0.551  0.00  0.00    -0.336 OA
ATOM     28  N   UNL     1      -2.856   6.691  -0.232  0.00  0.00    -0.056 NA
BRANCH  24  32
ATOM     29  C   UNL     1      -7.760   7.500  -1.532  0.00  0.00    +0.000 A 
ATOM     30  C   UNL     1      -6.580   7.703  -2.223  0.00  0.00    +0.001 A 
ATOM     31  C   UNL     1      -5.370   7.397  -1.633  0.00  0.00    +0.012 A 
ATOM     32  C   UNL     1      -5.340   6.883  -0.338  0.00  0.00    +0.022 A 
ATOM     33  C   UNL     1      -6.532   6.676   0.352  0.00  0.00    +0.012 A 
ATOM     34  C   UNL     1      -7.736   6.991  -0.246  0.00  0.00    +0.001 A 
ENDBRANCH  24  32
ENDBRANCH  23  26
ENDBRANCH  19  23
ENDBRANCH   1  20
TORSDOF 7
