REMARK  Name = ZINC63608936
REMARK  6 active torsions:
REMARK  status: ('A' for Active; 'I' for Inactive)
REMARK    1  A    between atoms: C_8  and  C_30
REMARK    2  A    between atoms: N_10  and  C_16
REMARK    3  A    between atoms: C_16  and  N_18
REMARK    4  A    between atoms: N_18  and  C_19
REMARK    5  A    between atoms: C_22  and  O_25
REMARK    6  A    between atoms: O_25  and  C_26
REMARK                            x       y       z     vdW  Elec       q    Type
REMARK                         _______ _______ _______ _____ _____    ______ ____
ROOT
ATOM      1  C   UNL     1      -0.036   1.351  -0.067  0.00  0.00    +0.001 A 
ATOM      2  C   UNL     1       1.145   2.106  -0.069  0.00  0.00    +0.002 A 
ATOM      3  C   UNL     1       2.370   1.540  -0.066  0.00  0.00    +0.026 A 
ATOM      4  C   UNL     1       2.511   0.126  -0.060  0.00  0.00    +0.043 A 
ATOM      5  N   UNL     1       3.575  -0.645  -0.077  0.00  0.00    -0.375 N 
ATOM      6  C   UNL     1       3.140  -2.037   0.015  0.00  0.00    +0.135 C 
ATOM      7  C   UNL     1       3.647  -2.874  -1.165  0.00  0.00    +0.206 C 
ATOM      8  N   UNL     1       2.854  -4.112  -1.214  0.00  0.00    -0.299 N 
ATOM      9  C   UNL     1       1.399  -4.060  -1.388  0.00  0.00    +0.112 C 
ATOM     10  C   UNL     1       0.779  -3.234  -0.246  0.00  0.00    +0.052 C 
ATOM     11  C   UNL     1       1.624  -1.992  -0.071  0.00  0.00    -0.035 C 
ATOM     12  C   UNL     1       1.277  -0.697  -0.065  0.00  0.00    -0.001 A 
ATOM     13  C   UNL     1      -0.016  -0.001  -0.065  0.00  0.00    +0.010 A 
ATOM     14  H   UNL     1       4.494  -0.342  -0.140  0.00  0.00    +0.160 HD
ENDROOT
BRANCH   7  15
ATOM     15  C   UNL     1       3.470  -2.092  -2.468  0.00  0.00    +0.410 C 
ATOM     16  F   UNL     1       4.199  -0.900  -2.399  0.00  0.00    -0.169 F 
ATOM     17  F   UNL     1       3.935  -2.861  -3.540  0.00  0.00    -0.169 F 
ATOM     18  F   UNL     1       2.115  -1.800  -2.656  0.00  0.00    -0.169 F 
ENDBRANCH   7  15
BRANCH   8  19
ATOM     19  C   UNL     1       3.471  -5.305  -1.098  0.00  0.00    +0.138 C 
ATOM     20  S   UNL     1       5.180  -5.382  -1.023  0.00  0.00    -0.018 S 
BRANCH  19  21
ATOM     21  N   UNL     1       2.743  -6.438  -1.042  0.00  0.00    -0.297 N 
ATOM     22  H   UNL     1       2.578  -6.867  -0.188  0.00  0.00    +0.154 HD
BRANCH  21  23
ATOM     23  C   UNL     1       2.223  -6.995  -2.218  0.00  0.00    +0.033 A 
ATOM     24  C   UNL     1       2.549  -6.445  -3.451  0.00  0.00    +0.027 A 
ATOM     25  C   UNL     1       2.037  -6.996  -4.609  0.00  0.00    +0.048 A 
ATOM     26  C   UNL     1       1.196  -8.097  -4.541  0.00  0.00    +0.130 A 
ATOM     27  C   UNL     1       0.869  -8.646  -3.310  0.00  0.00    +0.048 A 
ATOM     28  C   UNL     1       1.386  -8.101  -2.151  0.00  0.00    +0.027 A 
BRANCH  26  29
ATOM     29  O   UNL     1       0.692  -8.638  -5.682  0.00  0.00    -0.406 OA
BRANCH  29  30
ATOM     30  C   UNL     1      -0.167  -9.771  -5.538  0.00  0.00    +0.575 C 
ATOM     31  F   UNL     1      -1.279  -9.418  -4.766  0.00  0.00    -0.133 F 
ATOM     32  F   UNL     1      -0.593 -10.197  -6.801  0.00  0.00    -0.133 F 
ATOM     33  F   UNL     1       0.529 -10.807  -4.907  0.00  0.00    -0.133 F 
ENDBRANCH  29  30
ENDBRANCH  26  29
ENDBRANCH  21  23
ENDBRANCH  19  21
ENDBRANCH   8  19
TORSDOF 6
