REMARK  Name = ZINC09562927
REMARK  7 active torsions:
REMARK  status: ('A' for Active; 'I' for Inactive)
REMARK    1  A    between atoms: C_4  and  N_7
REMARK    2  A    between atoms: N_7  and  C_8
REMARK    3  A    between atoms: C_8  and  C_9
REMARK    4  A    between atoms: N_11  and  N_12
REMARK    5  A    between atoms: C_13  and  C_14
REMARK    6  A    between atoms: N_16  and  C_28
REMARK    7  A    between atoms: C_18  and  C_19
REMARK                            x       y       z     vdW  Elec       q    Type
REMARK                         _______ _______ _______ _____ _____    ______ ____
ROOT
ATOM      1  C   UNL     1      -2.385  -6.797  -0.012  0.00  0.00    +0.043 A 
ATOM      2  C   UNL     1      -3.300  -7.813  -0.009  0.00  0.00    +0.124 A 
ATOM      3  N   UNL     1      -2.627  -8.982  -0.022  0.00  0.00    -0.239 N 
ATOM      4  N   UNL     1      -1.252  -8.729  -0.034  0.00  0.00    -0.163 NA
ATOM      5  C   UNL     1      -1.060  -7.425  -0.034  0.00  0.00    +0.137 A 
ENDROOT
BRANCH   5   6
ATOM      6  C   UNL     1       0.242  -6.729  -0.049  0.00  0.00    +0.157 A 
ATOM      7  C   UNL     1       1.366  -7.167   0.569  0.00  0.00    +0.060 A 
ATOM      8  C   UNL     1       2.399  -6.168   0.286  0.00  0.00    +0.021 A 
ATOM      9  C   UNL     1       3.746  -6.037   0.628  0.00  0.00    +0.011 A 
ATOM     10  C   UNL     1       4.454  -4.953   0.189  0.00  0.00    +0.001 A 
ATOM     11  C   UNL     1       3.842  -3.983  -0.592  0.00  0.00    +0.004 A 
ATOM     12  C   UNL     1       2.513  -4.095  -0.940  0.00  0.00    +0.047 A 
ATOM     13  C   UNL     1       1.774  -5.188  -0.506  0.00  0.00    +0.136 A 
ATOM     14  O   UNL     1       0.492  -5.567  -0.684  0.00  0.00    -0.453 OA
ENDBRANCH   5   6
BRANCH   3  15
ATOM     15  C   UNL     1      -3.215 -10.253  -0.023  0.00  0.00    +0.065 A 
ATOM     16  C   UNL     1      -4.598 -10.380  -0.004  0.00  0.00    +0.028 A 
ATOM     17  C   UNL     1      -5.175 -11.635  -0.011  0.00  0.00    +0.002 A 
ATOM     18  C   UNL     1      -4.377 -12.764  -0.026  0.00  0.00    +0.000 A 
ATOM     19  C   UNL     1      -3.000 -12.641  -0.039  0.00  0.00    +0.002 A 
ATOM     20  C   UNL     1      -2.417 -11.389  -0.038  0.00  0.00    +0.028 A 
ENDBRANCH   3  15
BRANCH   1  22
ATOM     21  N   UNL     1      -1.699  -4.495  -0.006  0.00  0.00    -0.188 NA
ATOM     22  C   UNL     1      -2.674  -5.352  -0.001  0.00  0.00    +0.142 C 
BRANCH  21  25
ATOM     23  C   UNL     1      -0.961  -2.232  -0.001  0.00  0.00    +0.249 C 
ATOM     24  O   UNL     1       0.188  -2.620  -0.014  0.00  0.00    -0.272 OA
ATOM     25  N   UNL     1      -1.974  -3.121   0.004  0.00  0.00    -0.206 N 
ATOM     26  H   UNL     1      -2.892  -2.810   0.015  0.00  0.00    +0.177 HD
BRANCH  23  27
ATOM     27  C   UNL     1      -1.256  -0.754   0.010  0.00  0.00    +0.199 C 
BRANCH  27  28
ATOM     28  N   UNL     1       0.002  -0.004   0.002  0.00  0.00    -0.335 N 
ATOM     29  H   UNL     1       0.849  -0.478  -0.009  0.00  0.00    +0.147 HD
BRANCH  28  33
ATOM     30  C   UNL     1      -0.054   4.159   0.024  0.00  0.00    +0.000 A 
ATOM     31  C   UNL     1       1.153   3.486   0.009  0.00  0.00    +0.002 A 
ATOM     32  C   UNL     1       1.176   2.105   0.002  0.00  0.00    +0.023 A 
ATOM     33  C   UNL     1      -0.017   1.393   0.010  0.00  0.00    +0.027 A 
ATOM     34  C   UNL     1      -1.228   2.072   0.019  0.00  0.00    +0.023 A 
ATOM     35  C   UNL     1      -1.243   3.453   0.031  0.00  0.00    +0.002 A 
ENDBRANCH  28  33
ENDBRANCH  27  28
ENDBRANCH  23  27
ENDBRANCH  21  25
ENDBRANCH   1  22
TORSDOF 7
