REMARK  Name = ZINC14461113
REMARK  7 active torsions:
REMARK  status: ('A' for Active; 'I' for Inactive)
REMARK    1  A    between atoms: C_1  and  C_2
REMARK    2  A    between atoms: C_2  and  C_3
REMARK    3  A    between atoms: C_2  and  C_4
REMARK    4  A    between atoms: C_4  and  O_5
REMARK    5  A    between atoms: O_5  and  C_6
REMARK    6  A    between atoms: C_19  and  C_22
REMARK    7  A    between atoms: C_27  and  O_28
REMARK                            x       y       z     vdW  Elec       q    Type
REMARK                         _______ _______ _______ _____ _____    ______ ____
ROOT
ATOM      1  C   UNL     1      -4.794   0.871  -1.564  0.00  0.00    +0.121 A 
ATOM      2  C   UNL     1      -4.022   1.004  -2.709  0.00  0.00    +0.047 A 
ATOM      3  C   UNL     1      -2.660   1.197  -2.596  0.00  0.00    +0.027 A 
ATOM      4  C   UNL     1      -2.067   1.257  -1.341  0.00  0.00    +0.032 A 
ATOM      5  C   UNL     1      -2.832   1.127  -0.193  0.00  0.00    -0.016 A 
ATOM      6  C   UNL     1      -4.202   0.933  -0.315  0.00  0.00    +0.051 A 
ATOM      7  C   UNL     1      -2.237   1.193   1.178  0.00  0.00    +0.049 C 
ATOM      8  C   UNL     1      -2.151  -0.176   1.810  0.00  0.00    -0.023 C 
ATOM      9  C   UNL     1      -1.055  -0.274   2.533  0.00  0.00    -0.030 C 
ATOM     10  C   UNL     1      -0.267   1.021   2.482  0.00  0.00    +0.033 C 
ATOM     11  C   UNL     1      -0.780   1.704   1.180  0.00  0.00    +0.029 C 
ATOM     12  C   UNL     1      -0.013   1.086   0.008  0.00  0.00    +0.108 C 
ATOM     13  N   UNL     1      -0.682   1.451  -1.245  0.00  0.00    -0.336 N 
ATOM     14  H   UNL     1      -0.178   1.817  -1.989  0.00  0.00    +0.147 HD
ENDROOT
BRANCH  12  15
ATOM     15  C   UNL     1       1.400   1.610  -0.003  0.00  0.00    +0.015 A 
ATOM     16  C   UNL     1       2.444   0.793   0.387  0.00  0.00    +0.024 A 
ATOM     17  C   UNL     1       3.741   1.273   0.378  0.00  0.00    +0.018 A 
ATOM     18  C   UNL     1       3.996   2.573  -0.022  0.00  0.00    +0.019 A 
ATOM     19  C   UNL     1       2.956   3.393  -0.413  0.00  0.00    +0.047 A 
ATOM     20  C   UNL     1       1.655   2.911  -0.409  0.00  0.00    +0.122 A 
ATOM     21 BR   UNL     1       5.167   0.152   0.911  0.00  0.00    -0.050 Br
BRANCH  20  22
ATOM     22  O   UNL     1       0.630   3.715  -0.799  0.00  0.00    -0.506 OA
ATOM     23  H   UNL     1       0.236   4.227  -0.079  0.00  0.00    +0.292 HD
ENDBRANCH  20  22
ENDBRANCH  12  15
BRANCH   1  24
ATOM     24  O   UNL     1      -6.136   0.679  -1.670  0.00  0.00    -0.492 OA
BRANCH  24  25
ATOM     25  C   UNL     1      -6.682   0.625  -2.989  0.00  0.00    +0.232 C 
BRANCH  25  27
ATOM     26  C   UNL     1      -8.851   1.619  -2.246  0.00  0.00    +0.010 C 
ATOM     27  C   UNL     1      -8.194   0.405  -2.907  0.00  0.00    +0.020 C 
ATOM     28  C   UNL     1      -8.760   0.223  -4.317  0.00  0.00    +0.010 C 
ENDBRANCH  25  27
ENDBRANCH  24  25
ENDBRANCH   1  24
TORSDOF 5
