REMARK  Name = ZINC18037286
REMARK  6 active torsions:
REMARK  status: ('A' for Active; 'I' for Inactive)
REMARK    1  A    between atoms: C_1  and  O_2
REMARK    2  A    between atoms: O_2  and  C_3
REMARK    3  A    between atoms: C_5  and  C_10
REMARK    4  A    between atoms: C_8  and  O_9
REMARK    5  A    between atoms: N_18  and  C_21
REMARK    6  A    between atoms: N_29  and  C_30
REMARK                            x       y       z     vdW  Elec       q    Type
REMARK                         _______ _______ _______ _____ _____    ______ ____
ROOT
ATOM      1  C   UNL     1       2.462   0.334   4.204  0.00  0.00    +0.157 C 
ATOM      2  C   UNL     1       3.998   0.397   4.033  0.00  0.00    +0.145 C 
ATOM      3  C   UNL     1       4.511  -0.719   4.984  0.00  0.00    +0.249 C 
ATOM      4  C   UNL     1       5.242   0.049   6.062  0.00  0.00    +0.259 C 
ATOM      5  O   UNL     1       5.796  -0.444   7.020  0.00  0.00    -0.272 OA
ATOM      6  N   UNL     1       5.182   1.359   5.792  0.00  0.00    -0.207 N 
ATOM      7  C   UNL     1       4.508   1.676   4.659  0.00  0.00    +0.235 C 
ATOM      8  O   UNL     1       4.335   2.790   4.214  0.00  0.00    -0.274 OA
ATOM      9  O   UNL     1       3.333  -1.335   5.532  0.00  0.00    -0.257 OA
ATOM     10  N   UNL     1       2.300  -0.333   5.519  0.00  0.00    -0.244 N 
ENDROOT
BRANCH   6  11
ATOM     11  C   UNL     1       5.774   2.330   6.613  0.00  0.00    +0.058 A 
ATOM     12  C   UNL     1       7.082   2.732   6.381  0.00  0.00    +0.025 A 
ATOM     13  C   UNL     1       7.663   3.689   7.190  0.00  0.00    +0.002 A 
ATOM     14  C   UNL     1       6.943   4.246   8.231  0.00  0.00    +0.001 A 
ATOM     15  C   UNL     1       5.640   3.848   8.465  0.00  0.00    +0.017 A 
ATOM     16  C   UNL     1       5.051   2.895   7.655  0.00  0.00    +0.040 A 
ATOM     17 BR   UNL     1       3.266   2.356   7.971  0.00  0.00    -0.048 Br
ENDBRANCH   6  11
BRANCH   1  20
ATOM     18  C   UNL     1       0.626  -0.619   1.042  0.00  0.00    +0.162 A 
ATOM     19  C   UNL     1       1.202   0.137   2.051  0.00  0.00    +0.055 A 
ATOM     20  C   UNL     1       1.836  -0.490   3.108  0.00  0.00    -0.018 A 
ATOM     21  C   UNL     1       1.897  -1.870   3.161  0.00  0.00    +0.009 A 
ATOM     22  C   UNL     1       1.325  -2.630   2.158  0.00  0.00    +0.049 A 
ATOM     23  C   UNL     1       0.683  -2.008   1.099  0.00  0.00    +0.158 A 
BRANCH  18  25
ATOM     24  C   UNL     1      -0.017   1.425   0.010  0.00  0.00    +0.277 C 
ATOM     25  O   UNL     1       0.002  -0.004   0.002  0.00  0.00    -0.491 OA
ENDBRANCH  18  25
BRANCH  23  26
ATOM     26  O   UNL     1       0.115  -2.754   0.114  0.00  0.00    -0.503 OA
ATOM     27  H   UNL     1       0.711  -2.957  -0.620  0.00  0.00    +0.292 HD
ENDBRANCH  23  26
ENDBRANCH   1  20
BRANCH  10  28
ATOM     28  C   UNL     1       1.356  -0.052   6.509  0.00  0.00    +0.065 A 
ATOM     29  C   UNL     1       0.419   0.954   6.312  0.00  0.00    +0.028 A 
ATOM     30  C   UNL     1      -0.514   1.228   7.293  0.00  0.00    +0.002 A 
ATOM     31  C   UNL     1      -0.515   0.503   8.471  0.00  0.00    +0.000 A 
ATOM     32  C   UNL     1       0.417  -0.499   8.670  0.00  0.00    +0.002 A 
ATOM     33  C   UNL     1       1.349  -0.782   7.691  0.00  0.00    +0.028 A 
ENDBRANCH  10  28
TORSDOF 5
