REMARK  Name = ZINC01055072
REMARK  9 active torsions:
REMARK  status: ('A' for Active; 'I' for Inactive)
REMARK    1  A    between atoms: C_1  and  C_2
REMARK    2  A    between atoms: C_2  and  C_36
REMARK    3  A    between atoms: C_3  and  N_24
REMARK    4  A    between atoms: N_5  and  C_17
REMARK    5  A    between atoms: N_8  and  C_9
REMARK    6  A    between atoms: C_9  and  C_10
REMARK    7  A    between atoms: C_10  and  C_11
REMARK    8  A    between atoms: N_24  and  O_35
REMARK    9  A    between atoms: N_27  and  C_28
REMARK                            x       y       z     vdW  Elec       q    Type
REMARK                         _______ _______ _______ _____ _____    ______ ____
ROOT
ATOM      1  C   UNL     1       0.486  -0.607   1.231  0.00  0.00    +0.035 C 
ATOM      2  C   UNL     1       1.959  -0.709   0.831  0.00  0.00    +0.071 C 
ATOM      3  C   UNL     1       2.304   0.349  -0.235  0.00  0.00    +0.224 C 
ATOM      4  N   UNL     1       3.330   1.181   0.412  0.00  0.00    -0.232 N 
ATOM      5  C   UNL     1       3.563   0.712   1.645  0.00  0.00    +0.311 C 
ATOM      6  O   UNL     1       4.369   1.214   2.404  0.00  0.00    -0.252 OA
ATOM      7  N   UNL     1       2.828  -0.361   1.966  0.00  0.00    -0.276 N 
ATOM      8  C   UNL     1       2.279  -2.114   0.317  0.00  0.00    +0.035 C 
ENDROOT
BRANCH   4   9
ATOM      9  C   UNL     1       3.962   2.287  -0.168  0.00  0.00    +0.040 A 
ATOM     10  C   UNL     1       3.541   2.760  -1.404  0.00  0.00    +0.025 A 
ATOM     11  C   UNL     1       4.163   3.854  -1.972  0.00  0.00    +0.022 A 
ATOM     12  C   UNL     1       5.213   4.473  -1.315  0.00  0.00    +0.041 A 
ATOM     13  C   UNL     1       5.638   4.000  -0.086  0.00  0.00    +0.022 A 
ATOM     14  C   UNL     1       5.016   2.909   0.489  0.00  0.00    +0.025 A 
ATOM     15 CL   UNL     1       5.998   5.844  -2.035  0.00  0.00    -0.084 Cl
ENDBRANCH   4   9
BRANCH   3  16
ATOM     16  N   UNL     1       1.123   1.152  -0.564  0.00  0.00    -0.144 N 
ATOM     17  C   UNL     1       0.596   1.983   0.357  0.00  0.00    +0.331 C 
ATOM     18  O   UNL     1       1.154   2.138   1.426  0.00  0.00    -0.250 OA
ATOM     19  N   UNL     1      -0.550   2.642   0.093  0.00  0.00    -0.268 N 
ATOM     20  H   UNL     1      -0.961   2.567  -0.782  0.00  0.00    +0.156 HD
BRANCH  19  21
ATOM     21  C   UNL     1      -1.146   3.433   1.082  0.00  0.00    +0.035 A 
ATOM     22  C   UNL     1      -2.529   3.505   1.175  0.00  0.00    +0.025 A 
ATOM     23  C   UNL     1      -3.115   4.283   2.155  0.00  0.00    +0.022 A 
ATOM     24  C   UNL     1      -2.324   4.999   3.036  0.00  0.00    +0.041 A 
ATOM     25  C   UNL     1      -0.945   4.934   2.941  0.00  0.00    +0.022 A 
ATOM     26  C   UNL     1      -0.355   4.154   1.967  0.00  0.00    +0.025 A 
ATOM     27 CL   UNL     1      -3.063   5.981   4.262  0.00  0.00    -0.084 Cl
ENDBRANCH  19  21
BRANCH  16  28
ATOM     28  O   UNL     1       0.536   1.055  -1.849  0.00  0.00    -0.289 OA
ATOM     29  H   UNL     1       1.027   0.493  -2.464  0.00  0.00    +0.242 HD
ENDBRANCH  16  28
ENDBRANCH   3  16
BRANCH   7  30
ATOM     30  C   UNL     1       2.880  -1.074   3.244  0.00  0.00    +0.114 C 
BRANCH  30  31
ATOM     31  C   UNL     1       3.928  -2.186   3.166  0.00  0.00    +0.049 C 
BRANCH  31  32
ATOM     32  C   UNL     1       3.981  -2.919   4.481  0.00  0.00    -0.072 C 
ATOM     33  C   UNL     1       3.278  -3.999   4.603  0.00  0.00    -0.028 C 
ATOM     34  C   UNL     1       3.222  -4.830   5.852  0.00  0.00    +0.027 C 
ATOM     35  C   UNL     1       4.397  -4.482   6.769  0.00  0.00    +0.004 C 
ATOM     36  C   UNL     1       4.460  -2.957   6.920  0.00  0.00    +0.005 C 
ATOM     37  C   UNL     1       4.852  -2.356   5.566  0.00  0.00    +0.030 C 
ENDBRANCH  31  32
ENDBRANCH  30  31
ENDBRANCH   7  30
TORSDOF 7
