REMARK  Name = ZINC62496417
REMARK  5 active torsions:
REMARK  status: ('A' for Active; 'I' for Inactive)
REMARK    1  A    between atoms: C_5  and  C_7
REMARK    2  A    between atoms: C_7  and  C_8
REMARK    3  A    between atoms: N_12  and  C_21
REMARK    4  A    between atoms: C_15  and  N_20
REMARK    5  A    between atoms: C_21  and  C_22
REMARK                            x       y       z     vdW  Elec       q    Type
REMARK                         _______ _______ _______ _____ _____    ______ ____
ROOT
ATOM      1  C   UNL     1       1.375  -2.703   1.411  0.00  0.00    +0.264 C 
ATOM      2  C   UNL     1       1.270  -4.207   1.415  0.00  0.00    +0.262 C 
ATOM      3  O   UNL     1       0.197  -4.742   1.601  0.00  0.00    -0.271 OA
ATOM      4  N   UNL     1       2.373  -4.955   1.210  0.00  0.00    -0.251 N 
ATOM      5  C   UNL     1       3.622  -4.324   1.123  0.00  0.00    +0.081 A 
ATOM      6  C   UNL     1       4.735  -5.026   0.690  0.00  0.00    +0.050 A 
ATOM      7  C   UNL     1       5.962  -4.383   0.596  0.00  0.00    +0.027 A 
ATOM      8  C   UNL     1       6.071  -3.040   0.933  0.00  0.00    +0.026 A 
ATOM      9  C   UNL     1       4.961  -2.341   1.370  0.00  0.00    +0.049 A 
ATOM     10  C   UNL     1       3.737  -2.981   1.472  0.00  0.00    +0.143 A 
ATOM     11  O   UNL     1       2.646  -2.309   1.931  0.00  0.00    -0.477 OA
ENDROOT
BRANCH   7  12
ATOM     12  N   UNL     1       7.090  -5.088   0.160  0.00  0.00    -0.358 N 
ATOM     13  H   UNL     1       7.014  -6.026  -0.077  0.00  0.00    +0.142 HD
ATOM     14  H   UNL     1       7.947  -4.639   0.094  0.00  0.00    +0.142 HD
ENDBRANCH   7  12
BRANCH   1  15
ATOM     15  C   UNL     1       1.228  -2.186  -0.022  0.00  0.00    +0.092 C 
BRANCH  15  20
ATOM     16  C   UNL     1      -0.017   1.378   0.010  0.00  0.00    +0.000 A 
ATOM     17  C   UNL     1       1.171   2.087   0.002  0.00  0.00    +0.003 A 
ATOM     18  C   UNL     1       2.377   1.414  -0.013  0.00  0.00    +0.038 A 
ATOM     19  C   UNL     1       2.397   0.029  -0.021  0.00  0.00    +0.127 A 
ATOM     20  C   UNL     1       1.208  -0.679  -0.013  0.00  0.00    -0.008 A 
ATOM     21  C   UNL     1       0.002  -0.004   0.002  0.00  0.00    +0.006 A 
ATOM     22  F   UNL     1       3.577  -0.630  -0.036  0.00  0.00    -0.205 F 
ENDBRANCH  15  20
ENDBRANCH   1  15
BRANCH   4  23
ATOM     23  C   UNL     1       2.268  -6.411   1.082  0.00  0.00    +0.232 C 
BRANCH  23  24
ATOM     24  C   UNL     1       2.069  -6.766  -0.333  0.00  0.00    +0.082 C 
ATOM     25  N   UNL     1       1.915  -7.039  -1.424  0.00  0.00    -0.195 NA
ENDBRANCH  23  24
ENDBRANCH   4  23
TORSDOF 5
