REMARK  Name = ZINC49472205
REMARK  6 active torsions:
REMARK  status: ('A' for Active; 'I' for Inactive)
REMARK    1  A    between atoms: C_1  and  C_2
REMARK    2  A    between atoms: C_3  and  C_28
REMARK    3  A    between atoms: C_12  and  N_14
REMARK    4  A    between atoms: C_15  and  C_17
REMARK    5  A    between atoms: C_17  and  S_18
REMARK    6  A    between atoms: S_18  and  C_19
REMARK                            x       y       z     vdW  Elec       q    Type
REMARK                         _______ _______ _______ _____ _____    ______ ____
ROOT
ATOM      1  N   UNL     1       0.088  -2.956   4.791  0.00  0.00    -0.285 N 
ATOM      2  C   UNL     1      -0.565  -4.132   4.872  0.00  0.00    +0.227 C 
ATOM      3  O   UNL     1      -1.094  -4.601   3.887  0.00  0.00    -0.275 OA
ATOM      4  H   UNL     1       0.567  -2.613   5.562  0.00  0.00    +0.155 HD
ENDROOT
BRANCH   1  16
ATOM      5  C   UNL     1       0.008   1.484  -0.008  0.00  0.00    +0.045 C 
ATOM      6  C   UNL     1       0.035  -0.023  -0.010  0.00  0.00    -0.033 A 
ATOM      7  C   UNL     1       0.052  -0.714  -1.178  0.00  0.00    +0.017 A 
ATOM      8  C   UNL     1       0.076  -2.124  -1.169  0.00  0.00    +0.252 A 
ATOM      9  O   UNL     1       0.091  -2.725  -2.229  0.00  0.00    -0.268 OA
ATOM     10  N   UNL     1       0.084  -2.822  -0.020  0.00  0.00    -0.322 N 
ATOM     11  H   UNL     1       0.101  -3.792  -0.050  0.00  0.00    +0.169 HD
ATOM     12  C   UNL     1       0.068  -2.180   1.200  0.00  0.00    +0.051 A 
ATOM     13  C   UNL     1       0.048  -0.772   1.246  0.00  0.00    +0.002 A 
ATOM     14  C   UNL     1       0.037  -0.112   2.481  0.00  0.00    +0.012 A 
ATOM     15  C   UNL     1       0.050  -0.836   3.637  0.00  0.00    +0.024 A 
ATOM     16  C   UNL     1       0.074  -2.231   3.599  0.00  0.00    +0.035 A 
ATOM     17  C   UNL     1       0.076  -2.902   2.386  0.00  0.00    +0.049 A 
ATOM     18  C   UNL     1       0.044   0.028  -2.489  0.00  0.00    +0.049 C 
ENDBRANCH   1  16
BRANCH   2  19
ATOM     19  C   UNL     1      -0.636  -4.865   6.187  0.00  0.00    +0.172 C 
BRANCH  19  20
ATOM     20  S   UNL     1      -1.574  -6.403   5.972  0.00  0.00    -0.089 S 
BRANCH  20  21
ATOM     21  C   UNL     1      -1.568  -7.134   7.575  0.00  0.00    +0.136 A 
ATOM     22  N   UNL     1      -1.024  -6.685   8.684  0.00  0.00    -0.233 NA
ATOM     23  C   UNL     1      -1.100  -7.357   9.853  0.00  0.00    +0.079 A 
ATOM     24  C   UNL     1      -0.563  -6.989  11.108  0.00  0.00    +0.029 A 
ATOM     25  C   UNL     1      -0.731  -7.793  12.205  0.00  0.00    +0.002 A 
ATOM     26  C   UNL     1      -1.428  -8.990  12.126  0.00  0.00    +0.001 A 
ATOM     27  C   UNL     1      -1.967  -9.382  10.914  0.00  0.00    +0.017 A 
ATOM     28  C   UNL     1      -1.804  -8.582   9.810  0.00  0.00    +0.040 A 
ATOM     29  S   UNL     1      -2.307  -8.671   8.109  0.00  0.00    -0.061 S 
ENDBRANCH  20  21
ENDBRANCH  19  20
ENDBRANCH   2  19
TORSDOF 4
