REMARK  Name = ZINC49210885
REMARK  4 active torsions:
REMARK  status: ('A' for Active; 'I' for Inactive)
REMARK    1  A    between atoms: C_1  and  C_2
REMARK    2  A    between atoms: C_3  and  C_21
REMARK    3  A    between atoms: C_5  and  N_9
REMARK    4  A    between atoms: C_6  and  C_7
REMARK                            x       y       z     vdW  Elec       q    Type
REMARK                         _______ _______ _______ _____ _____    ______ ____
ROOT
ATOM      1  N   UNL     1       0.054  -3.117   2.084  0.00  0.00    -0.263 N 
ATOM      2  C   UNL     1       0.071  -4.426   1.764  0.00  0.00    +0.307 C 
ATOM      3  O   UNL     1       0.070  -4.766   0.597  0.00  0.00    -0.252 OA
ATOM      4  N   UNL     1       0.089  -5.358   2.738  0.00  0.00    -0.282 N 
ATOM      5  C   UNL     1       0.086  -5.111   4.195  0.00  0.00    +0.113 C 
ATOM      6  C   UNL     1       0.135  -6.526   4.851  0.00  0.00    +0.008 C 
ATOM      7  C   UNL     1      -1.284  -7.117   4.577  0.00  0.00    +0.007 C 
ATOM      8  C   UNL     1      -1.323  -7.310   3.043  0.00  0.00    +0.023 C 
ATOM      9  C   UNL     1       0.108  -6.838   2.554  0.00  0.00    +0.078 C 
ATOM     10  C   UNL     1       0.997  -7.280   3.774  0.00  0.00    +0.027 C 
ATOM     11  H   UNL     1       0.055  -2.845   3.015  0.00  0.00    +0.157 HD
ENDROOT
BRANCH   1  16
ATOM     12  C   UNL     1      -0.018   1.503   0.010  0.00  0.00    +0.046 C 
ATOM     13  C   UNL     1       0.002  -0.004   0.002  0.00  0.00    -0.021 A 
ATOM     14  C   UNL     1       0.006  -0.713  -1.143  0.00  0.00    -0.007 A 
ATOM     15  S   UNL     1       0.032  -2.400  -0.579  0.00  0.00    -0.077 S 
ATOM     16  C   UNL     1       0.037  -2.157   1.081  0.00  0.00    +0.091 A 
ATOM     17  C   UNL     1       0.025  -0.778   1.222  0.00  0.00    +0.083 A 
ATOM     18  C   UNL     1      -0.009  -0.201  -2.560  0.00  0.00    +0.052 C 
BRANCH  17  19
ATOM     19  C   UNL     1       0.029  -0.153   2.510  0.00  0.00    +0.102 C 
ATOM     20  N   UNL     1       0.032   0.344   3.532  0.00  0.00    -0.191 NA
ENDBRANCH  17  19
ENDBRANCH   1  16
TORSDOF 2
