REMARK  Name = ZINC24922956
REMARK  11 active torsions:
REMARK  status: ('A' for Active; 'I' for Inactive)
REMARK    1  A    between atoms: C_1  and  C_2
REMARK    2  A    between atoms: C_5  and  N_8
REMARK    3  A    between atoms: C_9  and  C_11
REMARK    4  A    between atoms: C_11  and  N_12
REMARK    5  A    between atoms: N_12  and  C_13
REMARK    6  A    between atoms: C_14  and  C_16
REMARK    7  A    between atoms: C_16  and  C_18
REMARK    8  A    between atoms: C_16  and  N_19
REMARK    9  A    between atoms: N_19  and  C_20
REMARK   10  A    between atoms: C_20  and  C_22
REMARK   11  A    between atoms: C_20  and  C_23
REMARK                            x       y       z     vdW  Elec       q    Type
REMARK                         _______ _______ _______ _____ _____    ______ ____
ROOT
ATOM      1  N   UNL     1       3.832  -4.865  -0.362  0.00  0.00    -0.297 N 
ATOM      2  C   UNL     1       4.519  -5.418   0.808  0.00  0.00    +0.132 C 
ATOM      3  C   UNL     1       4.438  -4.876  -1.566  0.00  0.00    +0.201 C 
ATOM      4  O   UNL     1       3.869  -4.417  -2.534  0.00  0.00    -0.277 OA
ENDROOT
BRANCH   3   5
ATOM      5  C   UNL     1       5.820  -5.458  -1.709  0.00  0.00    +0.014 C 
ATOM      6  C   UNL     1       5.800  -6.930  -1.292  0.00  0.00    -0.004 C 
BRANCH   5   7
ATOM      7  N   UNL     1       6.254  -5.351  -3.108  0.00  0.00    +0.391 N 
ATOM      8  H   UNL     1       5.890  -6.223  -3.672  0.00  0.00    -0.084 HD
ATOM      9  H   UNL     1       5.843  -4.431  -3.551  0.00  0.00    -0.084 HD
BRANCH   7  10
ATOM     10  C   UNL     1       7.719  -5.306  -3.204  0.00  0.00    -0.042 C 
ATOM     11  C   UNL     1       8.159  -5.852  -4.564  0.00  0.00    -0.009 C 
BRANCH  10  12
ATOM     12  C   UNL     1       8.188  -3.881  -3.059  0.00  0.00    -0.048 A 
ATOM     13  C   UNL     1       7.311  -2.838  -3.288  0.00  0.00    +0.003 A 
ATOM     14  C   UNL     1       7.740  -1.531  -3.150  0.00  0.00    +0.000 A 
ATOM     15  C   UNL     1       9.049  -1.267  -2.793  0.00  0.00    +0.001 A 
ATOM     16  C   UNL     1       9.928  -2.309  -2.570  0.00  0.00    +0.015 A 
ATOM     17  C   UNL     1       9.498  -3.618  -2.702  0.00  0.00    +0.019 A 
ATOM     18 BR   UNL     1      10.701  -5.044  -2.397  0.00  0.00    -0.050 Br
ENDBRANCH  10  12
ENDBRANCH   7  10
ENDBRANCH   5   7
ENDBRANCH   3   5
BRANCH   1  19
ATOM     19  C   UNL     1       2.488  -4.299  -0.223  0.00  0.00    +0.203 C 
BRANCH  19  21
ATOM     20  N   UNL     1       1.474  -2.097   0.270  0.00  0.00    -0.284 N 
ATOM     21  C   UNL     1       2.592  -2.830   0.097  0.00  0.00    +0.235 C 
ATOM     22  O   UNL     1       3.682  -2.307   0.199  0.00  0.00    -0.274 OA
ATOM     23  H   UNL     1       0.489  -2.586   0.263  0.00  0.00    +0.155 HD
BRANCH  20  28
ATOM     24  C   UNL     1       1.849   3.512   1.037  0.00  0.00    +0.044 C 
ATOM     25  C   UNL     1       1.750   2.022   0.833  0.00  0.00    -0.050 A 
ATOM     26  C   UNL     1       2.669   1.372   0.030  0.00  0.00    +0.005 A 
ATOM     27  C   UNL     1       2.581   0.007  -0.158  0.00  0.00    +0.023 A 
ATOM     28  C   UNL     1       1.567  -0.714   0.460  0.00  0.00    +0.033 A 
ATOM     29  C   UNL     1       0.645  -0.058   1.265  0.00  0.00    +0.023 A 
ATOM     30  C   UNL     1       0.739   1.307   1.450  0.00  0.00    +0.005 A 
ENDBRANCH  20  28
ENDBRANCH  19  21
ENDBRANCH   1  19
TORSDOF 7
