REMARK  Name = ZINC12755550
REMARK  11 active torsions:
REMARK  status: ('A' for Active; 'I' for Inactive)
REMARK    1  A    between atoms: C_1  and  C_2
REMARK    2  A    between atoms: C_2  and  C_3
REMARK    3  A    between atoms: C_2  and  C_4
REMARK    4  A    between atoms: C_4  and  C_6
REMARK    5  A    between atoms: C_4  and  N_57
REMARK    6  A    between atoms: C_6  and  N_7
REMARK    7  A    between atoms: N_7  and  C_8
REMARK    8  A    between atoms: C_11  and  S_17
REMARK    9  A    between atoms: C_13  and  N_14
REMARK   10  A    between atoms: S_17  and  N_20
REMARK   11  A    between atoms: N_20  and  C_21
REMARK                            x       y       z     vdW  Elec       q    Type
REMARK                         _______ _______ _______ _____ _____    ______ ____
ROOT
ATOM      1  N   UNL     1      -2.193   0.669  -0.958  0.00  0.00    -0.344 N 
ATOM      2  H   UNL     1      -2.333   0.167  -0.140  0.00  0.00    +0.146 HD
ENDROOT
BRANCH   1   3
ATOM      3  C   UNL     1      -3.082   0.527  -2.026  0.00  0.00    +0.058 A 
ATOM      4  C   UNL     1      -2.948   1.327  -3.154  0.00  0.00    +0.027 A 
ATOM      5  C   UNL     1      -3.829   1.184  -4.208  0.00  0.00    +0.030 A 
ATOM      6  C   UNL     1      -4.843   0.246  -4.141  0.00  0.00    +0.108 A 
ATOM      7  C   UNL     1      -4.979  -0.551  -3.020  0.00  0.00    +0.063 A 
ATOM      8  C   UNL     1      -4.098  -0.417  -1.964  0.00  0.00    +0.149 A 
BRANCH   8   9
ATOM      9  N   UNL     1      -4.240  -1.275  -0.767  0.00  0.00    +0.058 N 
ATOM     10  O   UNL     1      -5.088  -2.149  -0.741  0.00  0.00    -0.126 OA
ATOM     11  O   UNL     1      -3.510  -1.107   0.193  0.00  0.00    -0.126 OA
ENDBRANCH   8   9
BRANCH   6  12
ATOM     12  S   UNL     1      -5.965   0.068  -5.488  0.00  0.00    +0.058 S 
ATOM     13  O   UNL     1      -7.154  -0.499  -4.954  0.00  0.00    -0.153 OA
ATOM     14  O   UNL     1      -5.959   1.304  -6.189  0.00  0.00    -0.153 OA
BRANCH  12  15
ATOM     15  N   UNL     1      -5.322  -1.062  -6.514  0.00  0.00    -0.193 NA
ATOM     16  C   UNL     1      -5.168  -2.450  -6.072  0.00  0.00    +0.127 C 
ATOM     17  H   UNL     1      -5.048  -0.804  -7.409  0.00  0.00    +0.148 HD
ENDBRANCH  12  15
ENDBRANCH   6  12
ENDBRANCH   1   3
BRANCH   1  18
ATOM     18  C   UNL     1      -1.049   1.577  -1.073  0.00  0.00    +0.086 C 
BRANCH  18  19
ATOM     19  C   UNL     1      -0.141   1.412   0.148  0.00  0.00    -0.049 C 
BRANCH  19  26
ATOM     20  C   UNL     1      -1.558   1.100   2.098  0.00  0.00    -0.078 C 
ATOM     21  C   UNL     1      -2.424   1.766   3.132  0.00  0.00    -0.019 C 
ATOM     22  C   UNL     1      -3.823   1.999   2.523  0.00  0.00    -0.002 C 
ATOM     23  C   UNL     1      -3.852   3.157   1.636  0.00  0.00    -0.002 C 
ATOM     24  C   UNL     1      -2.894   2.997   0.437  0.00  0.00    -0.019 C 
ATOM     25  C   UNL     1      -1.493   3.285   0.904  0.00  0.00    -0.078 C 
ATOM     26  N   UNL     1      -0.710   2.076   1.331  0.00  0.00    +0.383 N 
ATOM     27  H   UNL     1       0.057   2.385   1.939  0.00  0.00    -0.081 HD
ENDBRANCH  19  26
BRANCH  19  29
ATOM     28  C   UNL     1       1.046   3.570  -0.273  0.00  0.00    +0.005 C 
ATOM     29  C   UNL     1       1.217   2.056  -0.136  0.00  0.00    -0.029 C 
ATOM     30  C   UNL     1       2.175   1.753   1.018  0.00  0.00    +0.005 C 
ENDBRANCH  19  29
ENDBRANCH  18  19
ENDBRANCH   1  18
TORSDOF 8
