REMARK  Name = ZINC40288429
REMARK  6 active torsions:
REMARK  status: ('A' for Active; 'I' for Inactive)
REMARK    1  A    between atoms: C_1  and  O_2
REMARK    2  A    between atoms: O_2  and  C_3
REMARK    3  A    between atoms: C_6  and  O_25
REMARK    4  A    between atoms: C_7  and  N_9
REMARK    5  A    between atoms: C_18  and  C_20
REMARK    6  A    between atoms: O_25  and  C_26
REMARK                            x       y       z     vdW  Elec       q    Type
REMARK                         _______ _______ _______ _____ _____    ______ ____
ROOT
ATOM      1  N   UNL     1      -2.538  -4.071   0.015  0.00  0.00    -0.283 N 
ATOM      2  C   UNL     1      -2.106  -4.905   1.007  0.00  0.00    +0.206 A 
ATOM      3  N   UNL     1      -2.326  -6.143   0.642  0.00  0.00    -0.238 NA
ATOM      4  C   UNL     1      -2.890  -6.153  -0.563  0.00  0.00    +0.089 A 
ATOM      5  C   UNL     1      -3.039  -4.861  -0.972  0.00  0.00    +0.133 A 
ATOM      6  N   UNL     1      -3.615  -4.534  -2.201  0.00  0.00    -0.270 N 
ATOM      7  C   UNL     1      -3.779  -5.523  -3.106  0.00  0.00    +0.219 C 
ATOM      8  O   UNL     1      -4.382  -5.287  -4.132  0.00  0.00    -0.275 OA
ATOM      9  C   UNL     1      -3.238  -6.907  -2.883  0.00  0.00    +0.110 C 
ATOM     10  C   UNL     1      -3.329  -7.317  -1.415  0.00  0.00    +0.080 C 
ATOM     11  H   UNL     1      -3.890  -3.625  -2.398  0.00  0.00    +0.156 HD
ENDROOT
BRANCH   1  16
ATOM     12  C   UNL     1      -1.201  -0.638   0.010  0.00  0.00    +0.122 A 
ATOM     13  C   UNL     1      -2.374   0.102   0.019  0.00  0.00    +0.049 A 
ATOM     14  C   UNL     1      -3.599  -0.539   0.027  0.00  0.00    +0.051 A 
ATOM     15  C   UNL     1      -3.657  -1.923   0.026  0.00  0.00    +0.144 A 
ATOM     16  C   UNL     1      -2.481  -2.668   0.016  0.00  0.00    +0.094 A 
ATOM     17  C   UNL     1      -1.254  -2.023   0.003  0.00  0.00    +0.075 A 
BRANCH  12  19
ATOM     18  C   UNL     1      -0.017   1.425   0.010  0.00  0.00    +0.277 C 
ATOM     19  O   UNL     1       0.002  -0.004   0.002  0.00  0.00    -0.495 OA
ENDBRANCH  12  19
BRANCH  15  20
ATOM     20  O   UNL     1      -4.863  -2.553   0.034  0.00  0.00    -0.493 OA
ATOM     21  C   UNL     1      -6.027  -1.726   0.044  0.00  0.00    +0.277 C 
ENDBRANCH  15  20
ENDBRANCH   1  16
BRANCH  10  22
ATOM     22  C   UNL     1      -4.757  -7.673  -1.089  0.00  0.00    -0.031 A 
ATOM     23  C   UNL     1      -5.075  -8.930  -0.611  0.00  0.00    +0.012 A 
ATOM     24  C   UNL     1      -6.369  -9.218  -0.328  0.00  0.00    +0.045 A 
ATOM     25  S   UNL     1      -7.187  -7.686  -0.741  0.00  0.00    -0.105 S 
ATOM     26  C   UNL     1      -5.748  -6.763  -1.257  0.00  0.00    +0.049 A 
ENDBRANCH  10  22
TORSDOF 4
