REMARK  Name = ZINC12529288
REMARK  9 active torsions:
REMARK  status: ('A' for Active; 'I' for Inactive)
REMARK    1  A    between atoms: C_1  and  C_2
REMARK    2  A    between atoms: C_4  and  N_11
REMARK    3  A    between atoms: C_5  and  O_9
REMARK    4  A    between atoms: O_9  and  C_10
REMARK    5  A    between atoms: C_12  and  C_14
REMARK    6  A    between atoms: C_14  and  C_15
REMARK    7  A    between atoms: N_21  and  N_22
REMARK    8  A    between atoms: C_23  and  C_24
REMARK    9  A    between atoms: C_29  and  C_30
REMARK                            x       y       z     vdW  Elec       q    Type
REMARK                         _______ _______ _______ _____ _____    ______ ____
ROOT
ATOM      1  C   UNL     1      -0.320  -1.850  -6.045  0.00  0.00    +0.149 C 
ATOM      2  C   UNL     1      -0.462  -2.568  -7.377  0.00  0.00    +0.233 C 
ATOM      3  O   UNL     1      -1.404  -3.293  -7.622  0.00  0.00    -0.274 OA
ATOM      4  N   UNL     1       0.504  -2.353  -8.253  0.00  0.00    -0.263 N 
ATOM      5  C   UNL     1       1.577  -1.531  -7.984  0.00  0.00    +0.183 C 
ATOM      6  N   UNL     1       2.595  -1.239  -8.767  0.00  0.00    -0.127 NA
ATOM      7  S   UNL     1       1.263  -0.953  -6.321  0.00  0.00    -0.075 S 
ATOM      8  H   UNL     1       0.456  -2.790  -9.118  0.00  0.00    +0.157 HD
ENDROOT
BRANCH   6   9
ATOM      9  N   UNL     1       3.522  -0.443  -8.352  0.00  0.00    -0.155 NA
ATOM     10  C   UNL     1       4.530  -0.154  -9.129  0.00  0.00    +0.143 C 
BRANCH  10  11
ATOM     11  C   UNL     1       5.587   0.754  -8.655  0.00  0.00    +0.006 A 
ATOM     12  C   UNL     1       6.666   1.071  -9.486  0.00  0.00    +0.010 A 
ATOM     13  C   UNL     1       7.652   1.922  -9.035  0.00  0.00    +0.001 A 
ATOM     14  C   UNL     1       7.577   2.462  -7.763  0.00  0.00    +0.001 A 
ATOM     15  C   UNL     1       6.512   2.153  -6.934  0.00  0.00    +0.013 A 
ATOM     16  C   UNL     1       5.514   1.308  -7.373  0.00  0.00    +0.063 A 
BRANCH  16  17
ATOM     17  C   UNL     1       4.353   0.978  -6.472  0.00  0.00    +0.418 C 
ATOM     18  F   UNL     1       4.504   1.648  -5.253  0.00  0.00    -0.166 F 
ATOM     19  F   UNL     1       3.160   1.382  -7.081  0.00  0.00    -0.166 F 
ATOM     20  F   UNL     1       4.316  -0.402  -6.244  0.00  0.00    -0.166 F 
ENDBRANCH  16  17
ENDBRANCH  10  11
ENDBRANCH   6   9
BRANCH   1  21
ATOM     21  C   UNL     1      -0.199  -2.845  -4.889  0.00  0.00    +0.120 C 
BRANCH  21  23
ATOM     22  N   UNL     1       0.028  -2.768  -2.427  0.00  0.00    -0.283 N 
ATOM     23  C   UNL     1      -0.089  -2.093  -3.588  0.00  0.00    +0.219 C 
ATOM     24  O   UNL     1      -0.106  -0.880  -3.585  0.00  0.00    -0.275 OA
ATOM     25  H   UNL     1       0.123  -3.733  -2.434  0.00  0.00    +0.155 HD
BRANCH  22  29
ATOM     26  C   UNL     1      -1.301   1.185   0.178  0.00  0.00    +0.045 C 
ATOM     27  C   UNL     1      -0.624  -0.157   0.083  0.00  0.00    -0.030 A 
ATOM     28  C   UNL     1      -0.610  -0.839  -1.119  0.00  0.00    +0.031 A 
ATOM     29  C   UNL     1       0.014  -2.075  -1.209  0.00  0.00    +0.076 A 
ATOM     30  C   UNL     1       0.626  -2.626  -0.085  0.00  0.00    +0.143 A 
ATOM     31  C   UNL     1       0.608  -1.937   1.117  0.00  0.00    +0.067 A 
ATOM     32  C   UNL     1      -0.012  -0.702   1.198  0.00  0.00    +0.047 A 
ATOM     33 CL   UNL     1      -0.026   0.163   2.703  0.00  0.00    -0.083 Cl
BRANCH  30  34
ATOM     34  O   UNL     1       1.238  -3.837  -0.167  0.00  0.00    -0.493 OA
ATOM     35  C   UNL     1       1.844  -4.339   1.026  0.00  0.00    +0.277 C 
ENDBRANCH  30  34
ENDBRANCH  22  29
ENDBRANCH  21  23
ENDBRANCH   1  21
TORSDOF 7
