REMARK  Name = ZINC09930473
REMARK  11 active torsions:
REMARK  status: ('A' for Active; 'I' for Inactive)
REMARK    1  A    between atoms: C_1  and  C_2
REMARK    2  A    between atoms: C_2  and  C_3
REMARK    3  A    between atoms: C_3  and  C_5
REMARK    4  A    between atoms: C_3  and  C_6
REMARK    5  A    between atoms: C_9  and  C_12
REMARK    6  A    between atoms: C_12  and  C_14
REMARK    7  A    between atoms: C_12  and  N_19
REMARK    8  A    between atoms: C_20  and  C_22
REMARK    9  A    between atoms: C_22  and  N_23
REMARK   10  A    between atoms: C_24  and  C_26
REMARK   11  A    between atoms: C_26  and  C_27
REMARK                            x       y       z     vdW  Elec       q    Type
REMARK                         _______ _______ _______ _____ _____    ______ ____
ROOT
ATOM      1  C   UNL     1      -2.449   1.117   0.020  0.00  0.00    +0.140 C 
ENDROOT
BRANCH   1   5
ATOM      2  C   UNL     1      -5.532   3.515   1.750  0.00  0.00    -0.045 A 
ATOM      3  C   UNL     1      -5.465   2.164   2.035  0.00  0.00    +0.004 A 
ATOM      4  C   UNL     1      -4.468   1.388   1.475  0.00  0.00    +0.006 A 
ATOM      5  C   UNL     1      -3.537   1.963   0.630  0.00  0.00    -0.022 A 
ATOM      6  C   UNL     1      -3.600   3.315   0.349  0.00  0.00    +0.006 A 
ATOM      7  C   UNL     1      -4.601   4.090   0.906  0.00  0.00    +0.004 A 
BRANCH   2   8
ATOM      8  C   UNL     1      -6.619   4.361   2.360  0.00  0.00    +0.016 C 
ATOM      9  C   UNL     1      -7.465   4.985   1.248  0.00  0.00    +0.012 C 
BRANCH   8  11
ATOM     10  C   UNL     1      -7.091   6.252   3.924  0.00  0.00    +0.004 C 
ATOM     11  C   UNL     1      -5.989   5.470   3.206  0.00  0.00    +0.004 C 
ENDBRANCH   8  11
ENDBRANCH   2   8
ENDBRANCH   1   5
BRANCH   1  12
ATOM     12  C   UNL     1      -2.824   0.761  -1.396  0.00  0.00    +0.014 A 
ATOM     13  C   UNL     1      -3.350  -0.392  -1.875  0.00  0.00    +0.013 A 
ATOM     14  C   UNL     1      -3.621  -0.495  -3.227  0.00  0.00    +0.008 A 
ATOM     15  C   UNL     1      -3.342   0.557  -4.035  0.00  0.00    +0.045 A 
ATOM     16  S   UNL     1      -2.683   1.747  -2.878  0.00  0.00    -0.099 S 
ENDBRANCH   1  12
BRANCH   1  17
ATOM     17  N   UNL     1      -1.191   1.867   0.018  0.00  0.00    -0.303 N 
ATOM     18  C   UNL     1      -0.014   1.209   0.009  0.00  0.00    +0.231 C 
ATOM     19  O   UNL     1       0.002  -0.004   0.002  0.00  0.00    -0.274 OA
ATOM     20  H   UNL     1      -1.204   2.837   0.023  0.00  0.00    +0.150 HD
BRANCH  18  21
ATOM     21  C   UNL     1       1.280   1.980   0.001  0.00  0.00    +0.200 C 
BRANCH  21  22
ATOM     22  N   UNL     1       2.407   1.043  -0.015  0.00  0.00    -0.306 N 
ATOM     23  C   UNL     1       3.671   1.510  -0.025  0.00  0.00    +0.218 C 
ATOM     24  O   UNL     1       3.876   2.705  -0.020  0.00  0.00    -0.275 OA
ATOM     25  H   UNL     1       2.242   0.087  -0.019  0.00  0.00    +0.149 HD
BRANCH  23  26
ATOM     26  C   UNL     1       4.830   0.546  -0.041  0.00  0.00    +0.130 C 
BRANCH  26  27
ATOM     27  C   UNL     1       6.124   1.317  -0.049  0.00  0.00    -0.039 A 
ATOM     28  C   UNL     1       6.710   1.672  -1.250  0.00  0.00    +0.004 A 
ATOM     29  C   UNL     1       7.895   2.384  -1.258  0.00  0.00    +0.000 A 
ATOM     30  C   UNL     1       8.500   2.732  -0.064  0.00  0.00    +0.000 A 
ATOM     31  C   UNL     1       7.917   2.372   1.136  0.00  0.00    +0.000 A 
ATOM     32  C   UNL     1       6.729   1.664   1.144  0.00  0.00    +0.004 A 
ENDBRANCH  26  27
ENDBRANCH  23  26
ENDBRANCH  21  22
ENDBRANCH  18  21
ENDBRANCH   1  17
TORSDOF 9
