REMARK  Name = ZINC37055557
REMARK  6 active torsions:
REMARK  status: ('A' for Active; 'I' for Inactive)
REMARK    1  A    between atoms: C_1  and  N_2
REMARK    2  A    between atoms: C_5  and  N_8
REMARK    3  A    between atoms: N_8  and  C_9
REMARK    4  A    between atoms: N_8  and  S_10
REMARK    5  A    between atoms: S_10  and  C_13
REMARK    6  A    between atoms: C_14  and  N_21
REMARK                            x       y       z     vdW  Elec       q    Type
REMARK                         _______ _______ _______ _____ _____    ______ ____
ROOT
ATOM      1  S   UNL     1       3.166  -5.371  -0.206  0.00  0.00    +0.064 S 
ATOM      2  O   UNL     1       2.913  -6.696  -0.652  0.00  0.00    -0.153 OA
ATOM      3  O   UNL     1       4.273  -4.610  -0.669  0.00  0.00    -0.153 OA
ENDROOT
BRANCH   1   4
ATOM      4  C   UNL     1       3.305  -5.448   1.549  0.00  0.00    +0.140 A 
ATOM      5  C   UNL     1       3.987  -4.452   2.236  0.00  0.00    +0.053 A 
ATOM      6  C   UNL     1       4.095  -4.516   3.619  0.00  0.00    +0.040 A 
ATOM      7  C   UNL     1       3.523  -5.569   4.308  0.00  0.00    +0.021 A 
ATOM      8  C   UNL     1       2.845  -6.560   3.620  0.00  0.00    +0.032 A 
ATOM      9  C   UNL     1       2.732  -6.496   2.243  0.00  0.00    +0.047 A 
ATOM     10 BR   UNL     1       1.796  -7.848   1.308  0.00  0.00    -0.048 Br
ATOM     11 BR   UNL     1       3.669  -5.657   6.191  0.00  0.00    -0.050 Br
BRANCH   5  12
ATOM     12  N   UNL     1       4.564  -3.389   1.538  0.00  0.00    -0.356 N 
ATOM     13  H   UNL     1       4.261  -3.176   0.641  0.00  0.00    +0.142 HD
ATOM     14  H   UNL     1       5.267  -2.863   1.949  0.00  0.00    +0.142 HD
ENDBRANCH   5  12
ENDBRANCH   1   4
BRANCH   1  15
ATOM     15  N   UNL     1       1.808  -4.489  -0.551  0.00  0.00    -0.177 NA
ATOM     16  C   UNL     1       0.514  -5.161  -0.695  0.00  0.00    +0.132 C 
BRANCH  15  21
ATOM     17  C   UNL     1       0.526   0.932  -1.442  0.00  0.00    -0.096 C 
ATOM     18  N   UNL     1       0.560  -0.525  -1.258  0.00  0.00    +0.378 N 
ATOM     19  C   UNL     1       1.459  -1.122  -2.253  0.00  0.00    -0.078 C 
ATOM     20  C   UNL     1       1.436  -2.646  -2.119  0.00  0.00    +0.002 C 
ATOM     21  C   UNL     1       1.899  -3.035  -0.712  0.00  0.00    +0.076 C 
ATOM     22  C   UNL     1       1.001  -2.348   0.320  0.00  0.00    +0.002 C 
ATOM     23  C   UNL     1       1.040  -0.835   0.095  0.00  0.00    -0.078 C 
ATOM     24  H   UNL     1      -0.368  -0.900  -1.378  0.00  0.00    -0.082 HD
ENDBRANCH  15  21
ENDBRANCH   1  15
TORSDOF 4
