REMARK  Name = ZINC18209991
REMARK  8 active torsions:
REMARK  status: ('A' for Active; 'I' for Inactive)
REMARK    1  A    between atoms: C_1  and  C_2
REMARK    2  A    between atoms: C_3  and  N_16
REMARK    3  A    between atoms: C_4  and  C_15
REMARK    4  A    between atoms: N_5  and  C_7
REMARK    5  A    between atoms: C_7  and  C_8
REMARK    6  A    between atoms: C_17  and  C_19
REMARK    7  A    between atoms: C_25  and  C_34
REMARK    8  A    between atoms: C_28  and  C_30
REMARK                            x       y       z     vdW  Elec       q    Type
REMARK                         _______ _______ _______ _____ _____    ______ ____
ROOT
ATOM      1  N   UNL     1      -0.221  -0.377  -2.465  0.00  0.00    -0.278 N 
ATOM      2  C   UNL     1       0.131   0.881  -2.793  0.00  0.00    +0.253 C 
ATOM      3  O   UNL     1       0.646   1.606  -1.962  0.00  0.00    -0.270 OA
ATOM      4  H   UNL     1      -0.572  -0.975  -3.143  0.00  0.00    +0.155 HD
ENDROOT
BRANCH   2   5
ATOM      5  C   UNL     1      -0.106   1.378  -4.154  0.00  0.00    +0.096 A 
ATOM      6  C   UNL     1      -0.698   0.662  -5.225  0.00  0.00    +0.149 A 
ATOM      7  N   UNL     1      -0.734   1.445  -6.269  0.00  0.00    -0.177 NA
ATOM      8  N   UNL     1      -0.182   2.680  -5.936  0.00  0.00    -0.238 N 
ATOM      9  C   UNL     1       0.199   2.637  -4.637  0.00  0.00    +0.130 A 
ATOM     10  N   UNL     1       0.787   3.709  -3.989  0.00  0.00    -0.321 N 
ATOM     11  C   UNL     1       1.244   4.819  -4.849  0.00  0.00    +0.111 C 
ATOM     12  C   UNL     1       0.163   5.096  -5.900  0.00  0.00    +0.063 C 
ATOM     13  C   UNL     1      -0.018   3.860  -6.792  0.00  0.00    +0.215 C 
ATOM     14  H   UNL     1       0.893   3.731  -3.026  0.00  0.00    +0.148 HD
BRANCH  11  15
ATOM     15  C   UNL     1       1.468   6.051  -4.010  0.00  0.00    +0.010 A 
ATOM     16  C   UNL     1       2.457   6.974  -4.096  0.00  0.00    +0.013 A 
ATOM     17  C   UNL     1       2.462   8.035  -3.210  0.00  0.00    +0.008 A 
ATOM     18  C   UNL     1       1.478   8.121  -2.282  0.00  0.00    +0.045 A 
ATOM     19  S   UNL     1       0.496   6.676  -2.650  0.00  0.00    -0.100 S 
ENDBRANCH  11  15
BRANCH  13  20
ATOM     20  C   UNL     1      -1.267   4.043  -7.656  0.00  0.00    +0.412 C 
ATOM     21  F   UNL     1      -2.384   4.217  -6.832  0.00  0.00    -0.168 F 
ATOM     22  F   UNL     1      -1.109   5.168  -8.472  0.00  0.00    -0.168 F 
ATOM     23  F   UNL     1      -1.451   2.909  -8.456  0.00  0.00    -0.168 F 
ENDBRANCH  13  20
ENDBRANCH   2   5
BRANCH   1  26
ATOM     24  C   UNL     1      -2.007   0.551  -0.088  0.00  0.00    +0.069 C 
ATOM     25  C   UNL     1      -0.863  -0.429  -0.044  0.00  0.00    +0.081 A 
ATOM     26  C   UNL     1      -0.079  -0.824  -1.137  0.00  0.00    +0.077 A 
ATOM     27  C   UNL     1       0.842  -1.715  -0.688  0.00  0.00    +0.058 A 
ATOM     28  N   UNL     1       0.641  -1.874   0.646  0.00  0.00    -0.262 N 
ATOM     29  N   UNL     1      -0.429  -1.053   1.021  0.00  0.00    -0.174 NA
ATOM     30  C   UNL     1       1.895  -2.403  -1.519  0.00  0.00    +0.067 C 
BRANCH  28  31
ATOM     31  C   UNL     1       1.411  -2.747   1.536  0.00  0.00    +0.179 C 
BRANCH  31  32
ATOM     32  C   UNL     1       2.579  -1.981   2.103  0.00  0.00    -0.026 A 
ATOM     33  C   UNL     1       3.789  -1.972   1.435  0.00  0.00    +0.008 A 
ATOM     34  C   UNL     1       4.860  -1.269   1.955  0.00  0.00    +0.038 A 
ATOM     35  C   UNL     1       4.720  -0.575   3.145  0.00  0.00    +0.123 A 
ATOM     36  C   UNL     1       3.508  -0.586   3.813  0.00  0.00    +0.038 A 
ATOM     37  C   UNL     1       2.437  -1.284   3.289  0.00  0.00    +0.008 A 
ATOM     38  F   UNL     1       5.767   0.111   3.654  0.00  0.00    -0.205 F 
ENDBRANCH  31  32
ENDBRANCH  28  31
ENDBRANCH   1  26
TORSDOF 6
