REMARK  Name = ZINC20617653
REMARK  9 active torsions:
REMARK  status: ('A' for Active; 'I' for Inactive)
REMARK    1  A    between atoms: C_1  and  C_2
REMARK    2  A    between atoms: C_7  and  N_8
REMARK    3  A    between atoms: C_9  and  C_11
REMARK    4  A    between atoms: C_14  and  C_31
REMARK    5  A    between atoms: C_17  and  C_30
REMARK    6  A    between atoms: N_21  and  C_22
REMARK    7  A    between atoms: C_26  and  S_28
REMARK    8  A    between atoms: S_28  and  C_29
REMARK    9  A    between atoms: C_31  and  O_32
REMARK                            x       y       z     vdW  Elec       q    Type
REMARK                         _______ _______ _______ _____ _____    ______ ____
ROOT
ATOM      1  C   UNL     1       4.690   4.188   0.275  0.00  0.00    +0.098 A 
ATOM      2  C   UNL     1       3.654   3.318   0.014  0.00  0.00    +0.030 A 
ATOM      3  C   UNL     1       2.296   3.866   0.036  0.00  0.00    +0.027 A 
ATOM      4  C   UNL     1       1.167   3.037   0.047  0.00  0.00    +0.007 A 
ATOM      5  C   UNL     1      -0.080   3.626   0.067  0.00  0.00    +0.117 A 
ATOM      6  N   UNL     1      -0.217   4.939   0.087  0.00  0.00    -0.256 NA
ATOM      7  C   UNL     1       0.814   5.760   0.077  0.00  0.00    +0.081 A 
ATOM      8  C   UNL     1       2.108   5.261   0.049  0.00  0.00    +0.159 A 
ATOM      9  O   UNL     1       3.183   6.083   0.033  0.00  0.00    -0.437 OA
ATOM     10  C   UNL     1       4.338   5.595   0.555  0.00  0.00    +0.212 A 
ATOM     11  N   UNL     1       5.121   6.354   1.290  0.00  0.00    -0.325 N 
ATOM     12  C   UNL     1       0.585   7.250   0.095  0.00  0.00    +0.069 C 
ATOM     13  H   UNL     1       6.091   5.969   1.637  0.00  0.00    +0.169 HD
ENDROOT
BRANCH  11  14
ATOM     14  C   UNL     1       4.728   7.621   1.623  0.00  0.00    +0.043 A 
ATOM     15  C   UNL     1       4.968   8.682   0.746  0.00  0.00    +0.026 A 
ATOM     16  C   UNL     1       4.567   9.959   1.082  0.00  0.00    +0.003 A 
ATOM     17  C   UNL     1       3.937  10.195   2.290  0.00  0.00    +0.015 A 
ATOM     18  C   UNL     1       3.699   9.147   3.173  0.00  0.00    +0.010 A 
ATOM     19  C   UNL     1       4.093   7.859   2.842  0.00  0.00    +0.040 A 
BRANCH  18  20
ATOM     20  S   UNL     1       2.895   9.456   4.710  0.00  0.00    -0.129 S 
ATOM     21  C   UNL     1       2.581  11.242   4.690  0.00  0.00    +0.090 C 
ENDBRANCH  18  20
ENDBRANCH  11  14
BRANCH   1  23
ATOM     22  N   UNL     1       7.084   4.609   0.533  0.00  0.00    -0.281 N 
ATOM     23  C   UNL     1       6.092   3.734   0.274  0.00  0.00    +0.253 C 
ATOM     24  O   UNL     1       6.354   2.570   0.040  0.00  0.00    -0.270 OA
ATOM     25  H   UNL     1       6.844   5.644   0.816  0.00  0.00    +0.155 HD
BRANCH  22  32
ATOM     26  C   UNL     1       9.002   6.488  -0.409  0.00  0.00    +0.045 C 
ATOM     27  C   UNL     1       9.387   5.085  -0.014  0.00  0.00    -0.029 A 
ATOM     28  C   UNL     1      10.705   4.680  -0.099  0.00  0.00    +0.005 A 
ATOM     29  C   UNL     1      11.058   3.392   0.258  0.00  0.00    +0.000 A 
ATOM     30  C   UNL     1      10.095   2.507   0.706  0.00  0.00    +0.002 A 
ATOM     31  C   UNL     1       8.777   2.907   0.799  0.00  0.00    +0.023 A 
ATOM     32  C   UNL     1       8.418   4.200   0.441  0.00  0.00    +0.037 A 
ENDBRANCH  22  32
ENDBRANCH   1  23
BRANCH   4  33
ATOM     33  C   UNL     1       1.312   1.537   0.029  0.00  0.00    +0.193 C 
BRANCH  33  34
ATOM     34  O   UNL     1       0.017   0.934   0.045  0.00  0.00    -0.390 OA
ATOM     35  H   UNL     1      -0.080  -0.162   0.036  0.00  0.00    +0.210 HD
ENDBRANCH  33  34
ENDBRANCH   4  33
TORSDOF 6
