REMARK  Name = ZINC13064416
REMARK  9 active torsions:
REMARK  status: ('A' for Active; 'I' for Inactive)
REMARK    1  A    between atoms: C_1  and  C_2
REMARK    2  A    between atoms: C_2  and  C_3
REMARK    3  A    between atoms: C_3  and  C_5
REMARK    4  A    between atoms: C_3  and  N_69
REMARK    5  A    between atoms: N_9  and  C_10
REMARK    6  A    between atoms: C_16  and  C_17
REMARK    7  A    between atoms: C_16  and  N_69
REMARK    8  A    between atoms: C_22  and  C_23
REMARK    9  A    between atoms: C_22  and  N_69
REMARK                            x       y       z     vdW  Elec       q    Type
REMARK                         _______ _______ _______ _____ _____    ______ ____
ROOT
ATOM      1  N   UNL     1      -0.926   1.166  -1.304  0.00  0.00    +0.392 N 
ATOM      2  H   UNL     1      -1.919   0.930  -1.414  0.00  0.00    -0.080 HD
ENDROOT
BRANCH   1   3
ATOM      3  C   UNL     1      -0.180   0.665  -2.478  0.00  0.00    +0.003 C 
BRANCH   3   4
ATOM      4  C   UNL     1      -0.791  -0.641  -2.914  0.00  0.00    +0.138 A 
ATOM      5  N   UNL     1      -1.133  -1.643  -2.141  0.00  0.00    -0.115 NA
ATOM      6  N   UNL     1      -1.619  -2.574  -2.887  0.00  0.00    -0.023 NA
ATOM      7  N   UNL     1      -1.597  -2.192  -4.117  0.00  0.00    -0.044 NA
ATOM      8  N   UNL     1      -1.098  -1.003  -4.174  0.00  0.00    -0.228 N 
BRANCH   8   9
ATOM      9  C   UNL     1      -0.900  -0.200  -5.383  0.00  0.00    +0.111 C 
ATOM     10  C   UNL     1      -2.249   0.035  -6.066  0.00  0.00    +0.027 C 
ATOM     11  C   UNL     1      -2.042   0.874  -7.329  0.00  0.00    +0.002 C 
ATOM     12  C   UNL     1      -1.108   0.132  -8.287  0.00  0.00    +0.000 C 
ATOM     13  C   UNL     1       0.241  -0.103  -7.604  0.00  0.00    +0.002 C 
ATOM     14  C   UNL     1       0.034  -0.942  -6.341  0.00  0.00    +0.027 C 
ENDBRANCH   8   9
ENDBRANCH   3   4
BRANCH   3  16
ATOM     15  C   UNL     1       1.953   1.795  -1.830  0.00  0.00    +0.002 C 
ATOM     16  C   UNL     1       1.292   0.446  -2.121  0.00  0.00    -0.011 C 
ENDBRANCH   3  16
ENDBRANCH   1   3
BRANCH   1  17
ATOM     17  C   UNL     1      -0.415   0.529  -0.071  0.00  0.00    -0.034 C 
BRANCH  17  18
ATOM     18  C   UNL     1      -1.382   0.803   1.052  0.00  0.00    -0.027 A 
ATOM     19  C   UNL     1      -2.432   0.057   1.474  0.00  0.00    +0.009 A 
ATOM     20  C   UNL     1      -3.190   0.509   2.538  0.00  0.00    +0.008 A 
ATOM     21  C   UNL     1      -2.861   1.685   3.127  0.00  0.00    +0.045 A 
ATOM     22  S   UNL     1      -1.436   2.188   2.176  0.00  0.00    -0.103 S 
ENDBRANCH  17  18
ENDBRANCH   1  17
BRANCH   1  23
ATOM     23  C   UNL     1      -0.789   2.635  -1.207  0.00  0.00    -0.036 C 
BRANCH  23  24
ATOM     24  C   UNL     1      -1.667   3.272  -2.253  0.00  0.00    +0.001 A 
ATOM     25  C   UNL     1      -2.937   3.636  -1.940  0.00  0.00    +0.017 A 
ATOM     26  C   UNL     1      -3.764   4.251  -2.977  0.00  0.00    +0.002 A 
ATOM     27  C   UNL     1      -5.081   4.646  -2.712  0.00  0.00    +0.059 A 
ATOM     28  C   UNL     1      -5.838   5.221  -3.710  0.00  0.00    +0.163 A 
ATOM     29  C   UNL     1      -5.294   5.413  -4.984  0.00  0.00    +0.164 A 
ATOM     30  C   UNL     1      -3.993   5.027  -5.255  0.00  0.00    +0.075 A 
ATOM     31  C   UNL     1      -3.218   4.445  -4.261  0.00  0.00    +0.053 A 
ATOM     32  N   UNL     1      -1.919   4.052  -4.514  0.00  0.00    -0.322 N 
ATOM     33  H   UNL     1      -1.543   4.186  -5.398  0.00  0.00    +0.169 HD
ATOM     34  C   UNL     1      -1.165   3.492  -3.552  0.00  0.00    +0.251 A 
ATOM     35  O   UNL     1      -0.021   3.162  -3.811  0.00  0.00    -0.268 OA
ATOM     36  O   UNL     1      -6.033   5.983  -5.974  0.00  0.00    -0.485 OA
ATOM     37  C   UNL     1      -7.451   6.017  -5.781  0.00  0.00    +0.270 C 
ATOM     38  C   UNL     1      -7.732   6.508  -4.354  0.00  0.00    +0.270 C 
ATOM     39  O   UNL     1      -7.119   5.595  -3.438  0.00  0.00    -0.485 OA
ENDBRANCH  23  24
ENDBRANCH   1  23
TORSDOF 8
