REMARK  Name = ZINC20685914
REMARK  6 active torsions:
REMARK  status: ('A' for Active; 'I' for Inactive)
REMARK    1  A    between atoms: C_1  and  C_2
REMARK    2  A    between atoms: C_2  and  C_4
REMARK    3  A    between atoms: C_17  and  C_20
REMARK    4  A    between atoms: C_23  and  N_26
REMARK    5  A    between atoms: N_26  and  C_27
REMARK    6  A    between atoms: N_26  and  C_28
REMARK                            x       y       z     vdW  Elec       q    Type
REMARK                         _______ _______ _______ _____ _____    ______ ____
ROOT
ATOM      1  C   UNL     1       1.585  -2.880   0.567  0.00  0.00    +0.017 A 
ATOM      2  C   UNL     1       0.218  -2.593   0.445  0.00  0.00    +0.013 A 
ATOM      3  C   UNL     1      -0.195  -1.305   0.275  0.00  0.00    +0.024 A 
ATOM      4  C   UNL     1       0.731  -0.264   0.221  0.00  0.00    +0.031 A 
ATOM      5  C   UNL     1       2.100  -0.552   0.334  0.00  0.00    -0.019 A 
ATOM      6  C   UNL     1       2.518  -1.837   0.509  0.00  0.00    +0.017 A 
ATOM      7  C   UNL     1       3.046   0.583   0.247  0.00  0.00    +0.049 C 
ATOM      8  C   UNL     1       4.381   0.541   0.897  0.00  0.00    -0.023 C 
ATOM      9  C   UNL     1       4.713   1.774   1.262  0.00  0.00    -0.030 C 
ATOM     10  C   UNL     1       3.586   2.746   0.907  0.00  0.00    +0.033 C 
ATOM     11  C   UNL     1       2.365   1.818   0.911  0.00  0.00    +0.029 C 
ATOM     12  C   UNL     1       1.211   2.183  -0.006  0.00  0.00    +0.105 C 
ATOM     13  N   UNL     1       0.273   1.042   0.061  0.00  0.00    -0.336 N 
ATOM     14  H   UNL     1      -0.811   1.215  -0.016  0.00  0.00    +0.147 HD
ENDROOT
BRANCH  12  15
ATOM     15  C   UNL     1       1.706   2.368  -1.417  0.00  0.00    -0.027 A 
ATOM     16  C   UNL     1       2.129   3.614  -1.842  0.00  0.00    +0.007 A 
ATOM     17  C   UNL     1       2.588   3.786  -3.133  0.00  0.00    +0.023 A 
ATOM     18  C   UNL     1       2.615   2.707  -4.008  0.00  0.00    +0.029 A 
ATOM     19  C   UNL     1       2.184   1.458  -3.580  0.00  0.00    +0.023 A 
ATOM     20  C   UNL     1       1.731   1.292  -2.286  0.00  0.00    +0.007 A 
BRANCH  18  21
ATOM     21  N   UNL     1       3.073   2.879  -5.316  0.00  0.00    -0.336 N 
ATOM     22  C   UNL     1       2.987   1.773  -6.274  0.00  0.00    +0.129 C 
ATOM     23  C   UNL     1       3.640   4.165  -5.731  0.00  0.00    +0.129 C 
ENDBRANCH  18  21
ENDBRANCH  12  15
BRANCH   1  25
ATOM     24  C   UNL     1       1.026  -5.382   0.818  0.00  0.00    +0.091 C 
ATOM     25  C   UNL     1       2.035  -4.264   0.755  0.00  0.00    +0.160 C 
ATOM     26  O   UNL     1       3.218  -4.508   0.861  0.00  0.00    -0.292 OA
ENDBRANCH   1  25
TORSDOF 3
