REMARK  Name = ZINC40068882
REMARK  7 active torsions:
REMARK  status: ('A' for Active; 'I' for Inactive)
REMARK    1  A    between atoms: C_1  and  N_2
REMARK    2  A    between atoms: N_2  and  C_3
REMARK    3  A    between atoms: C_3  and  C_4
REMARK    4  A    between atoms: N_11  and  C_12
REMARK    5  A    between atoms: C_12  and  C_13
REMARK    6  A    between atoms: C_13  and  C_15
REMARK    7  A    between atoms: C_13  and  C_20
REMARK                            x       y       z     vdW  Elec       q    Type
REMARK                         _______ _______ _______ _____ _____    ______ ____
ROOT
ATOM      1  C   UNL     1      -0.047   0.283  -4.762  0.00  0.00    +0.075 C 
ENDROOT
BRANCH   1   2
ATOM      2  C   UNL     1       0.075  -0.457  -6.069  0.00  0.00    -0.013 A 
ATOM      3  C   UNL     1      -0.770  -1.388  -6.541  0.00  0.00    +0.088 A 
ATOM      4  N   UNL     1      -0.336  -1.838  -7.758  0.00  0.00    -0.360 N 
ATOM      5  H   UNL     1      -0.782  -2.512  -8.294  0.00  0.00    +0.165 HD
ATOM      6  C   UNL     1       0.829  -1.192  -8.108  0.00  0.00    +0.047 A 
ATOM      7  C   UNL     1       1.133  -0.294  -7.068  0.00  0.00    +0.003 A 
ATOM      8  C   UNL     1       2.271   0.510  -7.154  0.00  0.00    +0.010 A 
ATOM      9  C   UNL     1       3.082   0.424  -8.250  0.00  0.00    +0.001 A 
ATOM     10  C   UNL     1       2.784  -0.457  -9.280  0.00  0.00    +0.002 A 
ATOM     11  C   UNL     1       1.671  -1.267  -9.212  0.00  0.00    +0.026 A 
ENDBRANCH   1   2
BRANCH   1  12
ATOM     12  C   UNL     1      -1.345   1.048  -4.737  0.00  0.00    -0.001 A 
ATOM     13  C   UNL     1      -1.547   2.383  -4.617  0.00  0.00    +0.012 A 
ATOM     14  C   UNL     1      -2.841   2.869  -4.620  0.00  0.00    +0.008 A 
ATOM     15  C   UNL     1      -3.870   1.995  -4.742  0.00  0.00    +0.045 A 
ATOM     16  S   UNL     1      -3.016   0.433  -4.866  0.00  0.00    -0.101 S 
ENDBRANCH   1  12
BRANCH   1  17
ATOM     17  C   UNL     1      -0.022  -0.717  -3.605  0.00  0.00    +0.119 C 
BRANCH  17  22
ATOM     18  C   UNL     1      -0.018   1.461   0.010  0.00  0.00    +0.134 C 
ATOM     19  N   UNL     1       0.002  -0.004   0.002  0.00  0.00    -0.284 N 
ATOM     20  C   UNL     1       0.000  -0.672  -1.169  0.00  0.00    +0.302 C 
ATOM     21  O   UNL     1       0.017  -1.887  -1.175  0.00  0.00    -0.253 OA
ATOM     22  N   UNL     1      -0.020   0.009  -2.332  0.00  0.00    -0.298 N 
ATOM     23  H   UNL     1      -0.033   0.978  -2.327  0.00  0.00    +0.150 HD
BRANCH  19  24
ATOM     24  C   UNL     1       0.024  -0.743   1.267  0.00  0.00    +0.144 C 
BRANCH  24  25
ATOM     25  C   UNL     1      -1.389  -1.016   1.714  0.00  0.00    -0.023 A 
ATOM     26  C   UNL     1      -2.057  -0.113   2.519  0.00  0.00    +0.013 A 
ATOM     27  C   UNL     1      -3.327  -0.388   2.903  0.00  0.00    +0.045 A 
ATOM     28  S   UNL     1      -3.616  -1.966   2.119  0.00  0.00    -0.105 S 
ATOM     29  C   UNL     1      -2.026  -2.149   1.328  0.00  0.00    +0.050 A 
ENDBRANCH  24  25
ENDBRANCH  19  24
ENDBRANCH  17  22
ENDBRANCH   1  17
TORSDOF 6
