REMARK  Name = ZINC09258691
REMARK  12 active torsions:
REMARK  status: ('A' for Active; 'I' for Inactive)
REMARK    1  A    between atoms: C_1  and  C_2
REMARK    2  A    between atoms: C_2  and  C_3
REMARK    3  A    between atoms: C_2  and  C_4
REMARK    4  A    between atoms: C_4  and  C_5
REMARK    5  A    between atoms: C_5  and  C_7
REMARK    6  A    between atoms: C_5  and  N_24
REMARK    7  A    between atoms: C_7  and  O_9
REMARK    8  A    between atoms: O_9  and  C_10
REMARK    9  A    between atoms: C_10  and  C_11
REMARK   10  A    between atoms: N_13  and  C_14
REMARK   11  A    between atoms: C_16  and  N_21
REMARK   12  A    between atoms: C_25  and  C_27
REMARK                            x       y       z     vdW  Elec       q    Type
REMARK                         _______ _______ _______ _____ _____    ______ ____
ROOT
ATOM      1  C   UNL     1      -3.667   1.483   0.056  0.00  0.00    +0.328 C 
ATOM      2  O   UNL     1      -3.841   2.679   0.071  0.00  0.00    -0.249 OA
ENDROOT
BRANCH   1   3
ATOM      3  C   UNL     1      -4.850   0.549   0.059  0.00  0.00    +0.182 C 
BRANCH   3   4
ATOM      4  N   UNL     1      -6.089   1.331   0.081  0.00  0.00    -0.298 N 
ATOM      5  C   UNL     1      -7.229   0.801  -0.405  0.00  0.00    +0.245 C 
ATOM      6  O   UNL     1      -7.229  -0.326  -0.862  0.00  0.00    -0.270 OA
ATOM      7  H   UNL     1      -6.089   2.230   0.446  0.00  0.00    +0.150 HD
BRANCH   5   8
ATOM      8  C   UNL     1      -8.479   1.589  -0.383  0.00  0.00    +0.037 A 
ATOM      9  C   UNL     1      -8.483   2.881   0.147  0.00  0.00    +0.014 A 
ATOM     10  C   UNL     1      -9.651   3.614   0.158  0.00  0.00    +0.021 A 
ATOM     11  C   UNL     1     -10.821   3.066  -0.342  0.00  0.00    +0.041 A 
ATOM     12  C   UNL     1     -10.824   1.783  -0.862  0.00  0.00    +0.021 A 
ATOM     13  C   UNL     1      -9.661   1.042  -0.886  0.00  0.00    +0.014 A 
ATOM     14 CL   UNL     1     -12.289   3.992  -0.316  0.00  0.00    -0.084 Cl
ENDBRANCH   5   8
ENDBRANCH   3   4
BRANCH   3  15
ATOM     15  C   UNL     1      -4.790  -0.346   1.299  0.00  0.00    +0.036 C 
BRANCH  15  17
ATOM     16  C   UNL     1      -5.692  -2.313   0.051  0.00  0.00    +0.007 C 
ATOM     17  C   UNL     1      -5.919  -1.376   1.239  0.00  0.00    -0.015 C 
ATOM     18  C   UNL     1      -5.936  -2.190   2.535  0.00  0.00    +0.007 C 
ENDBRANCH  15  17
ENDBRANCH   3  15
ENDBRANCH   1   3
BRANCH   1  19
ATOM     19  O   UNL     1      -2.420   0.987   0.037  0.00  0.00    -0.454 OA
BRANCH  19  20
ATOM     20  C   UNL     1      -1.329   1.945   0.035  0.00  0.00    +0.328 C 
BRANCH  20  21
ATOM     21  C   UNL     1      -0.015   1.209   0.013  0.00  0.00    +0.255 C 
ATOM     22  O   UNL     1       0.002  -0.004  -0.000  0.00  0.00    -0.272 OA
ATOM     23  N   UNL     1       1.143   1.898   0.001  0.00  0.00    -0.280 N 
ATOM     24  H   UNL     1       1.131   2.866  -0.069  0.00  0.00    +0.155 HD
BRANCH  23  25
ATOM     25  C   UNL     1       2.364   1.218   0.092  0.00  0.00    +0.071 A 
ATOM     26  C   UNL     1       2.421  -0.033   0.690  0.00  0.00    +0.059 A 
ATOM     27  C   UNL     1       3.626  -0.704   0.774  0.00  0.00    +0.128 A 
ATOM     28  C   UNL     1       4.777  -0.126   0.272  0.00  0.00    +0.035 A 
ATOM     29  C   UNL     1       4.727   1.122  -0.321  0.00  0.00    +0.042 A 
ATOM     30  C   UNL     1       3.524   1.797  -0.413  0.00  0.00    +0.145 A 
ATOM     31  F   UNL     1       3.474   3.017  -0.992  0.00  0.00    -0.204 F 
BRANCH  27  32
ATOM     32  N   UNL     1       3.685  -2.040   1.407  0.00  0.00    +0.056 N 
ATOM     33  O   UNL     1       4.747  -2.630   1.486  0.00  0.00    -0.126 OA
ATOM     34  O   UNL     1       2.671  -2.550   1.850  0.00  0.00    -0.126 OA
ENDBRANCH  27  32
ENDBRANCH  23  25
ENDBRANCH  20  21
ENDBRANCH  19  20
ENDBRANCH   1  19
TORSDOF 10
