REMARK  Name = ZINC00821865
REMARK  3 active torsions:
REMARK  status: ('A' for Active; 'I' for Inactive)
REMARK    1  A    between atoms: N_9  and  N_10
REMARK    2  A    between atoms: C_11  and  C_13
REMARK    3  A    between atoms: C_18  and  O_19
REMARK                            x       y       z     vdW  Elec       q    Type
REMARK                         _______ _______ _______ _____ _____    ______ ____
ROOT
ATOM      1  C   UNL     1      -0.017   1.381   0.010  0.00  0.00    +0.017 A 
ATOM      2  C   UNL     1       1.162   2.100   0.002  0.00  0.00    +0.025 A 
ATOM      3  C   UNL     1       2.384   1.437  -0.013  0.00  0.00    +0.043 A 
ATOM      4  C   UNL     1       2.399   0.036  -0.021  0.00  0.00    +0.029 A 
ATOM      5  C   UNL     1       1.207  -0.680  -0.013  0.00  0.00    +0.027 A 
ATOM      6  C   UNL     1       0.002  -0.004   0.002  0.00  0.00    +0.019 A 
ATOM      7 BR   UNL     1      -1.623  -0.971   0.012  0.00  0.00    -0.050 Br
ATOM      8  C   UNL     1       3.824  -0.367  -0.037  0.00  0.00    +0.153 C 
ATOM      9  N   UNL     1       4.310  -1.585  -0.049  0.00  0.00    -0.174 NA
ATOM     10  C   UNL     1       4.579   0.902  -0.038  0.00  0.00    +0.269 C 
ATOM     11  O   UNL     1       5.791   1.015  -0.050  0.00  0.00    -0.268 OA
ATOM     12  N   UNL     1       3.692   1.911  -0.024  0.00  0.00    -0.280 N 
ATOM     13  H   UNL     1       3.932   2.851  -0.021  0.00  0.00    +0.155 HD
ENDROOT
BRANCH   9  14
ATOM     14  N   UNL     1       5.696  -1.786  -0.064  0.00  0.00    -0.202 N 
ATOM     15  C   UNL     1       6.195  -3.038  -0.075  0.00  0.00    +0.267 C 
ATOM     16  O   UNL     1       5.442  -3.993  -0.073  0.00  0.00    -0.268 OA
ATOM     17  H   UNL     1       6.297  -1.025  -0.066  0.00  0.00    +0.178 HD
BRANCH  15  18
ATOM     18  C   UNL     1       7.654  -3.250  -0.091  0.00  0.00    +0.081 A 
ATOM     19  C   UNL     1       8.523  -2.156  -0.088  0.00  0.00    +0.032 A 
ATOM     20  C   UNL     1       9.886  -2.361  -0.103  0.00  0.00    +0.019 A 
ATOM     21  C   UNL     1      10.399  -3.649  -0.121  0.00  0.00    +0.019 A 
ATOM     22  C   UNL     1       9.551  -4.739  -0.125  0.00  0.00    +0.047 A 
ATOM     23  C   UNL     1       8.177  -4.551  -0.103  0.00  0.00    +0.129 A 
ATOM     24 BR   UNL     1      11.062  -0.880  -0.099  0.00  0.00    -0.050 Br
BRANCH  23  25
ATOM     25  O   UNL     1       7.343  -5.621  -0.101  0.00  0.00    -0.506 OA
ATOM     26  H   UNL     1       7.092  -5.926  -0.983  0.00  0.00    +0.292 HD
ENDBRANCH  23  25
ENDBRANCH  15  18
ENDBRANCH   9  14
TORSDOF 3
