REMARK  Name = ZINC00987338
REMARK  7 active torsions:
REMARK  status: ('A' for Active; 'I' for Inactive)
REMARK    1  A    between atoms: C_1  and  C_2
REMARK    2  A    between atoms: C_5  and  N_9
REMARK    3  A    between atoms: C_13  and  S_17
REMARK    4  A    between atoms: S_17  and  C_18
REMARK    5  A    between atoms: C_20  and  C_30
REMARK    6  A    between atoms: C_23  and  C_29
REMARK    7  A    between atoms: C_24  and  C_28
REMARK                            x       y       z     vdW  Elec       q    Type
REMARK                         _______ _______ _______ _____ _____    ______ ____
ROOT
ATOM      1  N   UNL     1       0.059  -4.173  -0.022  0.00  0.00    -0.209 N 
ATOM      2  C   UNL     1      -0.030  -4.892  -1.148  0.00  0.00    +0.228 C 
ATOM      3  O   UNL     1      -0.134  -4.435  -2.266  0.00  0.00    -0.275 OA
ATOM      4  C   UNL     1       0.020  -6.364  -0.804  0.00  0.00    +0.120 C 
ATOM      5  C   UNL     1       0.155  -6.372   0.733  0.00  0.00    +0.150 C 
ATOM      6  C   UNL     1       0.172  -4.903   1.094  0.00  0.00    +0.240 C 
ATOM      7  O   UNL     1       0.271  -4.458   2.217  0.00  0.00    -0.274 OA
ENDROOT
BRANCH   1  12
ATOM      8  C   UNL     1      -0.013   1.503   0.012  0.00  0.00    +0.045 C 
ATOM      9  C   UNL     1       0.005  -0.004   0.003  0.00  0.00    -0.032 A 
ATOM     10  C   UNL     1       1.157  -0.682   0.358  0.00  0.00    +0.006 A 
ATOM     11  C   UNL     1       1.177  -2.063   0.351  0.00  0.00    +0.024 A 
ATOM     12  C   UNL     1       0.040  -2.771  -0.013  0.00  0.00    +0.045 A 
ATOM     13  C   UNL     1      -1.115  -2.089  -0.369  0.00  0.00    +0.044 A 
ATOM     14  C   UNL     1      -1.131  -0.707  -0.356  0.00  0.00    +0.046 A 
ATOM     15 CL   UNL     1      -2.577   0.148  -0.795  0.00  0.00    -0.083 Cl
ENDBRANCH   1  12
BRANCH   5  16
ATOM     16  S   UNL     1       1.706  -7.170   1.233  0.00  0.00    -0.073 S 
BRANCH  16  17
ATOM     17  C   UNL     1       1.612  -7.216   2.992  0.00  0.00    +0.190 A 
ATOM     18  N   UNL     1       0.530  -6.716   3.589  0.00  0.00    -0.227 NA
ATOM     19  C   UNL     1       0.402  -6.723   4.899  0.00  0.00    +0.050 A 
ATOM     20  C   UNL     1       1.440  -7.274   5.673  0.00  0.00    +0.022 A 
ATOM     21  C   UNL     1       1.380  -7.319   7.073  0.00  0.00    +0.015 A 
ATOM     22  C   UNL     1       2.414  -7.865   7.772  0.00  0.00    -0.047 A 
ATOM     23  C   UNL     1       3.530  -8.379   7.115  0.00  0.00    -0.045 A 
ATOM     24  C   UNL     1       3.622  -8.351   5.756  0.00  0.00    +0.032 A 
ATOM     25  C   UNL     1       2.576  -7.797   5.003  0.00  0.00    +0.076 A 
ATOM     26  N   UNL     1       2.613  -7.750   3.666  0.00  0.00    -0.222 NA
ATOM     27  C   UNL     1       4.655  -8.976   7.921  0.00  0.00    +0.044 C 
ATOM     28  C   UNL     1       2.350  -7.914   9.277  0.00  0.00    +0.044 C 
ATOM     29  C   UNL     1      -0.829  -6.152   5.554  0.00  0.00    +0.066 C 
ENDBRANCH  16  17
ENDBRANCH   5  16
TORSDOF 3
