REMARK  Name = ZINC08346238
REMARK  7 active torsions:
REMARK  status: ('A' for Active; 'I' for Inactive)
REMARK    1  A    between atoms: C_5  and  C_7
REMARK    2  A    between atoms: C_8  and  C_9
REMARK    3  A    between atoms: C_13  and  N_15
REMARK    4  A    between atoms: C_16  and  C_18
REMARK    5  A    between atoms: C_18  and  C_19
REMARK    6  A    between atoms: C_19  and  C_21
REMARK    7  A    between atoms: C_19  and  N_28
REMARK                            x       y       z     vdW  Elec       q    Type
REMARK                         _______ _______ _______ _____ _____    ______ ____
ROOT
ATOM      1  N   UNL     1      -1.141   2.093  -0.063  0.00  0.00    -0.285 N 
ATOM      2  C   UNL     1      -1.195   3.433   0.069  0.00  0.00    +0.219 C 
ATOM      3  O   UNL     1      -0.174   4.087   0.049  0.00  0.00    -0.275 OA
ATOM      4  H   UNL     1      -1.960   1.577  -0.112  0.00  0.00    +0.155 HD
ENDROOT
BRANCH   1   9
ATOM      5  C   UNL     1       1.495  -0.450   0.365  0.00  0.00    -0.023 A 
ATOM      6  C   UNL     1       2.563   0.175  -0.285  0.00  0.00    +0.008 A 
ATOM      7  C   UNL     1       2.393   1.422  -0.849  0.00  0.00    +0.002 A 
ATOM      8  C   UNL     1       1.167   2.059  -0.774  0.00  0.00    +0.023 A 
ATOM      9  C   UNL     1       0.099   1.446  -0.130  0.00  0.00    +0.034 A 
ATOM     10  C   UNL     1       0.258   0.194   0.440  0.00  0.00    +0.031 A 
BRANCH   5  12
ATOM     11  C   UNL     1       2.865  -2.398   0.896  0.00  0.00    +0.028 C 
ATOM     12  C   UNL     1       1.674  -1.782   0.969  0.00  0.00    +0.010 C 
BRANCH  11  17
ATOM     13  C   UNL     1       4.436  -5.617   1.991  0.00  0.00    +0.004 A 
ATOM     14  C   UNL     1       3.342  -6.193   2.625  0.00  0.00    +0.020 A 
ATOM     15  C   UNL     1       2.142  -5.508   2.668  0.00  0.00    +0.111 A 
ATOM     16  N   UNL     1       2.022  -4.318   2.116  0.00  0.00    -0.256 NA
ATOM     17  C   UNL     1       3.043  -3.730   1.500  0.00  0.00    +0.064 A 
ATOM     18  C   UNL     1       4.283  -4.370   1.415  0.00  0.00    +0.028 A 
ENDBRANCH  11  17
ENDBRANCH   5  12
ENDBRANCH   1   9
BRANCH   2  19
ATOM     19  C   UNL     1      -2.526   4.120   0.242  0.00  0.00    +0.123 C 
BRANCH  19  20
ATOM     20  C   UNL     1      -2.308   5.629   0.368  0.00  0.00    +0.113 C 
BRANCH  20  21
ATOM     21  C   UNL     1      -3.623   6.303   0.663  0.00  0.00    -0.027 A 
ATOM     22  C   UNL     1      -3.846   7.599   0.237  0.00  0.00    +0.007 A 
ATOM     23  C   UNL     1      -5.054   8.216   0.503  0.00  0.00    +0.020 A 
ATOM     24  C   UNL     1      -6.037   7.540   1.204  0.00  0.00    +0.041 A 
ATOM     25  C   UNL     1      -5.811   6.244   1.634  0.00  0.00    +0.020 A 
ATOM     26  C   UNL     1      -4.605   5.627   1.364  0.00  0.00    +0.007 A 
ATOM     27 CL   UNL     1      -7.551   8.316   1.544  0.00  0.00    -0.084 Cl
ENDBRANCH  20  21
BRANCH  20  28
ATOM     28  N   UNL     1      -1.763   6.151  -0.887  0.00  0.00    -0.292 N 
ATOM     29  C   UNL     1      -2.421   5.944  -2.046  0.00  0.00    +0.298 C 
ATOM     30  O   UNL     1      -3.514   5.413  -2.037  0.00  0.00    -0.253 OA
ATOM     31  N   UNL     1      -1.866   6.325  -3.213  0.00  0.00    -0.313 N 
ATOM     32  H   UNL     1      -0.928   6.645  -0.885  0.00  0.00    +0.151 HD
ATOM     33  H   UNL     1      -0.994   6.749  -3.220  0.00  0.00    +0.146 HD
ATOM     34  H   UNL     1      -2.340   6.177  -4.046  0.00  0.00    +0.146 HD
ENDBRANCH  20  28
ENDBRANCH  19  20
ENDBRANCH   2  19
TORSDOF 7
