REMARK  Name = ZINC61569791
REMARK  5 active torsions:
REMARK  status: ('A' for Active; 'I' for Inactive)
REMARK    1  A    between atoms: C_3  and  S_20
REMARK    2  A    between atoms: C_5  and  C_6
REMARK    3  A    between atoms: C_12  and  C_13
REMARK    4  A    between atoms: C_13  and  C_14
REMARK    5  A    between atoms: S_20  and  N_23
REMARK                            x       y       z     vdW  Elec       q    Type
REMARK                         _______ _______ _______ _____ _____    ______ ____
ROOT
ATOM      1  C   UNL     1      -1.169  -0.958  -0.095  0.00  0.00    +0.282 C 
ATOM      2  O   UNL     1      -2.304  -0.533  -0.204  0.00  0.00    -0.267 OA
ATOM      3  N   UNL     1      -0.955  -2.281   0.041  0.00  0.00    -0.292 N 
ATOM      4  C   UNL     1       0.363  -2.939   0.080  0.00  0.00    +0.108 C 
ATOM      5  C   UNL     1       0.093  -4.396  -0.373  0.00  0.00    +0.021 C 
ATOM      6  C   UNL     1      -1.287  -4.674   0.278  0.00  0.00    +0.024 C 
ATOM      7  C   UNL     1      -1.999  -3.308   0.181  0.00  0.00    +0.077 C 
ENDROOT
BRANCH   1  12
ATOM      8  C   UNL     1      -0.108   1.328  -0.241  0.00  0.00    +0.057 A 
ATOM      9  C   UNL     1       1.209   1.810  -0.203  0.00  0.00    +0.072 A 
ATOM     10  C   UNL     1       2.020   0.740  -0.053  0.00  0.00    +0.258 A 
ATOM     11  O   UNL     1       1.268  -0.367   0.002  0.00  0.00    -0.432 OA
ATOM     12  C   UNL     1      -0.034  -0.030  -0.111  0.00  0.00    +0.192 A 
BRANCH  10  13
ATOM     13  S   UNL     1       3.779   0.791   0.051  0.00  0.00    +0.089 S 
ATOM     14  O   UNL     1       4.247  -0.487  -0.355  0.00  0.00    -0.150 OA
ATOM     15  O   UNL     1       4.188   1.992  -0.589  0.00  0.00    -0.150 OA
BRANCH  13  16
ATOM     16  N   UNL     1       4.169   0.952   1.652  0.00  0.00    -0.201 NA
ATOM     17  H   UNL     1       5.000   0.581   1.988  0.00  0.00    +0.144 HD
ATOM     18  H   UNL     1       3.567   1.417   2.254  0.00  0.00    +0.144 HD
ENDBRANCH  13  16
ENDBRANCH  10  13
ENDBRANCH   1  12
BRANCH   7  19
ATOM     19  C   UNL     1      -2.813  -3.052   1.451  0.00  0.00    +0.026 C 
BRANCH  19  20
ATOM     20  C   UNL     1      -3.934  -4.088   1.555  0.00  0.00    -0.009 C 
ATOM     21  C   UNL     1      -4.931  -3.877   0.413  0.00  0.00    +0.003 C 
ATOM     22  C   UNL     1      -6.052  -4.913   0.518  0.00  0.00    +0.000 C 
ATOM     23  C   UNL     1      -6.771  -4.753   1.859  0.00  0.00    +0.000 C 
ATOM     24  C   UNL     1      -5.775  -4.963   3.000  0.00  0.00    +0.000 C 
ATOM     25  C   UNL     1      -4.654  -3.927   2.896  0.00  0.00    +0.003 C 
ENDBRANCH  19  20
ENDBRANCH   7  19
TORSDOF 5
