REMARK  Name = ZINC46791921
REMARK  7 active torsions:
REMARK  status: ('A' for Active; 'I' for Inactive)
REMARK    1  A    between atoms: C_1  and  C_2
REMARK    2  A    between atoms: C_7  and  C_10
REMARK    3  A    between atoms: C_14  and  C_17
REMARK    4  A    between atoms: C_17  and  N_18
REMARK    5  A    between atoms: C_19  and  C_21
REMARK    6  A    between atoms: C_21  and  C_22
REMARK    7  A    between atoms: C_22  and  N_23
REMARK                            x       y       z     vdW  Elec       q    Type
REMARK                         _______ _______ _______ _____ _____    ______ ____
ROOT
ATOM      1  N   UNL     1      -3.369  -5.796  -4.369  0.00  0.00    -0.311 N 
ATOM      2  C   UNL     1      -3.827  -6.645  -5.310  0.00  0.00    +0.215 C 
ATOM      3  O   UNL     1      -4.914  -7.167  -5.179  0.00  0.00    -0.276 OA
ATOM      4  H   UNL     1      -2.500  -5.378  -4.474  0.00  0.00    +0.149 HD
ENDROOT
BRANCH   1   5
ATOM      5  C   UNL     1      -4.185  -5.503  -3.188  0.00  0.00    +0.141 C 
BRANCH   5  17
ATOM      6  C   UNL     1      -0.045  -2.168   3.728  0.00  0.00    +0.039 C 
ATOM      7  C   UNL     1      -0.987  -1.773   2.589  0.00  0.00    +0.133 C 
ATOM      8  C   UNL     1      -0.596  -2.529   1.315  0.00  0.00    +0.137 C 
ATOM      9  N   UNL     1      -1.389  -1.995   0.196  0.00  0.00    -0.312 N 
ATOM     10  C   UNL     1      -1.418  -0.537   0.002  0.00  0.00    +0.137 C 
ATOM     11  C   UNL     1      -1.770   0.122   1.341  0.00  0.00    +0.133 C 
ATOM     12  O   UNL     1      -0.886  -0.366   2.353  0.00  0.00    -0.371 OA
ATOM     13  C   UNL     1      -3.214  -0.218   1.714  0.00  0.00    +0.039 C 
ATOM     14  C   UNL     1      -2.091  -2.844  -0.652  0.00  0.00    +0.099 A 
ATOM     15  C   UNL     1      -2.927  -2.308  -1.627  0.00  0.00    +0.042 A 
ATOM     16  C   UNL     1      -3.619  -3.164  -2.464  0.00  0.00    +0.010 A 
ATOM     17  C   UNL     1      -3.451  -4.533  -2.299  0.00  0.00    -0.014 A 
ATOM     18  C   UNL     1      -2.604  -4.995  -1.311  0.00  0.00    +0.089 A 
ATOM     19  N   UNL     1      -1.953  -4.155  -0.530  0.00  0.00    -0.349 N 
ATOM     20  H   UNL     1      -1.361  -4.507   0.154  0.00  0.00    +0.167 HD
ENDBRANCH   5  17
ENDBRANCH   1   5
BRANCH   2  21
ATOM     21  C   UNL     1      -2.989  -6.946  -6.526  0.00  0.00    +0.114 C 
BRANCH  21  22
ATOM     22  C   UNL     1      -3.734  -7.931  -7.428  0.00  0.00    +0.112 C 
BRANCH  22  23
ATOM     23  N   UNL     1      -2.919  -8.224  -8.610  0.00  0.00    -0.327 N 
ATOM     24  C   UNL     1      -3.387  -9.092  -9.572  0.00  0.00    +0.150 C 
ATOM     25  N   UNL     1      -4.549  -9.649  -9.442  0.00  0.00    -0.113 NA
ATOM     26  S   UNL     1      -4.746 -10.615 -10.794  0.00  0.00    +0.101 S 
ATOM     27  O   UNL     1      -4.733 -11.969 -10.365  0.00  0.00    -0.146 OA
ATOM     28  O   UNL     1      -5.789 -10.052 -11.580  0.00  0.00    -0.146 OA
ATOM     29  C   UNL     1      -3.213 -10.296 -11.623  0.00  0.00    +0.123 A 
ATOM     30  C   UNL     1      -2.575  -9.392 -10.761  0.00  0.00    +0.043 A 
ATOM     31  C   UNL     1      -1.306  -8.926 -11.140  0.00  0.00    +0.013 A 
ATOM     32  C   UNL     1      -0.733  -9.351 -12.317  0.00  0.00    +0.001 A 
ATOM     33  C   UNL     1      -1.389 -10.240 -13.149  0.00  0.00    +0.002 A 
ATOM     34  C   UNL     1      -2.640 -10.719 -12.786  0.00  0.00    +0.030 A 
ATOM     35  H   UNL     1      -2.049  -7.806  -8.715  0.00  0.00    +0.148 HD
ENDBRANCH  22  23
ENDBRANCH  21  22
ENDBRANCH   2  21
TORSDOF 5
