REMARK  Name = ZINC01430889
REMARK  5 active torsions:
REMARK  status: ('A' for Active; 'I' for Inactive)
REMARK    1  A    between atoms: C_1  and  C_2
REMARK    2  A    between atoms: C_2  and  C_3
REMARK    3  A    between atoms: C_6  and  C_9
REMARK    4  A    between atoms: N_14  and  C_22
REMARK    5  A    between atoms: C_23  and  C_31
REMARK                            x       y       z     vdW  Elec       q    Type
REMARK                         _______ _______ _______ _____ _____    ______ ____
ROOT
ATOM      1  C   UNL     1      -0.230   4.008  -0.920  0.00  0.00    +0.063 C 
ATOM      2  C   UNL     1      -1.223   3.539   0.147  0.00  0.00    +0.109 C 
ATOM      3  C   UNL     1      -1.177   2.034   0.222  0.00  0.00    +0.225 C 
ATOM      4  O   UNL     1      -2.183   1.408   0.477  0.00  0.00    -0.275 OA
ATOM      5  N   UNL     1      -0.017   1.386   0.010  0.00  0.00    -0.236 N 
ATOM      6  C   UNL     1       1.149   2.082  -0.206  0.00  0.00    +0.026 C 
ATOM      7  C   UNL     1       1.107   3.349  -0.668  0.00  0.00    +0.020 C 
ATOM      8  C   UNL     1       2.282   4.075  -0.924  0.00  0.00    +0.161 C 
ATOM      9  O   UNL     1       2.203   5.213  -1.341  0.00  0.00    -0.292 OA
ATOM     10  C   UNL     1       3.637   3.463  -0.689  0.00  0.00    +0.080 C 
ATOM     11  C   UNL     1       3.537   1.944  -0.868  0.00  0.00    +0.014 C 
ATOM     12  C   UNL     1       2.466   1.408   0.085  0.00  0.00    +0.052 C 
ENDROOT
BRANCH   5  13
ATOM     13  C   UNL     1       0.002  -0.004   0.002  0.00  0.00    +0.097 A 
ATOM     14  C   UNL     1      -0.091  -0.861  -1.084  0.00  0.00    +0.084 A 
ATOM     15  C   UNL     1      -0.041  -2.288  -0.821  0.00  0.00    -0.018 A 
ATOM     16  C   UNL     1       0.083  -2.629   0.481  0.00  0.00    -0.004 A 
ATOM     17  S   UNL     1       0.140  -1.086   1.348  0.00  0.00    -0.076 S 
ATOM     18  C   UNL     1       0.153  -4.012   1.050  0.00  0.00    +0.043 C 
ATOM     19  C   UNL     1      -0.312  -5.002  -0.029  0.00  0.00    +0.005 C 
ATOM     20  C   UNL     1       0.404  -4.673  -1.342  0.00  0.00    +0.005 C 
ATOM     21  C   UNL     1      -0.124  -3.354  -1.907  0.00  0.00    +0.037 C 
BRANCH  14  22
ATOM     22  C   UNL     1      -0.228  -0.356  -2.417  0.00  0.00    +0.102 C 
ATOM     23  N   UNL     1      -0.336   0.044  -3.475  0.00  0.00    -0.191 NA
ENDBRANCH  14  22
ENDBRANCH   5  13
BRANCH   1  27
ATOM     24  C   UNL     1       0.204   8.253  -0.712  0.00  0.00    -0.048 A 
ATOM     25  C   UNL     1      -0.243   7.660  -1.878  0.00  0.00    +0.004 A 
ATOM     26  C   UNL     1      -0.384   6.287  -1.945  0.00  0.00    +0.004 A 
ATOM     27  C   UNL     1      -0.076   5.506  -0.847  0.00  0.00    -0.039 A 
ATOM     28  C   UNL     1       0.366   6.099   0.321  0.00  0.00    +0.004 A 
ATOM     29  C   UNL     1       0.511   7.472   0.386  0.00  0.00    +0.004 A 
BRANCH  24  31
ATOM     30  C   UNL     1      -0.951  10.374  -0.151  0.00  0.00    +0.009 C 
ATOM     31  C   UNL     1       0.358   9.750  -0.639  0.00  0.00    +0.032 C 
ENDBRANCH  24  31
ENDBRANCH   1  27
TORSDOF 4
