REMARK  Name = ZINC03328008
REMARK  7 active torsions:
REMARK  status: ('A' for Active; 'I' for Inactive)
REMARK    1  A    between atoms: C_1  and  C_2
REMARK    2  A    between atoms: C_8  and  C_17
REMARK    3  A    between atoms: C_12  and  C_13
REMARK    4  A    between atoms: C_13  and  O_15
REMARK    5  A    between atoms: O_15  and  C_16
REMARK    6  A    between atoms: C_17  and  N_47
REMARK    7  A    between atoms: C_18  and  N_47
REMARK                            x       y       z     vdW  Elec       q    Type
REMARK                         _______ _______ _______ _____ _____    ______ ____
ROOT
ATOM      1  C   UNL     1       3.617   1.354  -1.308  0.00  0.00    +0.046 C 
ATOM      2  C   UNL     1       2.150   1.089  -1.085  0.00  0.00    -0.015 A 
ATOM      3  C   UNL     1       1.275   2.151  -0.851  0.00  0.00    +0.076 A 
ATOM      4  C   UNL     1       1.562   3.601  -0.777  0.00  0.00    +0.260 A 
ATOM      5  O   UNL     1       2.694   4.023  -0.930  0.00  0.00    -0.267 OA
ATOM      6  N   UNL     1       0.537   4.443  -0.536  0.00  0.00    -0.312 N 
ATOM      7  H   UNL     1       0.714   5.426  -0.483  0.00  0.00    +0.170 HD
ATOM      8  C   UNL     1      -0.727   3.985  -0.364  0.00  0.00    +0.094 A 
ATOM      9  N   UNL     1      -1.013   2.713  -0.418  0.00  0.00    -0.229 NA
ATOM     10  C   UNL     1      -0.081   1.799  -0.654  0.00  0.00    +0.116 A 
ATOM     11  S   UNL     1      -0.070   0.031  -0.804  0.00  0.00    -0.062 S 
ATOM     12  C   UNL     1       1.674  -0.191  -1.113  0.00  0.00    +0.102 A 
ENDROOT
BRANCH  12  13
ATOM     13  C   UNL     1       2.412  -1.435  -1.341  0.00  0.00    +0.346 C 
ATOM     14  O   UNL     1       3.611  -1.404  -1.538  0.00  0.00    -0.244 OA
BRANCH  13  15
ATOM     15  O   UNL     1       1.760  -2.616  -1.331  0.00  0.00    -0.464 OA
ATOM     16  C   UNL     1       2.555  -3.809  -1.564  0.00  0.00    +0.280 C 
ENDBRANCH  13  15
ENDBRANCH  12  13
BRANCH   8  17
ATOM     17  C   UNL     1      -1.833   4.974  -0.097  0.00  0.00    -0.006 C 
BRANCH  17  18
ATOM     18  N   UNL     1      -3.106   4.245   0.055  0.00  0.00    +0.388 N 
ATOM     19  H   UNL     1      -3.060   3.654   0.893  0.00  0.00    -0.084 HD
ATOM     20  H   UNL     1      -3.260   3.655  -0.772  0.00  0.00    -0.084 HD
BRANCH  18  21
ATOM     21  C   UNL     1      -4.227   5.194   0.190  0.00  0.00    -0.040 C 
ATOM     22  C   UNL     1      -4.377   5.592   1.657  0.00  0.00    -0.011 C 
ATOM     23  C   UNL     1      -5.675   6.394   1.810  0.00  0.00    +0.003 C 
ATOM     24  C   UNL     1      -6.854   5.444   1.614  0.00  0.00    +0.035 C 
ATOM     25  C   UNL     1      -6.694   4.657   0.339  0.00  0.00    -0.046 A 
ATOM     26  C   UNL     1      -5.487   4.539  -0.312  0.00  0.00    -0.058 A 
ATOM     27  C   UNL     1      -5.406   3.792  -1.480  0.00  0.00    +0.002 A 
ATOM     28  C   UNL     1      -6.525   3.171  -1.994  0.00  0.00    +0.000 A 
ATOM     29  C   UNL     1      -7.738   3.292  -1.342  0.00  0.00    +0.000 A 
ATOM     30  C   UNL     1      -7.820   4.033  -0.181  0.00  0.00    +0.004 A 
ENDBRANCH  18  21
ENDBRANCH  17  18
ENDBRANCH   8  17
TORSDOF 5
