REMARK  Name = ZINC39573686
REMARK  4 active torsions:
REMARK  status: ('A' for Active; 'I' for Inactive)
REMARK    1  A    between atoms: C_1  and  C_2
REMARK    2  A    between atoms: C_10  and  C_14
REMARK    3  A    between atoms: C_14  and  C_15
REMARK    4  A    between atoms: N_23  and  C_24
REMARK                            x       y       z     vdW  Elec       q    Type
REMARK                         _______ _______ _______ _____ _____    ______ ____
ROOT
ATOM      1  C   UNL     1      -0.019   1.526   0.010  0.00  0.00    +0.007 C 
ATOM      2  C   UNL     1       0.002  -0.004   0.002  0.00  0.00    -0.012 C 
ATOM      3  C   UNL     1      -1.433  -0.525  -0.005  0.00  0.00    +0.008 C 
ATOM      4  C   UNL     1      -2.203   0.012   1.209  0.00  0.00    +0.033 C 
ATOM      5  C   UNL     1      -1.371  -0.334   2.442  0.00  0.00    -0.042 C 
ATOM      6  C   UNL     1      -1.821  -1.009   3.500  0.00  0.00    +0.071 C 
ATOM      7  C   UNL     1      -0.840  -1.433   4.534  0.00  0.00    +0.111 C 
ATOM      8  N   UNL     1      -1.188  -2.138   5.585  0.00  0.00    -0.227 NA
ATOM      9  C   UNL     1      -2.472  -2.471   5.710  0.00  0.00    +0.131 C 
ATOM     10  N   UNL     1      -3.422  -2.156   4.868  0.00  0.00    -0.161 NA
ATOM     11  C   UNL     1      -3.237  -1.445   3.740  0.00  0.00    +0.271 C 
ATOM     12  O   UNL     1      -4.147  -1.177   2.974  0.00  0.00    -0.268 OA
ATOM     13  S   UNL     1       0.704  -0.777   3.985  0.00  0.00    -0.097 S 
ATOM     14  C   UNL     1       0.100   0.086   2.483  0.00  0.00    +0.080 C 
ATOM     15  C   UNL     1       0.760  -0.504   1.236  0.00  0.00    +0.022 C 
ENDROOT
BRANCH   9  16
ATOM     16  C   UNL     1      -2.862  -3.278   6.921  0.00  0.00    +0.148 C 
BRANCH  16  17
ATOM     17  C   UNL     1      -4.343  -3.555   6.886  0.00  0.00    +0.118 A 
ATOM     18  N   UNL     1      -5.257  -2.788   7.405  0.00  0.00    -0.232 NA
ATOM     19  C   UNL     1      -6.483  -3.332   7.194  0.00  0.00    +0.089 A 
ATOM     20  C   UNL     1      -7.782  -2.940   7.529  0.00  0.00    +0.030 A 
ATOM     21  C   UNL     1      -8.843  -3.721   7.168  0.00  0.00    +0.002 A 
ATOM     22  C   UNL     1      -8.646  -4.903   6.469  0.00  0.00    +0.002 A 
ATOM     23  C   UNL     1      -7.373  -5.310   6.127  0.00  0.00    +0.028 A 
ATOM     24  C   UNL     1      -6.283  -4.529   6.486  0.00  0.00    +0.069 A 
ATOM     25  N   UNL     1      -4.919  -4.639   6.301  0.00  0.00    -0.330 N 
ATOM     26  C   UNL     1      -4.222  -5.725   5.607  0.00  0.00    +0.150 C 
ENDBRANCH  16  17
ENDBRANCH   9  16
TORSDOF 2
