REMARK  Name = ZINC66618180
REMARK  9 active torsions:
REMARK  status: ('A' for Active; 'I' for Inactive)
REMARK    1  A    between atoms: C_1  and  C_2
REMARK    2  A    between atoms: C_5  and  C_9
REMARK    3  A    between atoms: C_6  and  C_8
REMARK    4  A    between atoms: C_9  and  C_10
REMARK    5  A    between atoms: C_10  and  C_12
REMARK    6  A    between atoms: C_10  and  N_13
REMARK    7  A    between atoms: C_20  and  C_23
REMARK    8  A    between atoms: C_23  and  C_24
REMARK    9  A    between atoms: C_24  and  C_25
REMARK                            x       y       z     vdW  Elec       q    Type
REMARK                         _______ _______ _______ _____ _____    ______ ____
ROOT
ATOM      1  N   UNL     1      -2.143  -4.416  -1.073  0.00  0.00    -0.296 N 
ATOM      2  C   UNL     1      -3.484  -4.311  -0.997  0.00  0.00    +0.302 C 
ATOM      3  O   UNL     1      -4.062  -4.623   0.027  0.00  0.00    -0.253 OA
ATOM      4  N   UNL     1      -4.186  -3.861  -2.056  0.00  0.00    -0.285 N 
ATOM      5  C   UNL     1      -3.519  -3.595  -3.338  0.00  0.00    +0.109 C 
ATOM      6  C   UNL     1      -4.249  -4.364  -4.443  0.00  0.00    +0.019 C 
ATOM      7  C   UNL     1      -5.734  -3.996  -4.419  0.00  0.00    +0.006 C 
ATOM      8  C   UNL     1      -6.339  -4.396  -3.071  0.00  0.00    +0.007 C 
ATOM      9  C   UNL     1      -5.634  -3.633  -1.952  0.00  0.00    +0.112 C 
ATOM     10  H   UNL     1      -1.689  -4.236  -1.911  0.00  0.00    +0.151 HD
ENDROOT
BRANCH   1  11
ATOM     11  C   UNL     1      -1.370  -4.801   0.111  0.00  0.00    +0.076 C 
ATOM     12  C   UNL     1      -1.336  -6.326   0.224  0.00  0.00    +0.028 C 
BRANCH  11  13
ATOM     13  C   UNL     1       0.058  -4.266  -0.016  0.00  0.00    +0.057 C 
BRANCH  13  18
ATOM     14  C   UNL     1      -0.038   1.511   0.030  0.00  0.00    +0.044 C 
ATOM     15  C   UNL     1      -0.013   0.004   0.018  0.00  0.00    -0.050 A 
ATOM     16  C   UNL     1      -0.006  -0.677  -1.185  0.00  0.00    +0.003 A 
ATOM     17  C   UNL     1       0.018  -2.059  -1.196  0.00  0.00    +0.004 A 
ATOM     18  C   UNL     1       0.034  -2.760  -0.004  0.00  0.00    -0.043 A 
ATOM     19  C   UNL     1       0.027  -2.078   1.198  0.00  0.00    -0.047 A 
ATOM     20  C   UNL     1       0.008  -0.696   1.210  0.00  0.00    +0.007 A 
ATOM     21  C   UNL     1       0.044  -2.842   2.497  0.00  0.00    +0.044 C 
ENDBRANCH  13  18
ENDBRANCH  11  13
ENDBRANCH   1  11
BRANCH   8  22
ATOM     22  C   UNL     1      -7.832  -4.058  -3.061  0.00  0.00    +0.014 C 
BRANCH  22  23
ATOM     23  C   UNL     1      -8.461  -4.571  -1.764  0.00  0.00    +0.096 C 
BRANCH  23  24
ATOM     24  C   UNL     1      -9.931  -4.238  -1.754  0.00  0.00    +0.210 C 
ATOM     25  O   UNL     1     -10.426  -3.649  -2.692  0.00  0.00    -0.276 OA
ATOM     26  N   UNL     1     -10.696  -4.595  -0.703  0.00  0.00    -0.329 N 
ATOM     27  H   UNL     1     -10.300  -5.066   0.046  0.00  0.00    +0.145 HD
ATOM     28  H   UNL     1     -11.642  -4.381  -0.697  0.00  0.00    +0.145 HD
ENDBRANCH  23  24
ENDBRANCH  22  23
ENDBRANCH   8  22
TORSDOF 6
