REMARK  Name = ZINC19855762
REMARK  11 active torsions:
REMARK  status: ('A' for Active; 'I' for Inactive)
REMARK    1  A    between atoms: C_1  and  C_2
REMARK    2  A    between atoms: C_6  and  N_8
REMARK    3  A    between atoms: N_8  and  C_9
REMARK    4  A    between atoms: N_8  and  S_29
REMARK    5  A    between atoms: C_9  and  C_10
REMARK    6  A    between atoms: N_12  and  N_13
REMARK    7  A    between atoms: C_14  and  C_15
REMARK    8  A    between atoms: C_17  and  C_28
REMARK    9  A    between atoms: N_18  and  C_21
REMARK   10  A    between atoms: C_19  and  C_20
REMARK   11  A    between atoms: S_29  and  C_32
REMARK                            x       y       z     vdW  Elec       q    Type
REMARK                         _______ _______ _______ _____ _____    ______ ____
ROOT
ATOM      1  C   UNL     1      -0.495  -1.352   4.262  0.00  0.00    +0.251 C 
ATOM      2  O   UNL     1      -1.603  -1.299   3.769  0.00  0.00    -0.272 OA
ATOM      3  N   UNL     1      -0.232  -0.680   5.400  0.00  0.00    -0.206 N 
ATOM      4  H   UNL     1       0.654  -0.722   5.794  0.00  0.00    +0.177 HD
ENDROOT
BRANCH   3   5
ATOM      5  N   UNL     1      -1.236   0.080   6.014  0.00  0.00    -0.188 NA
ATOM      6  C   UNL     1      -0.982   0.727   7.110  0.00  0.00    +0.140 C 
BRANCH   6   7
ATOM      7  C   UNL     1      -2.039   1.526   7.756  0.00  0.00    +0.016 A 
ATOM      8  C   UNL     1      -1.917   2.316   8.985  0.00  0.00    +0.032 A 
ATOM      9  C   UNL     1      -3.121   2.876   9.203  0.00  0.00    +0.022 A 
ATOM     10  N   UNL     1      -3.973   2.493   8.207  0.00  0.00    -0.316 N 
ATOM     11  C   UNL     1      -3.325   1.683   7.326  0.00  0.00    +0.030 A 
ATOM     12  C   UNL     1      -3.926   1.062   6.091  0.00  0.00    +0.064 C 
ATOM     13  C   UNL     1      -3.472   3.778  10.358  0.00  0.00    +0.064 C 
BRANCH  10  14
ATOM     14  C   UNL     1      -5.316   2.883   8.103  0.00  0.00    +0.060 A 
ATOM     15  C   UNL     1      -5.655   4.030   7.399  0.00  0.00    +0.027 A 
ATOM     16  C   UNL     1      -6.979   4.411   7.299  0.00  0.00    +0.002 A 
ATOM     17  C   UNL     1      -7.966   3.652   7.900  0.00  0.00    +0.001 A 
ATOM     18  C   UNL     1      -7.632   2.509   8.602  0.00  0.00    +0.017 A 
ATOM     19  C   UNL     1      -6.310   2.118   8.701  0.00  0.00    +0.042 A 
ATOM     20 BR   UNL     1      -5.854   0.550   9.655  0.00  0.00    -0.048 Br
ENDBRANCH  10  14
ENDBRANCH   6   7
ENDBRANCH   3   5
BRANCH   1  21
ATOM     21  C   UNL     1       0.585  -2.169   3.602  0.00  0.00    +0.228 C 
BRANCH  21  22
ATOM     22  N   UNL     1       0.051  -2.796   2.390  0.00  0.00    -0.199 N 
BRANCH  22  28
ATOM     23  C   UNL     1      -0.018   1.503   0.010  0.00  0.00    +0.044 C 
ATOM     24  C   UNL     1       0.002  -0.004   0.002  0.00  0.00    -0.049 A 
ATOM     25  C   UNL     1       0.006  -0.688  -1.200  0.00  0.00    +0.003 A 
ATOM     26  C   UNL     1       0.024  -2.071  -1.212  0.00  0.00    +0.002 A 
ATOM     27  C   UNL     1       0.039  -2.773  -0.023  0.00  0.00    +0.025 A 
ATOM     28  C   UNL     1       0.036  -2.089   1.186  0.00  0.00    +0.052 A 
ATOM     29  C   UNL     1       0.023  -0.700   1.194  0.00  0.00    +0.028 A 
ENDBRANCH  22  28
BRANCH  22  30
ATOM     30  S   UNL     1      -0.534  -4.345   2.449  0.00  0.00    +0.043 S 
ATOM     31  O   UNL     1      -1.030  -4.495   3.772  0.00  0.00    -0.155 OA
ATOM     32  O   UNL     1      -1.408  -4.444   1.333  0.00  0.00    -0.155 OA
ATOM     33  C   UNL     1       0.919  -5.402   2.202  0.00  0.00    +0.218 C 
ENDBRANCH  22  30
ENDBRANCH  21  22
ENDBRANCH   1  21
TORSDOF 7
