REMARK  Name = ZINC15598251
REMARK  5 active torsions:
REMARK  status: ('A' for Active; 'I' for Inactive)
REMARK    1  A    between atoms: C_1  and  C_2
REMARK    2  A    between atoms: N_4  and  C_5
REMARK    3  A    between atoms: C_13  and  C_16
REMARK    4  A    between atoms: C_17  and  C_18
REMARK    5  A    between atoms: N_20  and  C_21
REMARK                            x       y       z     vdW  Elec       q    Type
REMARK                         _______ _______ _______ _____ _____    ______ ____
ROOT
ATOM      1  C   UNL     1      -1.231   0.465  -0.556  0.00  0.00    +0.033 C 
ATOM      2  C   UNL     1      -2.459   0.988  -0.331  0.00  0.00    +0.069 C 
ENDROOT
BRANCH   1   9
ATOM      3  C   UNL     1      -0.124   7.000   0.316  0.00  0.00    +0.110 C 
ATOM      4  C   UNL     1      -0.188   5.502   0.165  0.00  0.00    +0.223 C 
ATOM      5  O   UNL     1      -1.261   4.937   0.172  0.00  0.00    -0.275 OA
ATOM      6  N   UNL     1       0.948   4.790   0.021  0.00  0.00    -0.219 N 
ATOM      7  C   UNL     1       0.885   3.423  -0.225  0.00  0.00    +0.172 A 
ATOM      8  N   UNL     1      -0.168   2.632  -0.256  0.00  0.00    -0.225 NA
ATOM      9  C   UNL     1      -0.048   1.330  -0.517  0.00  0.00    +0.073 A 
ATOM     10  C   UNL     1       1.206   0.810  -0.745  0.00  0.00    +0.076 A 
ATOM     11  S   UNL     1       2.211   2.280  -0.582  0.00  0.00    -0.059 S 
BRANCH   6  12
ATOM     12  C   UNL     1       2.191   5.427   0.120  0.00  0.00    +0.043 A 
ATOM     13  C   UNL     1       2.602   6.308  -0.871  0.00  0.00    +0.024 A 
ATOM     14  C   UNL     1       3.827   6.938  -0.769  0.00  0.00    +0.002 A 
ATOM     15  C   UNL     1       4.648   6.685   0.315  0.00  0.00    +0.000 A 
ATOM     16  C   UNL     1       4.244   5.804   1.301  0.00  0.00    +0.002 A 
ATOM     17  C   UNL     1       3.018   5.175   1.207  0.00  0.00    +0.024 A 
ENDBRANCH   6  12
ENDBRANCH   1   9
BRANCH   2  18
ATOM     18  C   UNL     1      -3.602   0.153  -0.368  0.00  0.00    +0.241 C 
ATOM     19  O   UNL     1      -3.480  -1.036  -0.604  0.00  0.00    -0.270 OA
ATOM     20  N   UNL     1      -4.825   0.673  -0.144  0.00  0.00    -0.282 N 
ATOM     21  H   UNL     1      -4.929   1.630  -0.022  0.00  0.00    +0.155 HD
BRANCH  20  22
ATOM     22  C   UNL     1      -5.943  -0.167  -0.086  0.00  0.00    +0.034 A 
ATOM     23  C   UNL     1      -7.184   0.297  -0.512  0.00  0.00    +0.027 A 
ATOM     24  C   UNL     1      -8.292  -0.522  -0.464  0.00  0.00    +0.049 A 
ATOM     25  C   UNL     1      -8.181  -1.820   0.022  0.00  0.00    +0.136 A 
ATOM     26  C   UNL     1      -6.932  -2.285   0.457  0.00  0.00    +0.030 A 
ATOM     27  C   UNL     1      -5.816  -1.457   0.402  0.00  0.00    +0.035 A 
ATOM     28  C   UNL     1      -7.156  -3.673   0.904  0.00  0.00    +0.028 A 
ATOM     29  C   UNL     1      -6.335  -4.663   1.434  0.00  0.00    +0.012 A 
ATOM     30  C   UNL     1      -6.868  -5.893   1.758  0.00  0.00    +0.001 A 
ATOM     31  C   UNL     1      -8.216  -6.142   1.557  0.00  0.00    +0.004 A 
ATOM     32  C   UNL     1      -9.040  -5.168   1.033  0.00  0.00    +0.047 A 
ATOM     33  C   UNL     1      -8.520  -3.922   0.700  0.00  0.00    +0.136 A 
ATOM     34  O   UNL     1      -9.087  -2.811   0.181  0.00  0.00    -0.455 OA
ENDBRANCH  20  22
ENDBRANCH   2  18
TORSDOF 4
