REMARK  Name = ZINC36586326
REMARK  18 active torsions:
REMARK  status: ('A' for Active; 'I' for Inactive)
REMARK    1  A    between atoms: C_1  and  C_2
REMARK    2  A    between atoms: C_2  and  C_3
REMARK    3  A    between atoms: C_2  and  C_4
REMARK    4  A    between atoms: C_2  and  C_5
REMARK    5  A    between atoms: C_5  and  C_6
REMARK    6  A    between atoms: C_6  and  C_7
REMARK    7  A    between atoms: C_6  and  C_8
REMARK    8  A    between atoms: C_6  and  N_9
REMARK    9  A    between atoms: C_10  and  C_12
REMARK   10  A    between atoms: C_12  and  C_14
REMARK   11  A    between atoms: C_12  and  N_21
REMARK   12  A    between atoms: C_17  and  O_20
REMARK   13  A    between atoms: N_21  and  C_31
REMARK   14  A    between atoms: C_22  and  C_24
REMARK   15  A    between atoms: C_27  and  O_30
REMARK   16  A    between atoms: C_31  and  C_32
REMARK   17  A    between atoms: C_31  and  C_33
REMARK   18  A    between atoms: C_31  and  C_34
REMARK                            x       y       z     vdW  Elec       q    Type
REMARK                         _______ _______ _______ _____ _____    ______ ____
ROOT
ATOM      1  C   UNL     1       5.436  -1.418  -1.972  0.00  0.00    +0.193 C 
ENDROOT
BRANCH   1   2
ATOM      2  C   UNL     1       6.234  -2.696  -1.968  0.00  0.00    -0.018 A 
ATOM      3  C   UNL     1       7.123  -2.951  -0.940  0.00  0.00    +0.009 A 
ATOM      4  C   UNL     1       7.856  -4.122  -0.934  0.00  0.00    +0.046 A 
ATOM      5  C   UNL     1       7.699  -5.043  -1.960  0.00  0.00    +0.117 A 
ATOM      6  C   UNL     1       6.806  -4.785  -2.990  0.00  0.00    +0.046 A 
ATOM      7  C   UNL     1       6.071  -3.615  -2.988  0.00  0.00    +0.009 A 
BRANCH   5   8
ATOM      8  O   UNL     1       8.419  -6.196  -1.956  0.00  0.00    -0.507 OA
ATOM      9  H   UNL     1       7.986  -6.929  -1.498  0.00  0.00    +0.292 HD
ENDBRANCH   5   8
ENDBRANCH   1   2
BRANCH   1  11
ATOM     10  N   UNL     1       3.320  -2.621  -1.535  0.00  0.00    -0.308 N 
ATOM     11  C   UNL     1       4.158  -1.620  -1.200  0.00  0.00    +0.239 C 
ATOM     12  O   UNL     1       3.884  -0.883  -0.277  0.00  0.00    -0.273 OA
ATOM     13  H   UNL     1       3.539  -3.211  -2.273  0.00  0.00    +0.149 HD
BRANCH  10  14
ATOM     14  C   UNL     1       2.077  -2.818  -0.784  0.00  0.00    +0.030 C 
ATOM     15  C   UNL     1       1.218  -1.556  -0.881  0.00  0.00    +0.031 C 
ATOM     16  C   UNL     1       2.407  -3.099   0.683  0.00  0.00    +0.031 C 
BRANCH  14  17
ATOM     17  C   UNL     1       1.310  -4.005  -1.371  0.00  0.00    +0.031 C 
BRANCH  17  19
ATOM     18  C   UNL     1       2.463  -4.003  -3.587  0.00  0.00    +0.010 C 
ATOM     19  C   UNL     1       1.124  -3.798  -2.876  0.00  0.00    -0.036 C 
ATOM     20  C   UNL     1       0.620  -2.378  -3.137  0.00  0.00    +0.010 C 
ATOM     21  C   UNL     1       0.104  -4.807  -3.407  0.00  0.00    +0.010 C 
ENDBRANCH  17  19
ENDBRANCH  14  17
ENDBRANCH  10  14
ENDBRANCH   1  11
BRANCH   1  22
ATOM     22  N   UNL     1       6.221  -0.350  -1.347  0.00  0.00    -0.277 N 
ATOM     23  C   UNL     1       6.592  -0.455  -0.055  0.00  0.00    +0.248 C 
ATOM     24  O   UNL     1       6.272  -1.434   0.592  0.00  0.00    -0.270 OA
BRANCH  23  25
ATOM     25  C   UNL     1       7.387   0.618   0.574  0.00  0.00    +0.037 A 
ATOM     26  C   UNL     1       7.882   1.669  -0.202  0.00  0.00    +0.016 A 
ATOM     27  C   UNL     1       8.623   2.669   0.389  0.00  0.00    +0.046 A 
ATOM     28  C   UNL     1       8.878   2.633   1.755  0.00  0.00    +0.117 A 
ATOM     29  C   UNL     1       8.386   1.589   2.530  0.00  0.00    +0.046 A 
ATOM     30  C   UNL     1       7.640   0.588   1.948  0.00  0.00    +0.016 A 
BRANCH  28  31
ATOM     31  O   UNL     1       9.609   3.619   2.333  0.00  0.00    -0.507 OA
ATOM     32  H   UNL     1       9.081   4.365   2.651  0.00  0.00    +0.292 HD
ENDBRANCH  28  31
ENDBRANCH  23  25
BRANCH  22  33
ATOM     33  C   UNL     1       6.602   0.831  -2.125  0.00  0.00    +0.030 C 
ATOM     34  C   UNL     1       5.958   0.759  -3.510  0.00  0.00    +0.031 C 
ATOM     35  C   UNL     1       6.122   2.093  -1.404  0.00  0.00    +0.031 C 
ATOM     36  C   UNL     1       8.124   0.875  -2.272  0.00  0.00    +0.031 C 
ENDBRANCH  22  33
ENDBRANCH   1  22
TORSDOF 10
