REMARK  Name = ZINC12922074
REMARK  12 active torsions:
REMARK  status: ('A' for Active; 'I' for Inactive)
REMARK    1  A    between atoms: C_1  and  C_2
REMARK    2  A    between atoms: C_2  and  C_25
REMARK    3  A    between atoms: N_5  and  C_9
REMARK    4  A    between atoms: C_9  and  C_10
REMARK    5  A    between atoms: C_10  and  C_12
REMARK    6  A    between atoms: C_10  and  O_24
REMARK    7  A    between atoms: C_12  and  O_13
REMARK    8  A    between atoms: O_13  and  C_14
REMARK    9  A    between atoms: C_17  and  C_20
REMARK   10  A    between atoms: C_20  and  C_21
REMARK   11  A    between atoms: C_20  and  C_22
REMARK   12  A    between atoms: C_20  and  C_23
REMARK                            x       y       z     vdW  Elec       q    Type
REMARK                         _______ _______ _______ _____ _____    ______ ____
ROOT
ATOM      1  C   UNL     1       3.023   0.660  -1.282  0.00  0.00    +0.047 C 
ATOM      2  C   UNL     1       2.165   0.655  -0.015  0.00  0.00    +0.135 C 
ATOM      3  C   UNL     1       1.230   1.848   0.000  0.00  0.00    +0.251 C 
ATOM      4  O   UNL     1       1.538   3.020   0.003  0.00  0.00    -0.272 OA
ATOM      5  N   UNL     1      -0.016   1.334   0.009  0.00  0.00    -0.221 N 
ATOM      6  C   UNL     1       0.002  -0.004   0.002  0.00  0.00    +0.310 C 
ATOM      7  O   UNL     1      -0.999  -0.693   0.008  0.00  0.00    -0.252 OA
ATOM      8  N   UNL     1       1.252  -0.501  -0.013  0.00  0.00    -0.281 N 
ATOM      9  H   UNL     1       1.503  -1.438  -0.021  0.00  0.00    +0.152 HD
ENDROOT
BRANCH   2  10
ATOM     10  C   UNL     1       3.037   0.645   1.214  0.00  0.00    -0.015 A 
ATOM     11  C   UNL     1       3.469   1.837   1.766  0.00  0.00    +0.006 A 
ATOM     12  C   UNL     1       4.263   1.825   2.896  0.00  0.00    +0.004 A 
ATOM     13  C   UNL     1       4.637   0.623   3.472  0.00  0.00    -0.044 A 
ATOM     14  C   UNL     1       4.210  -0.569   2.917  0.00  0.00    -0.044 A 
ATOM     15  C   UNL     1       3.410  -0.555   1.787  0.00  0.00    +0.010 A 
ATOM     16  C   UNL     1       4.750  -1.731   3.723  0.00  0.00    +0.036 C 
ATOM     17  C   UNL     1       5.184  -1.120   5.072  0.00  0.00    +0.009 C 
ATOM     18  C   UNL     1       5.493   0.343   4.689  0.00  0.00    +0.036 C 
ENDBRANCH   2  10
BRANCH   5  19
ATOM     19  C   UNL     1      -1.239   2.140   0.020  0.00  0.00    +0.152 C 
BRANCH  19  20
ATOM     20  C   UNL     1      -1.657   2.413   1.466  0.00  0.00    +0.170 C 
BRANCH  20  21
ATOM     21  O   UNL     1      -1.899   1.174   2.134  0.00  0.00    -0.387 OA
ATOM     22  H   UNL     1      -2.596   0.639   1.732  0.00  0.00    +0.210 HD
ENDBRANCH  20  21
BRANCH  20  23
ATOM     23  C   UNL     1      -2.935   3.256   1.477  0.00  0.00    +0.261 C 
BRANCH  23  24
ATOM     24  O   UNL     1      -3.261   3.609   2.822  0.00  0.00    -0.489 OA
BRANCH  24  25
ATOM     25  C   UNL     1      -4.376   4.363   3.009  0.00  0.00    +0.121 A 
ATOM     26  C   UNL     1      -5.138   4.759   1.919  0.00  0.00    +0.046 A 
ATOM     27  C   UNL     1      -6.274   5.521   2.112  0.00  0.00    +0.008 A 
ATOM     28  C   UNL     1      -6.647   5.897   3.390  0.00  0.00    -0.042 A 
ATOM     29  C   UNL     1      -5.886   5.508   4.477  0.00  0.00    +0.008 A 
ATOM     30  C   UNL     1      -4.752   4.742   4.290  0.00  0.00    +0.046 A 
BRANCH  28  31
ATOM     31  C   UNL     1      -7.883   6.733   3.597  0.00  0.00    -0.013 C 
ATOM     32  C   UNL     1      -7.501   8.051   4.272  0.00  0.00    +0.015 C 
ATOM     33  C   UNL     1      -8.536   7.023   2.244  0.00  0.00    +0.015 C 
ATOM     34  C   UNL     1      -8.870   5.972   4.486  0.00  0.00    +0.015 C 
ENDBRANCH  28  31
ENDBRANCH  24  25
ENDBRANCH  23  24
ENDBRANCH  20  23
ENDBRANCH  19  20
ENDBRANCH   5  19
TORSDOF 8
