REMARK  Name = ZINC05076600
REMARK  11 active torsions:
REMARK  status: ('A' for Active; 'I' for Inactive)
REMARK    1  A    between atoms: C_4  and  C_7
REMARK    2  A    between atoms: C_7  and  C_8
REMARK    3  A    between atoms: N_11  and  C_14
REMARK    4  A    between atoms: C_14  and  C_15
REMARK    5  A    between atoms: C_16  and  C_17
REMARK    6  A    between atoms: C_17  and  O_18
REMARK    7  A    between atoms: O_18  and  C_19
REMARK    8  A    between atoms: C_19  and  C_20
REMARK    9  A    between atoms: C_20  and  O_21
REMARK   10  A    between atoms: O_21  and  C_22
REMARK   11  A    between atoms: C_22  and  C_23
REMARK                            x       y       z     vdW  Elec       q    Type
REMARK                         _______ _______ _______ _____ _____    ______ ____
ROOT
ATOM      1  C   UNL     1       5.474  -3.233   4.762  0.00  0.00    +0.012 C 
ENDROOT
BRANCH   1   5
ATOM      2  C   UNL     1       4.171  -0.963   1.399  0.00  0.00    -0.010 C 
ATOM      3  C   UNL     1       3.192  -1.919   2.088  0.00  0.00    -0.015 C 
ATOM      4  C   UNL     1       3.701  -2.233   3.496  0.00  0.00    -0.077 C 
ATOM      5  N   UNL     1       5.024  -2.862   3.413  0.00  0.00    +0.387 N 
ATOM      6  C   UNL     1       5.985  -1.925   2.819  0.00  0.00    -0.077 C 
ATOM      7  C   UNL     1       5.565  -1.599   1.385  0.00  0.00    -0.015 C 
ATOM      8  H   UNL     1       4.967  -3.691   2.841  0.00  0.00    -0.080 HD
BRANCH   2   9
ATOM      9  C   UNL     1       3.711  -0.707  -0.038  0.00  0.00    +0.038 C 
BRANCH   9  13
ATOM     10  C   UNL     1      -0.017   1.378   0.010  0.00  0.00    +0.000 A 
ATOM     11  C   UNL     1       1.171   2.086   0.002  0.00  0.00    +0.000 A 
ATOM     12  C   UNL     1       2.377   1.411  -0.013  0.00  0.00    +0.003 A 
ATOM     13  C   UNL     1       2.396   0.029  -0.020  0.00  0.00    -0.047 A 
ATOM     14  C   UNL     1       1.208  -0.679  -0.012  0.00  0.00    +0.003 A 
ATOM     15  C   UNL     1       0.002  -0.004   0.002  0.00  0.00    +0.000 A 
ENDBRANCH   9  13
ENDBRANCH   2   9
ENDBRANCH   1   5
BRANCH   1  16
ATOM     16  C   UNL     1       6.745  -3.970   4.670  0.00  0.00    -0.119 C 
ATOM     17  C   UNL     1       7.758  -4.558   4.597  0.00  0.00    -0.076 C 
BRANCH  17  18
ATOM     18  C   UNL     1       9.029  -5.296   4.505  0.00  0.00    +0.248 C 
BRANCH  18  19
ATOM     19  O   UNL     1       9.466  -5.656   5.817  0.00  0.00    -0.365 OA
BRANCH  19  20
ATOM     20  C   UNL     1      10.698  -6.380   5.841  0.00  0.00    +0.189 C 
BRANCH  20  21
ATOM     21  C   UNL     1      11.067  -6.711   7.288  0.00  0.00    +0.188 C 
BRANCH  21  22
ATOM     22  O   UNL     1      10.094  -7.603   7.836  0.00  0.00    -0.373 OA
BRANCH  22  23
ATOM     23  C   UNL     1      10.347  -7.978   9.192  0.00  0.00    +0.195 C 
BRANCH  23  24
ATOM     24  C   UNL     1       9.265  -8.914   9.664  0.00  0.00    -0.022 A 
ATOM     25  C   UNL     1       8.122  -8.408  10.254  0.00  0.00    +0.006 A 
ATOM     26  C   UNL     1       7.129  -9.267  10.688  0.00  0.00    +0.000 A 
ATOM     27  C   UNL     1       7.279 -10.632  10.531  0.00  0.00    +0.000 A 
ATOM     28  C   UNL     1       8.422 -11.138   9.940  0.00  0.00    +0.000 A 
ATOM     29  C   UNL     1       9.413 -10.279   9.502  0.00  0.00    +0.006 A 
ENDBRANCH  23  24
ENDBRANCH  22  23
ENDBRANCH  21  22
ENDBRANCH  20  21
ENDBRANCH  19  20
ENDBRANCH  18  19
ENDBRANCH  17  18
ENDBRANCH   1  16
TORSDOF 11
