REMARK  Name = ZINC05034056
REMARK  7 active torsions:
REMARK  status: ('A' for Active; 'I' for Inactive)
REMARK    1  A    between atoms: C_1  and  C_2
REMARK    2  A    between atoms: N_4  and  C_21
REMARK    3  A    between atoms: C_8  and  C_9
REMARK    4  A    between atoms: C_11  and  N_18
REMARK    5  A    between atoms: C_14  and  N_15
REMARK    6  A    between atoms: N_15  and  C_16
REMARK    7  A    between atoms: N_15  and  C_17
REMARK                            x       y       z     vdW  Elec       q    Type
REMARK                         _______ _______ _______ _____ _____    ______ ____
ROOT
ATOM      1  C   UNL     1      -6.065   1.494   1.512  0.00  0.00    +0.068 C 
ATOM      2  C   UNL     1      -5.738   2.965   1.525  0.00  0.00    +0.069 C 
ATOM      3  N   UNL     1      -6.588   3.939   1.639  0.00  0.00    -0.177 NA
ATOM      4  N   UNL     1      -5.950   5.178   1.609  0.00  0.00    -0.156 N 
ATOM      5  C   UNL     1      -4.619   5.011   1.475  0.00  0.00    +0.272 C 
ATOM      6  O   UNL     1      -3.772   5.886   1.417  0.00  0.00    -0.268 OA
ATOM      7  C   UNL     1      -4.396   3.557   1.416  0.00  0.00    +0.062 C 
ATOM      8  C   UNL     1      -3.189   2.893   1.280  0.00  0.00    +0.024 C 
ENDROOT
BRANCH   8   9
ATOM      9  C   UNL     1      -1.971   3.616   1.341  0.00  0.00    -0.001 A 
ATOM     10  C   UNL     1      -1.801   4.636   2.290  0.00  0.00    +0.042 A 
ATOM     11  C   UNL     1      -0.626   5.329   2.344  0.00  0.00    +0.127 A 
ATOM     12  C   UNL     1       0.408   5.034   1.466  0.00  0.00    +0.034 A 
ATOM     13  C   UNL     1       0.268   4.032   0.528  0.00  0.00    +0.026 A 
ATOM     14  C   UNL     1      -0.921   3.316   0.450  0.00  0.00    +0.037 A 
BRANCH  14  15
ATOM     15  N   UNL     1      -1.070   2.311  -0.494  0.00  0.00    -0.336 N 
ATOM     16  C   UNL     1      -0.923   2.842  -1.856  0.00  0.00    +0.129 C 
ATOM     17  C   UNL     1      -0.123   1.215  -0.251  0.00  0.00    +0.129 C 
ENDBRANCH  14  15
BRANCH  11  18
ATOM     18  N   UNL     1      -0.453   6.404   3.346  0.00  0.00    +0.056 N 
ATOM     19  O   UNL     1      -1.357   6.668   4.118  0.00  0.00    -0.126 OA
ATOM     20  O   UNL     1       0.593   7.026   3.399  0.00  0.00    -0.126 OA
ENDBRANCH  11  18
ENDBRANCH   8   9
BRANCH   4  21
ATOM     21  C   UNL     1      -6.598   6.416   1.705  0.00  0.00    +0.060 A 
ATOM     22  C   UNL     1      -5.860   7.592   1.669  0.00  0.00    +0.025 A 
ATOM     23  C   UNL     1      -6.502   8.812   1.760  0.00  0.00    +0.002 A 
ATOM     24  C   UNL     1      -7.877   8.862   1.894  0.00  0.00    +0.000 A 
ATOM     25  C   UNL     1      -8.614   7.693   1.935  0.00  0.00    +0.002 A 
ATOM     26  C   UNL     1      -7.979   6.470   1.841  0.00  0.00    +0.025 A 
ENDBRANCH   4  21
TORSDOF 4
