REMARK  Name = ZINC33937137
REMARK  12 active torsions:
REMARK  status: ('A' for Active; 'I' for Inactive)
REMARK    1  A    between atoms: C_1  and  C_2
REMARK    2  A    between atoms: C_2  and  C_3
REMARK    3  A    between atoms: C_3  and  C_5
REMARK    4  A    between atoms: C_3  and  N_17
REMARK    5  A    between atoms: N_9  and  C_10
REMARK    6  A    between atoms: C_10  and  C_11
REMARK    7  A    between atoms: N_17  and  C_18
REMARK    8  A    between atoms: N_17  and  C_33
REMARK    9  A    between atoms: C_18  and  C_19
REMARK   10  A    between atoms: C_23  and  C_32
REMARK   11  A    between atoms: C_25  and  C_31
REMARK   12  A    between atoms: C_33  and  C_34
REMARK                            x       y       z     vdW  Elec       q    Type
REMARK                         _______ _______ _______ _____ _____    ______ ____
ROOT
ATOM      1  N   UNL     1      -2.288  -0.194   1.278  0.00  0.00    +0.391 N 
ATOM      2  H   UNL     1      -1.463  -0.518   1.761  0.00  0.00    -0.080 HD
ENDROOT
BRANCH   1   3
ATOM      3  C   UNL     1      -2.065  -0.263  -0.172  0.00  0.00    +0.003 C 
BRANCH   3   4
ATOM      4  C   UNL     1      -3.274   0.275  -0.892  0.00  0.00    +0.138 A 
ATOM      5  N   UNL     1      -4.529   0.008  -0.623  0.00  0.00    -0.115 NA
ATOM      6  N   UNL     1      -5.263   0.659  -1.458  0.00  0.00    -0.023 NA
ATOM      7  N   UNL     1      -4.509   1.334  -2.254  0.00  0.00    -0.044 NA
ATOM      8  N   UNL     1      -3.276   1.128  -1.933  0.00  0.00    -0.228 N 
BRANCH   8   9
ATOM      9  C   UNL     1      -2.099   1.711  -2.583  0.00  0.00    +0.178 C 
BRANCH   9  10
ATOM     10  C   UNL     1      -1.642   0.798  -3.723  0.00  0.00    +0.140 C 
ATOM     11  C   UNL     1      -0.453   1.440  -4.482  0.00  0.00    +0.035 C 
ATOM     12  C   UNL     1       0.228   0.180  -5.082  0.00  0.00    +0.031 C 
ATOM     13  C   UNL     1      -0.018  -0.879  -3.986  0.00  0.00    +0.160 C 
ATOM     14  O   UNL     1      -1.132  -0.438  -3.199  0.00  0.00    -0.375 OA
ENDBRANCH   9  10
ENDBRANCH   8   9
ENDBRANCH   3   4
BRANCH   3  16
ATOM     15  C   UNL     1      -0.564  -2.243   0.092  0.00  0.00    +0.002 C 
ATOM     16  C   UNL     1      -1.832  -1.718  -0.584  0.00  0.00    -0.011 C 
ENDBRANCH   3  16
ENDBRANCH   1   3
BRANCH   1  17
ATOM     17  C   UNL     1      -3.431  -1.044   1.639  0.00  0.00    -0.036 C 
BRANCH  17  18
ATOM     18  C   UNL     1      -3.564  -1.096   3.139  0.00  0.00    +0.001 A 
ATOM     19  C   UNL     1      -4.430  -0.265   3.770  0.00  0.00    +0.017 A 
ATOM     20  C   UNL     1      -4.536  -0.342   5.228  0.00  0.00    -0.001 A 
ATOM     21  C   UNL     1      -5.411   0.490   5.934  0.00  0.00    +0.013 A 
ATOM     22  C   UNL     1      -5.487   0.393   7.295  0.00  0.00    -0.050 A 
ATOM     23  C   UNL     1      -4.703  -0.522   7.983  0.00  0.00    +0.008 A 
ATOM     24  C   UNL     1      -3.833  -1.351   7.308  0.00  0.00    -0.026 A 
ATOM     25  C   UNL     1      -3.739  -1.272   5.922  0.00  0.00    +0.052 A 
ATOM     26  N   UNL     1      -2.878  -2.089   5.221  0.00  0.00    -0.322 N 
ATOM     27  H   UNL     1      -2.330  -2.729   5.701  0.00  0.00    +0.169 HD
ATOM     28  C   UNL     1      -2.792  -2.015   3.881  0.00  0.00    +0.251 A 
ATOM     29  O   UNL     1      -2.023  -2.757   3.294  0.00  0.00    -0.268 OA
ATOM     30  C   UNL     1      -2.986  -2.340   8.068  0.00  0.00    +0.046 C 
ATOM     31  C   UNL     1      -6.431   1.289   8.056  0.00  0.00    +0.044 C 
ENDBRANCH  17  18
ENDBRANCH   1  17
BRANCH   1  32
ATOM     32  C   UNL     1      -2.568   1.195   1.665  0.00  0.00    -0.045 C 
BRANCH  32  33
ATOM     33  C   UNL     1      -1.297   2.033   1.514  0.00  0.00    +0.102 C 
ATOM     34  C   UNL     1      -1.540   3.455   2.063  0.00  0.00    +0.032 C 
ATOM     35  C   UNL     1      -0.776   4.338   1.038  0.00  0.00    +0.030 C 
ATOM     36  C   UNL     1      -1.001   3.535  -0.268  0.00  0.00    +0.160 C 
ATOM     37  O   UNL     1      -0.956   2.153   0.128  0.00  0.00    -0.378 OA
ENDBRANCH  32  33
ENDBRANCH   1  32
TORSDOF 9
