REMARK  Name = ZINC09201002
REMARK  11 active torsions:
REMARK  status: ('A' for Active; 'I' for Inactive)
REMARK    1  A    between atoms: C_1  and  C_2
REMARK    2  A    between atoms: C_7  and  N_12
REMARK    3  A    between atoms: C_9  and  C_11
REMARK    4  A    between atoms: C_13  and  C_15
REMARK    5  A    between atoms: C_15  and  O_16
REMARK    6  A    between atoms: O_16  and  C_17
REMARK    7  A    between atoms: C_17  and  C_19
REMARK    8  A    between atoms: C_24  and  S_25
REMARK    9  A    between atoms: S_25  and  C_26
REMARK   10  A    between atoms: C_26  and  C_27
REMARK   11  A    between atoms: N_29  and  C_30
REMARK                            x       y       z     vdW  Elec       q    Type
REMARK                         _______ _______ _______ _____ _____    ______ ____
ROOT
ATOM      1  C   UNL     1       9.130  -4.369   5.691  0.00  0.00    +0.091 A 
ATOM      2  C   UNL     1      10.400  -4.190   6.253  0.00  0.00    +0.019 A 
ATOM      3  C   UNL     1      11.022  -2.965   6.095  0.00  0.00    +0.021 A 
ATOM      4  C   UNL     1      10.380  -1.960   5.393  0.00  0.00    +0.112 A 
ATOM      5  N   UNL     1       9.186  -2.148   4.867  0.00  0.00    -0.248 NA
ATOM      6  C   UNL     1       8.542  -3.300   4.992  0.00  0.00    +0.111 A 
ENDROOT
BRANCH   1   7
ATOM      7  C   UNL     1       8.422  -5.653   5.830  0.00  0.00    +0.342 C 
ATOM      8  O   UNL     1       7.321  -5.796   5.337  0.00  0.00    -0.245 OA
BRANCH   7   9
ATOM      9  O   UNL     1       8.997  -6.670   6.502  0.00  0.00    -0.452 OA
BRANCH   9  10
ATOM     10  C   UNL     1       8.242  -7.907   6.598  0.00  0.00    +0.328 C 
BRANCH  10  12
ATOM     11  N   UNL     1       8.532 -10.151   7.597  0.00  0.00    -0.309 N 
ATOM     12  C   UNL     1       9.037  -8.921   7.380  0.00  0.00    +0.251 C 
ATOM     13  O   UNL     1      10.133  -8.630   7.813  0.00  0.00    -0.272 OA
ATOM     14  H   UNL     1       7.656 -10.384   7.251  0.00  0.00    +0.149 HD
BRANCH  11  20
ATOM     15  C   UNL     1       9.953 -12.473  10.882  0.00  0.00    +0.008 C 
ATOM     16  C   UNL     1       9.160 -13.183   9.783  0.00  0.00    -0.009 C 
ATOM     17  C   UNL     1      10.127 -13.907   8.844  0.00  0.00    +0.003 C 
ATOM     18  C   UNL     1      11.079 -12.890   8.210  0.00  0.00    +0.002 C 
ATOM     19  C   UNL     1      10.271 -11.861   7.417  0.00  0.00    +0.022 C 
ATOM     20  C   UNL     1       9.305 -11.137   8.357  0.00  0.00    +0.076 C 
ATOM     21  C   UNL     1       8.353 -12.153   8.990  0.00  0.00    +0.009 C 
ATOM     22  C   UNL     1       7.386 -11.430   9.930  0.00  0.00    +0.009 C 
ENDBRANCH  11  20
ENDBRANCH  10  12
ENDBRANCH   9  10
ENDBRANCH   7   9
ENDBRANCH   1   7
BRANCH   6  23
ATOM     23  S   UNL     1       6.945  -3.494   4.273  0.00  0.00    -0.096 S 
BRANCH  23  24
ATOM     24  C   UNL     1       6.729  -1.853   3.541  0.00  0.00    +0.171 C 
BRANCH  24  25
ATOM     25  C   UNL     1       5.391  -1.784   2.850  0.00  0.00    +0.227 C 
ATOM     26  O   UNL     1       4.656  -2.749   2.853  0.00  0.00    -0.275 OA
ATOM     27  N   UNL     1       5.011  -0.649   2.229  0.00  0.00    -0.285 N 
ATOM     28  H   UNL     1       5.628   0.096   2.160  0.00  0.00    +0.155 HD
BRANCH  27  29
ATOM     29  C   UNL     1       3.725  -0.547   1.683  0.00  0.00    +0.037 A 
ATOM     30  C   UNL     1       2.658  -1.191   2.294  0.00  0.00    +0.027 A 
ATOM     31  C   UNL     1       1.388  -1.090   1.757  0.00  0.00    +0.051 A 
ATOM     32  C   UNL     1       1.177  -0.347   0.608  0.00  0.00    +0.166 A 
ATOM     33  C   UNL     1       2.246   0.301  -0.008  0.00  0.00    +0.168 A 
ATOM     34  C   UNL     1       3.517   0.199   0.531  0.00  0.00    +0.072 A 
ATOM     35  O   UNL     1       1.781   0.959  -1.110  0.00  0.00    -0.453 OA
ATOM     36  C   UNL     1       0.355   1.044  -0.934  0.00  0.00    +0.466 C 
ATOM     37  O   UNL     1       0.043  -0.094  -0.110  0.00  0.00    -0.453 OA
ENDBRANCH  27  29
ENDBRANCH  24  25
ENDBRANCH  23  24
ENDBRANCH   6  23
TORSDOF 9
