REMARK  Name = ZINC12582455
REMARK  6 active torsions:
REMARK  status: ('A' for Active; 'I' for Inactive)
REMARK    1  A    between atoms: C_4  and  C_8
REMARK    2  A    between atoms: C_5  and  O_7
REMARK    3  A    between atoms: N_9  and  C_10
REMARK    4  A    between atoms: C_12  and  N_18
REMARK    5  A    between atoms: C_19  and  C_20
REMARK    6  A    between atoms: C_21  and  O_27
REMARK                            x       y       z     vdW  Elec       q    Type
REMARK                         _______ _______ _______ _____ _____    ______ ____
ROOT
ATOM      1  C   UNL     1       5.016  -2.664   0.145  0.00  0.00    +0.103 C 
ATOM      2  C   UNL     1       5.073  -3.453   1.455  0.00  0.00    +0.127 C 
ATOM      3  C   UNL     1       6.414  -4.183   1.553  0.00  0.00    +0.029 C 
ATOM      4  C   UNL     1       6.558  -5.144   0.371  0.00  0.00    +0.002 C 
ATOM      5  C   UNL     1       6.501  -4.356  -0.938  0.00  0.00    +0.002 C 
ATOM      6  C   UNL     1       5.160  -3.625  -1.036  0.00  0.00    +0.026 C 
ENDROOT
BRANCH   1   8
ATOM      7  C   UNL     1       3.703  -0.673  -0.038  0.00  0.00    +0.090 C 
ATOM      8  N   UNL     1       3.732  -1.964   0.052  0.00  0.00    -0.385 N 
ATOM      9  H   UNL     1       2.904  -2.469   0.058  0.00  0.00    +0.159 HD
BRANCH   7  13
ATOM     10  C   UNL     1      -0.020   1.370  -0.082  0.00  0.00    +0.019 A 
ATOM     11  C   UNL     1       1.158   2.073  -0.279  0.00  0.00    +0.019 A 
ATOM     12  C   UNL     1       2.370   1.416  -0.266  0.00  0.00    +0.028 A 
ATOM     13  C   UNL     1       2.411   0.036  -0.053  0.00  0.00    +0.033 A 
ATOM     14  C   UNL     1       1.218  -0.671   0.146  0.00  0.00    +0.125 A 
ATOM     15  C   UNL     1       0.007   0.006   0.130  0.00  0.00    +0.047 A 
ATOM     16 BR   UNL     1       1.103   3.941  -0.567  0.00  0.00    -0.050 Br
BRANCH  14  17
ATOM     17  O   UNL     1       1.246  -2.012   0.353  0.00  0.00    -0.506 OA
ATOM     18  H   UNL     1       1.319  -2.265   1.284  0.00  0.00    +0.292 HD
ENDBRANCH  14  17
ENDBRANCH   7  13
ENDBRANCH   1   8
BRANCH   2  19
ATOM     19  N   UNL     1       4.935  -2.532   2.586  0.00  0.00    -0.286 NA
ATOM     20  C   UNL     1       3.951  -2.669   3.416  0.00  0.00    +0.116 C 
BRANCH  20  21
ATOM     21  C   UNL     1       3.812  -1.742   4.554  0.00  0.00    +0.035 A 
ATOM     22  C   UNL     1       4.741  -0.708   4.738  0.00  0.00    +0.125 A 
ATOM     23  C   UNL     1       4.601   0.157   5.811  0.00  0.00    +0.047 A 
ATOM     24  C   UNL     1       3.551   0.001   6.696  0.00  0.00    +0.019 A 
ATOM     25  C   UNL     1       2.631  -1.020   6.518  0.00  0.00    +0.019 A 
ATOM     26  C   UNL     1       2.752  -1.887   5.451  0.00  0.00    +0.028 A 
ATOM     27 BR   UNL     1       1.201  -1.222   7.738  0.00  0.00    -0.050 Br
BRANCH  22  28
ATOM     28  O   UNL     1       5.772  -0.555   3.869  0.00  0.00    -0.506 OA
ATOM     29  H   UNL     1       5.573   0.024   3.121  0.00  0.00    +0.292 HD
ENDBRANCH  22  28
ENDBRANCH  20  21
ENDBRANCH   2  19
TORSDOF 6
