REMARK  Name = ZINC60374756
REMARK  5 active torsions:
REMARK  status: ('A' for Active; 'I' for Inactive)
REMARK    1  A    between atoms: C_1  and  C_2
REMARK    2  A    between atoms: C_2  and  C_25
REMARK    3  A    between atoms: N_5  and  C_9
REMARK    4  A    between atoms: C_9  and  C_10
REMARK    5  A    between atoms: N_13  and  C_15
REMARK                            x       y       z     vdW  Elec       q    Type
REMARK                         _______ _______ _______ _____ _____    ______ ____
ROOT
ATOM      1  C   UNL     1      -2.593  -1.987   1.771  0.00  0.00    +0.175 C 
ENDROOT
BRANCH   1   6
ATOM      2  C   UNL     1      -0.019   1.526   0.010  0.00  0.00    +0.047 C 
ATOM      3  C   UNL     1       0.002  -0.004   0.002  0.00  0.00    +0.141 C 
ATOM      4  C   UNL     1      -1.404  -0.557   0.121  0.00  0.00    +0.252 C 
ATOM      5  O   UNL     1      -2.324  -0.392  -0.652  0.00  0.00    -0.272 OA
ATOM      6  N   UNL     1      -1.419  -1.272   1.263  0.00  0.00    -0.218 N 
ATOM      7  C   UNL     1      -0.231  -1.248   1.876  0.00  0.00    +0.310 C 
ATOM      8  O   UNL     1       0.001  -1.819   2.923  0.00  0.00    -0.252 OA
ATOM      9  N   UNL     1       0.679  -0.520   1.204  0.00  0.00    -0.281 N 
ATOM     10  H   UNL     1       1.602  -0.365   1.461  0.00  0.00    +0.152 HD
BRANCH   3  11
ATOM     11  C   UNL     1       0.673  -0.517  -1.246  0.00  0.00    +0.023 A 
ATOM     12  C   UNL     1       1.983  -0.790  -1.459  0.00  0.00    +0.015 A 
ATOM     13  C   UNL     1       2.378  -1.257  -2.699  0.00  0.00    +0.028 A 
ATOM     14  C   UNL     1       1.441  -1.428  -3.666  0.00  0.00    +0.078 A 
ATOM     15  S   UNL     1      -0.052  -0.929  -2.824  0.00  0.00    -0.079 S 
ATOM     16 CL   UNL     1       1.642  -1.992  -5.295  0.00  0.00    -0.076 Cl
ENDBRANCH   3  11
ENDBRANCH   1   6
BRANCH   1  17
ATOM     17  C   UNL     1      -2.601  -3.391   1.225  0.00  0.00    +0.085 A 
ATOM     18  C   UNL     1      -3.203  -3.804   0.028  0.00  0.00    -0.002 A 
ATOM     19  C   UNL     1      -2.991  -5.131  -0.107  0.00  0.00    +0.048 A 
ATOM     20  N   UNL     1      -2.278  -5.546   0.967  0.00  0.00    -0.236 N 
ATOM     21  N   UNL     1      -2.043  -4.434   1.784  0.00  0.00    -0.169 NA
ATOM     22  C   UNL     1      -3.621  -5.637  -1.387  0.00  0.00    +0.056 C 
ATOM     23  C   UNL     1      -4.616  -4.532  -1.805  0.00  0.00    +0.011 C 
ATOM     24  C   UNL     1      -3.999  -3.278  -1.148  0.00  0.00    +0.039 C 
BRANCH  20  25
ATOM     25  C   UNL     1      -1.847  -6.858   1.216  0.00  0.00    +0.066 A 
ATOM     26  C   UNL     1      -2.639  -7.933   0.834  0.00  0.00    +0.030 A 
ATOM     27  C   UNL     1      -2.213  -9.224   1.080  0.00  0.00    +0.040 A 
ATOM     28  C   UNL     1      -0.998  -9.446   1.707  0.00  0.00    +0.124 A 
ATOM     29  C   UNL     1      -0.208  -8.375   2.088  0.00  0.00    +0.040 A 
ATOM     30  C   UNL     1      -0.627  -7.083   1.839  0.00  0.00    +0.030 A 
ATOM     31  F   UNL     1      -0.584 -10.709   1.946  0.00  0.00    -0.205 F 
ENDBRANCH  20  25
ENDBRANCH   1  17
TORSDOF 4
