REMARK  Name = ZINC38780157
REMARK  8 active torsions:
REMARK  status: ('A' for Active; 'I' for Inactive)
REMARK    1  A    between atoms: C_1  and  C_2
REMARK    2  A    between atoms: C_4  and  C_30
REMARK    3  A    between atoms: C_8  and  S_12
REMARK    4  A    between atoms: S_12  and  C_13
REMARK    5  A    between atoms: C_13  and  C_15
REMARK    6  A    between atoms: C_13  and  C_16
REMARK    7  A    between atoms: N_18  and  C_19
REMARK    8  A    between atoms: C_24  and  C_25
REMARK                            x       y       z     vdW  Elec       q    Type
REMARK                         _______ _______ _______ _____ _____    ______ ____
ROOT
ATOM      1  C   UNL     1       0.026   1.579  -0.015  0.00  0.00    +0.024 C 
ATOM      2  C   UNL     1       0.036   0.050  -0.025  0.00  0.00    +0.081 C 
ATOM      3  C   UNL     1       0.803  -0.478  -1.216  0.00  0.00    -0.012 C 
ATOM      4  C   UNL     1       1.917  -1.233  -0.960  0.00  0.00    +0.075 C 
ATOM      5  C   UNL     1       2.268  -1.463   0.452  0.00  0.00    +0.113 C 
ATOM      6  N   UNL     1       3.321  -2.176   0.771  0.00  0.00    -0.217 NA
ATOM      7  C   UNL     1       4.102  -2.713  -0.166  0.00  0.00    +0.182 C 
ATOM      8  N   UNL     1       3.879  -2.569  -1.460  0.00  0.00    -0.151 NA
ATOM      9  C   UNL     1       2.847  -1.872  -1.938  0.00  0.00    +0.272 C 
ATOM     10  O   UNL     1       2.669  -1.758  -3.140  0.00  0.00    -0.268 OA
ATOM     11  S   UNL     1       1.019  -0.610   1.381  0.00  0.00    -0.097 S 
ENDROOT
BRANCH   3  12
ATOM     12  C   UNL     1       0.372  -0.195  -2.587  0.00  0.00    -0.020 A 
ATOM     13  C   UNL     1       0.391   1.120  -3.074  0.00  0.00    +0.008 A 
ATOM     14  C   UNL     1      -0.016   1.377  -4.365  0.00  0.00    +0.001 A 
ATOM     15  C   UNL     1      -0.442   0.342  -5.181  0.00  0.00    +0.000 A 
ATOM     16  C   UNL     1      -0.464  -0.960  -4.708  0.00  0.00    +0.001 A 
ATOM     17  C   UNL     1      -0.056  -1.237  -3.421  0.00  0.00    +0.008 A 
ENDBRANCH   3  12
BRANCH   7  18
ATOM     18  S   UNL     1       5.498  -3.658   0.346  0.00  0.00    -0.076 S 
BRANCH  18  19
ATOM     19  C   UNL     1       6.264  -4.188  -1.211  0.00  0.00    +0.137 C 
ATOM     20  C   UNL     1       6.780  -2.962  -1.968  0.00  0.00    +0.029 C 
BRANCH  19  21
ATOM     21  C   UNL     1       7.413  -5.116  -0.916  0.00  0.00    +0.230 C 
ATOM     22  O   UNL     1       7.924  -5.119   0.185  0.00  0.00    -0.274 OA
ATOM     23  N   UNL     1       7.874  -5.944  -1.874  0.00  0.00    -0.284 N 
ATOM     24  H   UNL     1       7.417  -6.001  -2.727  0.00  0.00    +0.155 HD
BRANCH  23  25
ATOM     25  C   UNL     1       9.013  -6.723  -1.638  0.00  0.00    +0.045 A 
ATOM     26  C   UNL     1       9.952  -6.315  -0.699  0.00  0.00    +0.024 A 
ATOM     27  C   UNL     1      11.075  -7.085  -0.468  0.00  0.00    +0.002 A 
ATOM     28  C   UNL     1      11.265  -8.261  -1.171  0.00  0.00    +0.001 A 
ATOM     29  C   UNL     1      10.332  -8.669  -2.107  0.00  0.00    +0.014 A 
ATOM     30  C   UNL     1       9.204  -7.907  -2.337  0.00  0.00    +0.076 A 
BRANCH  30  31
ATOM     31  C   UNL     1       8.184  -8.356  -3.352  0.00  0.00    +0.419 C 
ATOM     32  F   UNL     1       8.594  -9.567  -3.920  0.00  0.00    -0.166 F 
ATOM     33  F   UNL     1       6.946  -8.531  -2.723  0.00  0.00    -0.166 F 
ATOM     34  F   UNL     1       8.065  -7.388  -4.354  0.00  0.00    -0.166 F 
ENDBRANCH  30  31
ENDBRANCH  23  25
ENDBRANCH  19  21
ENDBRANCH  18  19
ENDBRANCH   7  18
TORSDOF 6
