REMARK  Name = ZINC39994674
REMARK  7 active torsions:
REMARK  status: ('A' for Active; 'I' for Inactive)
REMARK    1  A    between atoms: C_1  and  C_2
REMARK    2  A    between atoms: C_2  and  C_3
REMARK    3  A    between atoms: C_2  and  C_4
REMARK    4  A    between atoms: C_8  and  N_10
REMARK    5  A    between atoms: C_11  and  C_13
REMARK    6  A    between atoms: C_13  and  C_24
REMARK    7  A    between atoms: C_14  and  C_15
REMARK                            x       y       z     vdW  Elec       q    Type
REMARK                         _______ _______ _______ _____ _____    ______ ____
ROOT
ATOM      1  C   UNL     1      -3.940  -4.191  -4.557  0.00  0.00    +0.118 C 
ATOM      2  C   UNL     1      -4.076  -5.564  -4.750  0.00  0.00    +0.030 C 
ENDROOT
BRANCH   2   3
ATOM      3  C   UNL     1      -4.694  -6.046  -5.897  0.00  0.00    -0.018 C 
ATOM      4  C   UNL     1      -4.915  -7.385  -6.241  0.00  0.00    +0.003 A 
ATOM      5  C   UNL     1      -4.611  -8.598  -5.593  0.00  0.00    +0.010 A 
ATOM      6  C   UNL     1      -4.953  -9.777  -6.175  0.00  0.00    +0.001 A 
ATOM      7  C   UNL     1      -5.604  -9.823  -7.411  0.00  0.00    +0.002 A 
ATOM      8  C   UNL     1      -5.928  -8.696  -8.090  0.00  0.00    +0.026 A 
ATOM      9  C   UNL     1      -5.603  -7.425  -7.544  0.00  0.00    +0.043 A 
ATOM     10  N   UNL     1      -5.804  -6.206  -7.997  0.00  0.00    -0.380 N 
ATOM     11  C   UNL     1      -5.275  -5.235  -7.034  0.00  0.00    +0.149 C 
ATOM     12  H   UNL     1      -6.238  -5.984  -8.835  0.00  0.00    +0.160 HD
ENDBRANCH   2   3
BRANCH   1  14
ATOM     13  N   UNL     1      -3.160  -2.384  -3.167  0.00  0.00    -0.181 NA
ATOM     14  C   UNL     1      -3.289  -3.683  -3.349  0.00  0.00    +0.290 C 
ATOM     15  O   UNL     1      -2.819  -4.548  -2.420  0.00  0.00    -0.264 OA
BRANCH  13  19
ATOM     16  C   UNL     1      -1.433  -0.534   0.013  0.00  0.00    +0.156 C 
ATOM     17  N   UNL     1      -1.460  -2.013   0.030  0.00  0.00    -0.253 N 
ATOM     18  N   UNL     1      -2.053  -2.605  -1.062  0.00  0.00    -0.159 NA
ATOM     19  C   UNL     1      -2.562  -1.918  -2.057  0.00  0.00    +0.210 C 
ATOM     20  S   UNL     1      -2.275  -0.216  -1.592  0.00  0.00    -0.060 S 
ATOM     21  H   UNL     1      -1.086  -2.530   0.761  0.00  0.00    +0.169 HD
BRANCH  16  23
ATOM     22  C   UNL     1      -0.019   1.526   0.010  0.00  0.00    +0.010 C 
ATOM     23  C   UNL     1       0.002  -0.004   0.002  0.00  0.00    +0.015 C 
ATOM     24  C   UNL     1       0.742  -0.511   1.242  0.00  0.00    +0.010 C 
ENDBRANCH  16  23
ENDBRANCH  13  19
ENDBRANCH   1  14
BRANCH   1  25
ATOM     25  C   UNL     1      -4.437  -3.276  -5.540  0.00  0.00    +0.105 C 
ATOM     26  N   UNL     1      -4.831  -2.551  -6.321  0.00  0.00    -0.191 NA
ENDBRANCH   1  25
TORSDOF 5
