REMARK  Name = ZINC01782015
REMARK  6 active torsions:
REMARK  status: ('A' for Active; 'I' for Inactive)
REMARK    1  A    between atoms: C_5  and  O_7
REMARK    2  A    between atoms: O_7  and  C_8
REMARK    3  A    between atoms: C_14  and  O_30
REMARK    4  A    between atoms: C_15  and  C_23
REMARK    5  A    between atoms: C_18  and  C_19
REMARK    6  A    between atoms: C_23  and  N_53
REMARK                            x       y       z     vdW  Elec       q    Type
REMARK                         _______ _______ _______ _____ _____    ______ ____
ROOT
ATOM      1  C   UNL     1      -6.712   3.897   3.131  0.00  0.00    +0.222 A 
ATOM      2  C   UNL     1      -6.566   5.213   2.607  0.00  0.00    +0.235 A 
ATOM      3  O   UNL     1      -7.030   6.181   3.187  0.00  0.00    -0.283 OA
ATOM      4  C   UNL     1      -5.833   5.357   1.338  0.00  0.00    +0.068 A 
ATOM      5  C   UNL     1      -5.639   6.606   0.748  0.00  0.00    +0.019 A 
ATOM      6  C   UNL     1      -4.953   6.700  -0.429  0.00  0.00    +0.046 A 
ATOM      7  C   UNL     1      -4.447   5.556  -1.043  0.00  0.00    +0.122 A 
ATOM      8  C   UNL     1      -4.631   4.309  -0.470  0.00  0.00    +0.020 A 
ATOM      9  C   UNL     1      -5.330   4.196   0.724  0.00  0.00    +0.144 A 
ATOM     10  O   UNL     1      -5.519   2.995   1.306  0.00  0.00    -0.447 OA
ATOM     11  C   UNL     1      -6.184   2.853   2.460  0.00  0.00    +0.254 A 
ENDROOT
BRANCH  11  12
ATOM     12  C   UNL     1      -6.350   1.469   3.033  0.00  0.00    +0.454 C 
ATOM     13  F   UNL     1      -7.530   0.899   2.542  0.00  0.00    -0.163 F 
ATOM     14  F   UNL     1      -5.259   0.676   2.659  0.00  0.00    -0.163 F 
ATOM     15  F   UNL     1      -6.414   1.546   4.428  0.00  0.00    -0.163 F 
ENDBRANCH  11  12
BRANCH   7  16
ATOM     16  O   UNL     1      -3.767   5.664  -2.213  0.00  0.00    -0.506 OA
ATOM     17  H   UNL     1      -4.326   5.602  -3.000  0.00  0.00    +0.292 HD
ENDBRANCH   7  16
BRANCH   1  18
ATOM     18  O   UNL     1      -7.378   3.693   4.300  0.00  0.00    -0.447 OA
BRANCH  18  23
ATOM     19  C   UNL     1     -10.727   3.227   2.956  0.00  0.00    +0.004 A 
ATOM     20  C   UNL     1     -11.444   3.015   4.119  0.00  0.00    +0.001 A 
ATOM     21  C   UNL     1     -10.801   3.031   5.343  0.00  0.00    +0.019 A 
ATOM     22  C   UNL     1      -9.439   3.258   5.407  0.00  0.00    +0.060 A 
ATOM     23  C   UNL     1      -8.717   3.470   4.240  0.00  0.00    +0.143 A 
ATOM     24  C   UNL     1      -9.367   3.460   3.014  0.00  0.00    +0.047 A 
ATOM     25 BR   UNL     1      -8.560   3.278   7.081  0.00  0.00    -0.046 Br
ENDBRANCH  18  23
ENDBRANCH   1  18
BRANCH   8  26
ATOM     26  C   UNL     1      -4.080   3.078  -1.143  0.00  0.00    -0.036 C 
BRANCH  26  33
ATOM     27  C   UNL     1      -2.232   1.506  -1.110  0.00  0.00    -0.078 C 
ATOM     28  C   UNL     1      -0.733   1.583  -1.257  0.00  0.00    -0.019 C 
ATOM     29  C   UNL     1      -0.013   1.086   0.008  0.00  0.00    -0.002 C 
ATOM     30  C   UNL     1      -0.710   1.571   1.295  0.00  0.00    -0.002 C 
ATOM     31  C   UNL     1      -1.159   3.006   1.206  0.00  0.00    -0.019 C 
ATOM     32  C   UNL     1      -2.623   3.045   0.717  0.00  0.00    -0.078 C 
ATOM     33  N   UNL     1      -2.693   2.865  -0.690  0.00  0.00    +0.383 N 
ATOM     34  H   UNL     1      -2.087   3.565  -1.135  0.00  0.00    -0.081 HD
ENDBRANCH  26  33
ENDBRANCH   8  26
TORSDOF 6
