REMARK  Name = ZINC20413257
REMARK  5 active torsions:
REMARK  status: ('A' for Active; 'I' for Inactive)
REMARK    1  A    between atoms: C_6  and  S_7
REMARK    2  A    between atoms: S_7  and  C_8
REMARK    3  A    between atoms: C_8  and  C_9
REMARK    4  A    between atoms: N_11  and  S_12
REMARK    5  A    between atoms: S_12  and  C_15
REMARK                            x       y       z     vdW  Elec       q    Type
REMARK                         _______ _______ _______ _____ _____    ______ ____
ROOT
ATOM      1  C   UNL     1      -2.199  -3.536   0.005  0.00  0.00    +0.125 C 
ATOM      2  N   UNL     1      -2.049  -4.898  -0.004  0.00  0.00    -0.345 N 
ATOM      3  N   UNL     1      -3.384  -3.017   0.019  0.00  0.00    -0.118 NA
ATOM      4  H   UNL     1      -1.160  -5.287  -0.015  0.00  0.00    +0.143 HD
ATOM      5  H   UNL     1      -2.830  -5.472   0.001  0.00  0.00    +0.143 HD
ENDROOT
BRANCH   3   6
ATOM      6  S   UNL     1      -4.718  -3.998   0.028  0.00  0.00    +0.100 S 
ATOM      7  O   UNL     1      -4.731  -4.675  -1.222  0.00  0.00    -0.146 OA
ATOM      8  O   UNL     1      -4.707  -4.689   1.269  0.00  0.00    -0.146 OA
BRANCH   6   9
ATOM      9  C   UNL     1      -6.134  -2.950   0.047  0.00  0.00    +0.115 A 
ATOM     10  C   UNL     1      -6.675  -2.541   1.252  0.00  0.00    +0.049 A 
ATOM     11  C   UNL     1      -7.787  -1.719   1.268  0.00  0.00    +0.044 A 
ATOM     12  C   UNL     1      -8.359  -1.305   0.078  0.00  0.00    +0.040 A 
ATOM     13  C   UNL     1      -7.817  -1.715  -1.127  0.00  0.00    +0.044 A 
ATOM     14  C   UNL     1      -6.702  -2.533  -1.142  0.00  0.00    +0.049 A 
ATOM     15 CL   UNL     1      -8.534  -1.197  -2.621  0.00  0.00    -0.083 Cl
ATOM     16 CL   UNL     1      -8.466  -1.206   2.781  0.00  0.00    -0.083 Cl
ENDBRANCH   6   9
ENDBRANCH   3   6
BRANCH   1  17
ATOM     17  C   UNL     1      -0.985  -2.644  -0.002  0.00  0.00    +0.147 C 
BRANCH  17  18
ATOM     18  S   UNL     1      -1.511  -0.907   0.012  0.00  0.00    -0.118 S 
BRANCH  18  24
ATOM     19  C   UNL     1      -0.017   1.385   0.010  0.00  0.00    +0.016 A 
ATOM     20  C   UNL     1       1.170   2.091   0.002  0.00  0.00    +0.021 A 
ATOM     21  C   UNL     1       2.378   1.415  -0.013  0.00  0.00    +0.041 A 
ATOM     22  C   UNL     1       2.400   0.031  -0.021  0.00  0.00    +0.021 A 
ATOM     23  C   UNL     1       1.216  -0.680  -0.013  0.00  0.00    +0.016 A 
ATOM     24  C   UNL     1       0.002  -0.004   0.002  0.00  0.00    +0.008 A 
ATOM     25 CL   UNL     1       3.869   2.305  -0.023  0.00  0.00    -0.084 Cl
ENDBRANCH  18  24
ENDBRANCH  17  18
ENDBRANCH   1  17
TORSDOF 5
