REMARK  Name = ZINC06181240
REMARK  10 active torsions:
REMARK  status: ('A' for Active; 'I' for Inactive)
REMARK    1  A    between atoms: C_1  and  C_2
REMARK    2  A    between atoms: C_2  and  C_3
REMARK    3  A    between atoms: C_3  and  C_4
REMARK    4  A    between atoms: C_4  and  C_5
REMARK    5  A    between atoms: C_5  and  N_6
REMARK    6  A    between atoms: C_7  and  C_9
REMARK    7  A    between atoms: C_15  and  S_20
REMARK    8  A    between atoms: S_20  and  N_23
REMARK    9  A    between atoms: N_23  and  C_24
REMARK   10  A    between atoms: N_23  and  C_25
REMARK                            x       y       z     vdW  Elec       q    Type
REMARK                         _______ _______ _______ _____ _____    ______ ____
ROOT
ATOM      1  C   UNL     1      -4.656  -0.026   3.471  0.00  0.00    +0.100 A 
ATOM      2  C   UNL     1      -5.290  -1.207   3.892  0.00  0.00    +0.100 A 
ATOM      3  N   UNL     1      -6.514  -1.495   3.532  0.00  0.00    -0.360 N 
ATOM      4  C   UNL     1      -7.231  -0.681   2.745  0.00  0.00    +0.050 A 
ATOM      5  C   UNL     1      -8.544  -1.014   2.374  0.00  0.00    +0.028 A 
ATOM      6  C   UNL     1      -9.254  -0.176   1.568  0.00  0.00    +0.031 A 
ATOM      7  C   UNL     1      -8.698   1.013   1.103  0.00  0.00    +0.110 A 
ATOM      8  C   UNL     1      -7.427   1.369   1.442  0.00  0.00    +0.042 A 
ATOM      9  C   UNL     1      -6.669   0.528   2.270  0.00  0.00    +0.048 A 
ATOM     10  C   UNL     1      -5.348   0.865   2.643  0.00  0.00    +0.202 A 
ATOM     11  O   UNL     1      -4.771   2.010   2.213  0.00  0.00    -0.286 OA
ATOM     12  H   UNL     1      -6.927  -2.347   3.853  0.00  0.00    +0.165 HD
ENDROOT
BRANCH   1  14
ATOM     13  N   UNL     1      -2.620  -0.588   4.701  0.00  0.00    -0.311 N 
ATOM     14  C   UNL     1      -3.278   0.272   3.898  0.00  0.00    +0.249 C 
ATOM     15  O   UNL     1      -2.734   1.294   3.526  0.00  0.00    -0.270 OA
ATOM     16  H   UNL     1      -3.054  -1.403   4.998  0.00  0.00    +0.149 HD
BRANCH  13  17
ATOM     17  C   UNL     1      -1.248  -0.295   5.121  0.00  0.00    +0.104 C 
BRANCH  17  18
ATOM     18  C   UNL     1      -0.735  -1.425   6.015  0.00  0.00    +0.019 C 
BRANCH  18  19
ATOM     19  C   UNL     1       0.699  -1.119   6.453  0.00  0.00    +0.001 C 
BRANCH  19  21
ATOM     20  C   UNL     1       2.645  -1.943   7.786  0.00  0.00    +0.004 C 
ATOM     21  C   UNL     1       1.211  -2.250   7.347  0.00  0.00    -0.003 C 
ENDBRANCH  19  21
ENDBRANCH  18  19
ENDBRANCH  17  18
ENDBRANCH  13  17
ENDBRANCH   1  14
BRANCH   7  22
ATOM     22  S   UNL     1      -9.650   2.069   0.062  0.00  0.00    +0.074 S 
ATOM     23  O   UNL     1     -11.008   1.683   0.224  0.00  0.00    -0.150 OA
ATOM     24  O   UNL     1      -9.200   3.394   0.308  0.00  0.00    -0.150 OA
BRANCH  22  25
ATOM     25  N   UNL     1      -9.240   1.713  -1.503  0.00  0.00    -0.206 N 
ATOM     26  C   UNL     1      -8.062   2.337  -2.111  0.00  0.00    +0.157 C 
BRANCH  25  27
ATOM     27  C   UNL     1     -10.018   0.819  -2.242  0.00  0.00    +0.051 A 
ATOM     28  C   UNL     1     -10.112  -0.510  -1.850  0.00  0.00    +0.026 A 
ATOM     29  C   UNL     1     -10.885  -1.391  -2.580  0.00  0.00    +0.017 A 
ATOM     30  C   UNL     1     -11.557  -0.954  -3.707  0.00  0.00    +0.018 A 
ATOM     31  C   UNL     1     -11.461   0.368  -4.104  0.00  0.00    +0.017 A 
ATOM     32  C   UNL     1     -10.694   1.255  -3.374  0.00  0.00    +0.026 A 
ATOM     33 BR   UNL     1     -12.610  -2.165  -4.708  0.00  0.00    -0.050 Br
ENDBRANCH  25  27
ENDBRANCH  22  25
ENDBRANCH   7  22
TORSDOF 8
