REMARK  Name = ZINC01431212
REMARK  9 active torsions:
REMARK  status: ('A' for Active; 'I' for Inactive)
REMARK    1  A    between atoms: C_1  and  C_2
REMARK    2  A    between atoms: C_3  and  C_29
REMARK    3  A    between atoms: C_4  and  C_20
REMARK    4  A    between atoms: C_10  and  C_15
REMARK    5  A    between atoms: C_24  and  N_26
REMARK    6  A    between atoms: C_29  and  O_31
REMARK    7  A    between atoms: O_31  and  C_32
REMARK    8  A    between atoms: C_32  and  C_33
REMARK    9  A    between atoms: C_33  and  C_34
REMARK                            x       y       z     vdW  Elec       q    Type
REMARK                         _______ _______ _______ _____ _____    ______ ____
ROOT
ATOM      1  C   UNL     1      -2.683   6.738   2.520  0.00  0.00    +0.061 C 
ATOM      2  C   UNL     1      -2.023   6.276   1.246  0.00  0.00    +0.016 C 
ATOM      3  C   UNL     1      -0.758   5.824   1.276  0.00  0.00    +0.065 C 
ATOM      4  C   UNL     1      -0.070   5.347   0.030  0.00  0.00    +0.092 C 
ATOM      5  C   UNL     1      -0.785   5.839  -1.204  0.00  0.00    +0.024 C 
ATOM      6  C   UNL     1      -2.053   6.295  -1.130  0.00  0.00    +0.016 C 
ATOM      7  N   UNL     1      -2.715   6.319   0.068  0.00  0.00    -0.321 N 
ATOM      8  C   UNL     1      -2.772   6.795  -2.359  0.00  0.00    +0.060 C 
ATOM      9  C   UNL     1      -2.263   6.046  -3.592  0.00  0.00    +0.039 C 
ATOM     10  C   UNL     1      -0.750   6.263  -3.703  0.00  0.00    +0.088 C 
ATOM     11  C   UNL     1      -0.095   5.806  -2.428  0.00  0.00    +0.162 C 
ATOM     12  O   UNL     1       1.050   5.403  -2.458  0.00  0.00    -0.292 OA
ATOM     13  H   UNL     1      -3.813   6.372   0.078  0.00  0.00    +0.152 HD
ENDROOT
BRANCH   4  14
ATOM     14  C   UNL     1      -0.050   3.840   0.022  0.00  0.00    -0.033 A 
ATOM     15  C   UNL     1      -1.238   3.133   0.030  0.00  0.00    +0.005 A 
ATOM     16  C   UNL     1      -1.219   1.751   0.017  0.00  0.00    +0.003 A 
ATOM     17  C   UNL     1      -0.013   1.076   0.008  0.00  0.00    +0.033 A 
ATOM     18  C   UNL     1       1.175   1.783   0.000  0.00  0.00    +0.126 A 
ATOM     19  C   UNL     1       1.156   3.166   0.008  0.00  0.00    +0.037 A 
BRANCH  18  20
ATOM     20  N   UNL     1       2.467   1.060  -0.016  0.00  0.00    +0.056 N 
ATOM     21  O   UNL     1       2.483  -0.157  -0.023  0.00  0.00    -0.126 OA
ATOM     22  O   UNL     1       3.513   1.684  -0.022  0.00  0.00    -0.126 OA
ENDBRANCH  18  20
ENDBRANCH   4  14
BRANCH   9  23
ATOM     23  C   UNL     1      -2.943   6.580  -4.826  0.00  0.00    -0.006 A 
ATOM     24  C   UNL     1      -3.719   5.925  -5.725  0.00  0.00    +0.011 A 
ATOM     25  C   UNL     1      -4.247   6.628  -6.791  0.00  0.00    +0.008 A 
ATOM     26  C   UNL     1      -3.966   7.948  -6.913  0.00  0.00    +0.045 A 
ATOM     27  S   UNL     1      -2.931   8.238  -5.487  0.00  0.00    -0.101 S 
ENDBRANCH   9  23
BRANCH   3  28
ATOM     28  C   UNL     1      -0.061   5.798   2.506  0.00  0.00    +0.338 C 
ATOM     29  O   UNL     1      -0.607   6.181   3.523  0.00  0.00    -0.245 OA
BRANCH  28  30
ATOM     30  O   UNL     1       1.210   5.347   2.552  0.00  0.00    -0.461 OA
BRANCH  30  31
ATOM     31  C   UNL     1       1.853   5.348   3.828  0.00  0.00    +0.237 C 
BRANCH  31  32
ATOM     32  C   UNL     1       3.277   4.807   3.682  0.00  0.00    +0.076 C 
BRANCH  32  33
ATOM     33  C   UNL     1       3.955   4.809   5.028  0.00  0.00    -0.044 A 
ATOM     34  C   UNL     1       4.672   5.917   5.439  0.00  0.00    +0.004 A 
ATOM     35  C   UNL     1       5.291   5.920   6.675  0.00  0.00    +0.000 A 
ATOM     36  C   UNL     1       5.200   4.811   7.497  0.00  0.00    +0.000 A 
ATOM     37  C   UNL     1       4.488   3.701   7.083  0.00  0.00    +0.000 A 
ATOM     38  C   UNL     1       3.866   3.700   5.849  0.00  0.00    +0.004 A 
ENDBRANCH  32  33
ENDBRANCH  31  32
ENDBRANCH  30  31
ENDBRANCH  28  30
ENDBRANCH   3  28
TORSDOF 8
