REMARK  Name = ZINC09583363
REMARK  7 active torsions:
REMARK  status: ('A' for Active; 'I' for Inactive)
REMARK    1  A    between atoms: C_1  and  C_2
REMARK    2  A    between atoms: C_2  and  C_4
REMARK    3  A    between atoms: C_2  and  N_68
REMARK    4  A    between atoms: N_6  and  C_7
REMARK    5  A    between atoms: C_10  and  S_13
REMARK    6  A    between atoms: S_13  and  N_16
REMARK    7  A    between atoms: C_24  and  C_26
REMARK                            x       y       z     vdW  Elec       q    Type
REMARK                         _______ _______ _______ _____ _____    ______ ____
ROOT
ATOM      1  C   UNL     1       4.323  -0.391   0.808  0.00  0.00    -0.004 C 
ATOM      2  C   UNL     1       3.610   0.812   0.186  0.00  0.00    +0.017 C 
ENDROOT
BRANCH   2   7
ATOM      3  C   UNL     1       1.468   1.953  -0.009  0.00  0.00    -0.077 C 
ATOM      4  C   UNL     1      -0.017   1.531   0.002  0.00  0.00    -0.020 C 
ATOM      5  C   UNL     1       0.005  -0.012   0.005  0.00  0.00    -0.013 C 
ATOM      6  C   UNL     1       1.501  -0.391  -0.005  0.00  0.00    -0.037 C 
ATOM      7  N   UNL     1       2.159   0.796   0.554  0.00  0.00    +0.392 N 
ATOM      8  H   UNL     1       2.070   0.798   1.577  0.00  0.00    -0.080 HD
BRANCH   6   9
ATOM      9  C   UNL     1       1.740  -1.609   0.850  0.00  0.00    -0.057 A 
ATOM     10  C   UNL     1       1.805  -1.483   2.226  0.00  0.00    +0.006 A 
ATOM     11  C   UNL     1       2.018  -2.597   3.018  0.00  0.00    +0.049 A 
ATOM     12  C   UNL     1       2.179  -3.838   2.426  0.00  0.00    +0.162 A 
ATOM     13  C   UNL     1       2.120  -3.964   1.046  0.00  0.00    +0.162 A 
ATOM     14  C   UNL     1       1.900  -2.848   0.257  0.00  0.00    +0.051 A 
ATOM     15  O   UNL     1       2.281  -5.192   0.473  0.00  0.00    -0.488 OA
ATOM     16  C   UNL     1       1.231  -6.133   0.708  0.00  0.00    +0.232 C 
ATOM     17  C   UNL     1       1.435  -6.848   2.034  0.00  0.00    +0.082 C 
ATOM     18  C   UNL     1       1.337  -5.904   3.222  0.00  0.00    +0.232 C 
ATOM     19  O   UNL     1       2.396  -4.945   3.196  0.00  0.00    -0.488 OA
ENDBRANCH   6   9
ENDBRANCH   2   7
BRANCH   2  20
ATOM     20  C   UNL     1       4.246   2.085   0.682  0.00  0.00    +0.203 C 
ATOM     21  O   UNL     1       3.584   2.896   1.294  0.00  0.00    -0.277 OA
ATOM     22  N   UNL     1       5.552   2.322   0.445  0.00  0.00    -0.287 N 
ATOM     23  H   UNL     1       6.097   1.645   0.015  0.00  0.00    +0.155 HD
BRANCH  22  24
ATOM     24  C   UNL     1       6.120   3.544   0.820  0.00  0.00    +0.033 A 
ATOM     25  C   UNL     1       7.116   4.117   0.039  0.00  0.00    +0.025 A 
ATOM     26  C   UNL     1       7.671   5.327   0.409  0.00  0.00    +0.030 A 
ATOM     27  C   UNL     1       7.244   5.962   1.561  0.00  0.00    +0.106 A 
ATOM     28  C   UNL     1       6.256   5.391   2.343  0.00  0.00    +0.030 A 
ATOM     29  C   UNL     1       5.693   4.185   1.976  0.00  0.00    +0.025 A 
BRANCH  27  30
ATOM     30  S   UNL     1       7.960   7.501   2.033  0.00  0.00    +0.061 S 
ATOM     31  O   UNL     1       8.475   8.090   0.847  0.00  0.00    -0.153 OA
ATOM     32  O   UNL     1       7.006   8.157   2.857  0.00  0.00    -0.153 OA
BRANCH  30  33
ATOM     33  N   UNL     1       9.263   7.160   2.997  0.00  0.00    -0.177 NA
ATOM     34  C   UNL     1       9.233   7.022   4.460  0.00  0.00    +0.109 C 
ATOM     35  C   UNL     1      10.676   6.729   4.922  0.00  0.00    +0.018 C 
ATOM     36  C   UNL     1      11.532   7.287   3.755  0.00  0.00    +0.018 C 
ATOM     37  C   UNL     1      10.645   6.951   2.530  0.00  0.00    +0.109 C 
ENDBRANCH  30  33
ENDBRANCH  27  30
ENDBRANCH  22  24
ENDBRANCH   2  20
TORSDOF 6
