REMARK  Name = ZINC36063242
REMARK  14 active torsions:
REMARK  status: ('A' for Active; 'I' for Inactive)
REMARK    1  A    between atoms: C_1  and  C_2
REMARK    2  A    between atoms: C_2  and  C_3
REMARK    3  A    between atoms: C_4  and  C_36
REMARK    4  A    between atoms: C_5  and  C_28
REMARK    5  A    between atoms: C_8  and  C_13
REMARK    6  A    between atoms: C_14  and  N_16
REMARK    7  A    between atoms: C_20  and  C_23
REMARK    8  A    between atoms: C_23  and  O_25
REMARK    9  A    between atoms: O_25  and  C_26
REMARK   10  A    between atoms: C_26  and  C_27
REMARK   11  A    between atoms: C_33  and  O_34
REMARK   12  A    between atoms: O_34  and  C_35
REMARK   13  A    between atoms: C_36  and  O_38
REMARK   14  A    between atoms: O_38  and  C_39
REMARK                            x       y       z     vdW  Elec       q    Type
REMARK                         _______ _______ _______ _____ _____    ______ ____
ROOT
ATOM      1  C   UNL     1       1.092  -1.345  -1.504  0.00  0.00    +0.056 C 
ATOM      2  C   UNL     1       2.466  -1.492  -1.475  0.00  0.00    +0.083 C 
ATOM      3  C   UNL     1       3.190  -1.607  -2.797  0.00  0.00    +0.153 C 
ATOM      4  N   UNL     1       2.361  -1.551  -4.030  0.00  0.00    -0.267 N 
ATOM      5  C   UNL     1       2.805  -1.636  -5.335  0.00  0.00    +0.048 C 
ATOM      6  C   UNL     1       1.881  -1.563  -6.318  0.00  0.00    +0.072 C 
ATOM      7  S   UNL     1       0.371  -1.374  -5.391  0.00  0.00    -0.060 S 
ATOM      8  C   UNL     1       1.016  -1.401  -3.841  0.00  0.00    +0.166 C 
ATOM      9  N   UNL     1       0.445  -1.312  -2.657  0.00  0.00    -0.229 NA
ENDROOT
BRANCH   3  10
ATOM     10  C   UNL     1       3.942  -2.913  -2.803  0.00  0.00    +0.020 A 
ATOM     11  C   UNL     1       3.354  -4.047  -3.331  0.00  0.00    +0.009 A 
ATOM     12  C   UNL     1       4.042  -5.245  -3.336  0.00  0.00    +0.001 A 
ATOM     13  C   UNL     1       5.320  -5.314  -2.812  0.00  0.00    +0.004 A 
ATOM     14  C   UNL     1       5.912  -4.183  -2.284  0.00  0.00    +0.046 A 
ATOM     15  C   UNL     1       5.226  -2.978  -2.282  0.00  0.00    +0.125 A 
BRANCH  15  16
ATOM     16  O   UNL     1       5.808  -1.863  -1.767  0.00  0.00    -0.495 OA
ATOM     17  C   UNL     1       7.169  -1.978  -1.345  0.00  0.00    +0.277 C 
ENDBRANCH  15  16
ENDBRANCH   3  10
BRANCH   5  18
ATOM     18  C   UNL     1       4.233  -1.798  -5.644  0.00  0.00    +0.091 C 
ATOM     19  C   UNL     1       4.627  -2.022  -6.912  0.00  0.00    +0.241 C 
ATOM     20  O   UNL     1       3.721  -1.982  -7.920  0.00  0.00    -0.271 OA
BRANCH  19  21
ATOM     21  N   UNL     1       5.956  -2.294  -7.187  0.00  0.00    -0.297 N 
ATOM     22  C   UNL     1       6.788  -3.018  -6.216  0.00  0.00    +0.108 C 
ATOM     23  C   UNL     1       7.431  -4.219  -6.917  0.00  0.00    +0.020 C 
ATOM     24  C   UNL     1       8.187  -3.736  -8.157  0.00  0.00    +0.018 C 
ATOM     25  C   UNL     1       7.207  -3.077  -9.130  0.00  0.00    +0.115 C 
ATOM     26  C   UNL     1       6.560  -1.868  -8.457  0.00  0.00    +0.122 C 
BRANCH  25  27
ATOM     27  C   UNL     1       7.947  -2.632 -10.365  0.00  0.00    +0.312 C 
ATOM     28  O   UNL     1       9.137  -2.822 -10.458  0.00  0.00    -0.250 OA
BRANCH  27  29
ATOM     29  O   UNL     1       7.285  -2.024 -11.362  0.00  0.00    -0.465 OA
BRANCH  29  30
ATOM     30  C   UNL     1       8.049  -1.629 -12.503  0.00  0.00    +0.229 C 
ATOM     31  C   UNL     1       7.130  -0.958 -13.525  0.00  0.00    +0.048 C 
ENDBRANCH  29  30
ENDBRANCH  27  29
ENDBRANCH  25  27
ENDBRANCH  19  21
ENDBRANCH   5  18
BRANCH   1  33
ATOM     32  C   UNL     1       0.188   0.249   0.167  0.00  0.00    +0.010 C 
ATOM     33  C   UNL     1       0.325  -1.226  -0.212  0.00  0.00    +0.053 C 
ENDBRANCH   1  33
BRANCH   2  34
ATOM     34  C   UNL     1       3.163  -1.534  -0.261  0.00  0.00    +0.339 C 
ATOM     35  O   UNL     1       3.718  -0.532   0.157  0.00  0.00    -0.245 OA
BRANCH  34  36
ATOM     36  O   UNL     1       3.222  -2.684   0.445  0.00  0.00    -0.465 OA
ATOM     37  C   UNL     1       3.858  -2.628   1.724  0.00  0.00    +0.280 C 
ENDBRANCH  34  36
ENDBRANCH   2  34
TORSDOF 10
