REMARK  Name = ZINC67128693
REMARK  6 active torsions:
REMARK  status: ('A' for Active; 'I' for Inactive)
REMARK    1  A    between atoms: C_4  and  N_7
REMARK    2  A    between atoms: N_7  and  C_8
REMARK    3  A    between atoms: C_14  and  C_16
REMARK    4  A    between atoms: C_16  and  N_17
REMARK    5  A    between atoms: C_19  and  O_27
REMARK    6  A    between atoms: C_22  and  C_24
REMARK                            x       y       z     vdW  Elec       q    Type
REMARK                         _______ _______ _______ _____ _____    ______ ____
ROOT
ATOM      1  N   UNL     1       2.845  -0.441  -2.529  0.00  0.00    -0.297 N 
ATOM      2  C   UNL     1       2.372  -0.120  -3.749  0.00  0.00    +0.200 C 
ATOM      3  O   UNL     1       1.432   0.640  -3.854  0.00  0.00    -0.278 OA
ENDROOT
BRANCH   1   7
ATOM      4  C   UNL     1      -0.004   1.556  -0.060  0.00  0.00    +0.000 C 
ATOM      5  C   UNL     1       1.434   2.078  -0.073  0.00  0.00    +0.002 C 
ATOM      6  C   UNL     1       2.149   1.573  -1.328  0.00  0.00    +0.022 C 
ATOM      7  C   UNL     1       2.161   0.043  -1.327  0.00  0.00    +0.076 C 
ATOM      8  C   UNL     1       0.723  -0.479  -1.314  0.00  0.00    +0.022 C 
ATOM      9  C   UNL     1       0.009   0.026  -0.059  0.00  0.00    +0.002 C 
ENDBRANCH   1   7
BRANCH   1  10
ATOM     10  C   UNL     1       4.045  -1.273  -2.404  0.00  0.00    +0.076 C 
ATOM     11  C   UNL     1       3.732  -2.491  -1.533  0.00  0.00    +0.022 C 
ATOM     12  C   UNL     1       4.984  -3.360  -1.403  0.00  0.00    +0.002 C 
ATOM     13  C   UNL     1       6.106  -2.545  -0.756  0.00  0.00    +0.000 C 
ATOM     14  C   UNL     1       6.419  -1.327  -1.627  0.00  0.00    +0.002 C 
ATOM     15  C   UNL     1       5.166  -0.458  -1.757  0.00  0.00    +0.022 C 
ENDBRANCH   1  10
BRANCH   2  16
ATOM     16  C   UNL     1       3.009  -0.706  -4.983  0.00  0.00    +0.020 C 
BRANCH  16  17
ATOM     17  N   UNL     1       2.398  -0.111  -6.179  0.00  0.00    +0.395 N 
ATOM     18  C   UNL     1       2.772   1.315  -6.288  0.00  0.00    -0.045 C 
ATOM     19  C   UNL     1       2.934   1.627  -7.787  0.00  0.00    +0.097 C 
ATOM     20  C   UNL     1       2.661   0.288  -8.509  0.00  0.00    +0.023 C 
ATOM     21  C   UNL     1       2.929  -0.763  -7.403  0.00  0.00    +0.022 C 
ATOM     22  H   UNL     1       1.394  -0.207  -6.141  0.00  0.00    -0.080 HD
BRANCH  21  23
ATOM     23  C   UNL     1       2.182  -2.041  -7.692  0.00  0.00    +0.197 C 
ATOM     24  O   UNL     1       1.285  -2.398  -6.958  0.00  0.00    -0.278 OA
ATOM     25  N   UNL     1       2.513  -2.787  -8.765  0.00  0.00    -0.331 N 
ATOM     26  H   UNL     1       3.230  -2.501  -9.351  0.00  0.00    +0.145 HD
ATOM     27  H   UNL     1       2.032  -3.609  -8.950  0.00  0.00    +0.145 HD
ENDBRANCH  21  23
BRANCH  19  28
ATOM     28  O   UNL     1       1.985   2.615  -8.194  0.00  0.00    -0.394 OA
ATOM     29  H   UNL     1       2.040   2.851  -9.130  0.00  0.00    +0.210 HD
ENDBRANCH  19  28
ENDBRANCH  16  17
ENDBRANCH   2  16
TORSDOF 6
