REMARK  Name = ZINC37641164
REMARK  6 active torsions:
REMARK  status: ('A' for Active; 'I' for Inactive)
REMARK    1  A    between atoms: C_1  and  C_2
REMARK    2  A    between atoms: C_7  and  N_8
REMARK    3  A    between atoms: C_9  and  C_11
REMARK    4  A    between atoms: C_11  and  N_12
REMARK    5  A    between atoms: C_25  and  C_28
REMARK    6  A    between atoms: C_26  and  C_27
REMARK                            x       y       z     vdW  Elec       q    Type
REMARK                         _______ _______ _______ _____ _____    ______ ____
ROOT
ATOM      1  N   UNL     1      -0.241  -0.905   5.988  0.00  0.00    -0.252 N 
ATOM      2  C   UNL     1      -1.446  -1.352   6.387  0.00  0.00    +0.266 A 
ATOM      3  O   UNL     1      -2.460  -0.965   5.835  0.00  0.00    -0.267 OA
ATOM      4  C   UNL     1      -1.522  -2.317   7.502  0.00  0.00    +0.078 A 
ATOM      5  C   UNL     1      -2.729  -2.932   8.097  0.00  0.00    +0.003 A 
ATOM      6  C   UNL     1      -2.516  -3.797   9.125  0.00  0.00    +0.004 A 
ATOM      7  S   UNL     1      -0.757  -3.832   9.341  0.00  0.00    -0.074 S 
ATOM      8  C   UNL     1      -0.304  -2.692   8.060  0.00  0.00    +0.095 A 
ATOM      9  N   UNL     1       0.881  -2.191   7.597  0.00  0.00    -0.301 N 
ATOM     10  H   UNL     1       1.715  -2.471   8.006  0.00  0.00    +0.171 HD
ATOM     11  C   UNL     1       0.896  -1.316   6.572  0.00  0.00    +0.331 A 
ATOM     12  O   UNL     1       1.961  -0.887   6.171  0.00  0.00    -0.246 OA
ATOM     13  C   UNL     1      -3.840  -4.316   9.596  0.00  0.00    +0.073 C 
ATOM     14  C   UNL     1      -4.860  -3.639   8.708  0.00  0.00    -0.064 C 
ATOM     15  C   UNL     1      -4.200  -2.863   7.869  0.00  0.00    -0.042 C 
ATOM     16  C   UNL     1      -4.853  -2.010   6.811  0.00  0.00    +0.044 C 
ATOM     17  C   UNL     1      -6.355  -3.820   8.768  0.00  0.00    +0.039 C 
ENDROOT
BRANCH   1  18
ATOM     18  C   UNL     1      -0.168   0.052   4.882  0.00  0.00    +0.226 C 
BRANCH  18  20
ATOM     19  N   UNL     1       0.025  -0.015   2.417  0.00  0.00    -0.284 N 
ATOM     20  C   UNL     1      -0.056  -0.694   3.578  0.00  0.00    +0.237 C 
ATOM     21  O   UNL     1      -0.040  -1.907   3.573  0.00  0.00    -0.274 OA
ATOM     22  H   UNL     1       0.078   0.954   2.425  0.00  0.00    +0.155 HD
BRANCH  19  29
ATOM     23  C   UNL     1      -1.264   1.184   0.181  0.00  0.00    +0.045 C 
ATOM     24  C   UNL     1      -0.584  -0.158   0.084  0.00  0.00    -0.029 A 
ATOM     25  C   UNL     1      -0.568  -0.840  -1.117  0.00  0.00    +0.005 A 
ATOM     26  C   UNL     1       0.055  -2.071  -1.206  0.00  0.00    +0.000 A 
ATOM     27  C   UNL     1       0.666  -2.622  -0.095  0.00  0.00    +0.002 A 
ATOM     28  C   UNL     1       0.655  -1.945   1.108  0.00  0.00    +0.023 A 
ATOM     29  C   UNL     1       0.034  -0.706   1.201  0.00  0.00    +0.036 A 
ENDBRANCH  19  29
ENDBRANCH  18  20
ENDBRANCH   1  18
TORSDOF 3
