REMARK  Name = ZINC12887391
REMARK  13 active torsions:
REMARK  status: ('A' for Active; 'I' for Inactive)
REMARK    1  A    between atoms: C_1  and  C_2
REMARK    2  A    between atoms: C_2  and  C_3
REMARK    3  A    between atoms: C_2  and  C_4
REMARK    4  A    between atoms: C_4  and  C_6
REMARK    5  A    between atoms: C_4  and  N_16
REMARK    6  A    between atoms: N_8  and  C_9
REMARK    7  A    between atoms: C_9  and  C_10
REMARK    8  A    between atoms: C_10  and  C_11
REMARK    9  A    between atoms: C_11  and  O_12
REMARK   10  A    between atoms: O_12  and  C_13
REMARK   11  A    between atoms: C_13  and  C_14
REMARK   12  A    between atoms: C_13  and  C_15
REMARK   13  A    between atoms: C_17  and  C_19
REMARK                            x       y       z     vdW  Elec       q    Type
REMARK                         _______ _______ _______ _____ _____    ______ ____
ROOT
ATOM      1  C   UNL     1      -2.223   1.843   3.058  0.00  0.00    +0.167 C 
ATOM      2  C   UNL     1      -2.335   0.766   4.146  0.00  0.00    +0.069 C 
ATOM      3  C   UNL     1      -3.238   1.240   5.256  0.00  0.00    -0.015 A 
ATOM      4  C   UNL     1      -3.358   0.679   6.591  0.00  0.00    +0.003 A 
ATOM      5  C   UNL     1      -2.718  -0.389   7.226  0.00  0.00    +0.010 A 
ATOM      6  C   UNL     1      -3.086  -0.648   8.524  0.00  0.00    +0.001 A 
ATOM      7  C   UNL     1      -4.043   0.106   9.182  0.00  0.00    +0.002 A 
ATOM      8  C   UNL     1      -4.693   1.168   8.577  0.00  0.00    +0.026 A 
ATOM      9  C   UNL     1      -4.340   1.454   7.259  0.00  0.00    +0.047 A 
ATOM     10  N   UNL     1      -4.770   2.408   6.383  0.00  0.00    -0.356 N 
ATOM     11  H   UNL     1      -5.445   3.077   6.573  0.00  0.00    +0.166 HD
ATOM     12  C   UNL     1      -4.103   2.278   5.194  0.00  0.00    +0.046 A 
ATOM     13  C   UNL     1      -4.255   3.149   3.972  0.00  0.00    +0.155 C 
ATOM     14  N   UNL     1      -3.551   2.440   2.878  0.00  0.00    -0.273 N 
ATOM     15  C   UNL     1      -4.343   2.433   1.797  0.00  0.00    +0.248 C 
ATOM     16  O   UNL     1      -3.992   2.138   0.672  0.00  0.00    -0.270 OA
ATOM     17  C   UNL     1      -5.700   2.834   2.182  0.00  0.00    +0.042 A 
ATOM     18  C   UNL     1      -5.674   3.288   3.538  0.00  0.00    -0.009 A 
ATOM     19  C   UNL     1      -6.812   3.691   4.168  0.00  0.00    +0.006 A 
ATOM     20  C   UNL     1      -7.994   3.689   3.432  0.00  0.00    +0.000 A 
ATOM     21  C   UNL     1      -8.028   3.284   2.113  0.00  0.00    +0.001 A 
ATOM     22  C   UNL     1      -6.890   2.849   1.451  0.00  0.00    +0.013 A 
ENDROOT
BRANCH   1  24
ATOM     23  N   UNL     1      -0.528   1.469   1.296  0.00  0.00    -0.302 N 
ATOM     24  C   UNL     1      -1.766   1.217   1.766  0.00  0.00    +0.235 C 
ATOM     25  O   UNL     1      -2.512   0.487   1.148  0.00  0.00    -0.274 OA
ATOM     26  H   UNL     1       0.068   2.053   1.789  0.00  0.00    +0.150 HD
BRANCH  23  27
ATOM     27  C   UNL     1      -0.084   0.860   0.040  0.00  0.00    +0.161 C 
BRANCH  27  28
ATOM     28  C   UNL     1       1.421   0.765   0.032  0.00  0.00    +0.234 C 
ATOM     29  O   UNL     1       2.081   1.556   0.671  0.00  0.00    -0.274 OA
ATOM     30  N   UNL     1       2.031  -0.199  -0.685  0.00  0.00    -0.314 N 
ATOM     31  H   UNL     1       1.508  -0.787  -1.252  0.00  0.00    +0.149 HD
BRANCH  30  32
ATOM     32  C   UNL     1       3.486  -0.360  -0.607  0.00  0.00    +0.106 C 
BRANCH  32  33
ATOM     33  C   UNL     1       3.920  -1.516  -1.510  0.00  0.00    +0.047 C 
BRANCH  33  34
ATOM     34  C   UNL     1       5.439  -1.683  -1.429  0.00  0.00    +0.161 C 
BRANCH  34  35
ATOM     35  O   UNL     1       5.844  -2.763  -2.272  0.00  0.00    -0.377 OA
BRANCH  35  36
ATOM     36  C   UNL     1       7.253  -3.005  -2.269  0.00  0.00    +0.112 C 
ATOM     37  C   UNL     1       7.595  -4.011  -1.168  0.00  0.00    +0.037 C 
ATOM     38  C   UNL     1       7.676  -3.571  -3.627  0.00  0.00    +0.037 C 
ENDBRANCH  35  36
ENDBRANCH  34  35
ENDBRANCH  33  34
ENDBRANCH  32  33
ENDBRANCH  30  32
ENDBRANCH  27  28
BRANCH  27  40
ATOM     39  C   UNL     1       0.022   3.135  -0.988  0.00  0.00    +0.009 C 
ATOM     40  C   UNL     1      -0.546   1.722  -1.137  0.00  0.00    +0.012 C 
ATOM     41  C   UNL     1      -0.048   1.107  -2.446  0.00  0.00    +0.009 C 
ENDBRANCH  27  40
ENDBRANCH  23  27
ENDBRANCH   1  24
TORSDOF 9
