REMARK  Name = ZINC40940534
REMARK  8 active torsions:
REMARK  status: ('A' for Active; 'I' for Inactive)
REMARK    1  A    between atoms: C_1  and  C_2
REMARK    2  A    between atoms: C_5  and  C_8
REMARK    3  A    between atoms: N_10  and  N_11
REMARK    4  A    between atoms: C_15  and  C_16
REMARK    5  A    between atoms: C_19  and  C_22
REMARK    6  A    between atoms: C_22  and  C_23
REMARK    7  A    between atoms: C_22  and  C_24
REMARK    8  A    between atoms: C_22  and  C_25
REMARK                            x       y       z     vdW  Elec       q    Type
REMARK                         _______ _______ _______ _____ _____    ______ ____
ROOT
ATOM      1  N   UNL     1       0.235  -6.383   1.565  0.00  0.00    -0.169 N 
ATOM      2  C   UNL     1      -0.872  -7.047   1.853  0.00  0.00    +0.275 C 
ATOM      3  O   UNL     1      -1.821  -6.506   2.389  0.00  0.00    -0.267 OA
ATOM      4  C   UNL     1      -0.897  -8.480   1.489  0.00  0.00    +0.079 C 
ATOM      5  C   UNL     1      -1.881  -9.398   1.658  0.00  0.00    +0.028 C 
ATOM      6  S   UNL     1       0.726  -8.670   0.764  0.00  0.00    -0.059 S 
ATOM      7  C   UNL     1       1.283  -6.986   0.966  0.00  0.00    +0.138 C 
ATOM      8  S   UNL     1       2.785  -6.301   0.511  0.00  0.00    -0.026 S 
ENDROOT
BRANCH   5   9
ATOM      9  C   UNL     1      -3.207  -8.974   2.130  0.00  0.00    -0.024 A 
ATOM     10  C   UNL     1      -3.773  -7.782   1.663  0.00  0.00    +0.008 A 
ATOM     11  C   UNL     1      -5.017  -7.393   2.111  0.00  0.00    +0.005 A 
ATOM     12  C   UNL     1      -5.707  -8.177   3.018  0.00  0.00    -0.042 A 
ATOM     13  C   UNL     1      -5.155  -9.358   3.485  0.00  0.00    +0.005 A 
ATOM     14  C   UNL     1      -3.914  -9.764   3.044  0.00  0.00    +0.008 A 
BRANCH  12  15
ATOM     15  C   UNL     1      -7.067  -7.743   3.502  0.00  0.00    -0.013 C 
ATOM     16  C   UNL     1      -8.020  -7.628   2.310  0.00  0.00    +0.015 C 
ATOM     17  C   UNL     1      -7.610  -8.777   4.491  0.00  0.00    +0.015 C 
ATOM     18  C   UNL     1      -6.952  -6.385   4.196  0.00  0.00    +0.015 C 
ENDBRANCH  12  15
ENDBRANCH   5   9
BRANCH   1  21
ATOM     19  C   UNL     1       0.214  -4.094   0.913  0.00  0.00    +0.261 C 
ATOM     20  O   UNL     1       0.045  -4.438  -0.240  0.00  0.00    -0.269 OA
ATOM     21  N   UNL     1       0.320  -5.022   1.885  0.00  0.00    -0.222 N 
ATOM     22  H   UNL     1       0.455  -4.747   2.805  0.00  0.00    +0.174 HD
BRANCH  19  27
ATOM     23  C   UNL     1       0.560   1.498   2.227  0.00  0.00    +0.044 C 
ATOM     24  C   UNL     1       0.469   0.034   1.883  0.00  0.00    -0.050 A 
ATOM     25  C   UNL     1       0.278  -0.354   0.569  0.00  0.00    +0.004 A 
ATOM     26  C   UNL     1       0.194  -1.693   0.247  0.00  0.00    +0.013 A 
ATOM     27  C   UNL     1       0.303  -2.657   1.250  0.00  0.00    +0.038 A 
ATOM     28  C   UNL     1       0.497  -2.259   2.574  0.00  0.00    +0.013 A 
ATOM     29  C   UNL     1       0.584  -0.916   2.881  0.00  0.00    +0.004 A 
ENDBRANCH  19  27
ENDBRANCH   1  21
TORSDOF 4
