REMARK  Name = ZINC65978643
REMARK  10 active torsions:
REMARK  status: ('A' for Active; 'I' for Inactive)
REMARK    1  A    between atoms: C_1  and  C_2
REMARK    2  A    between atoms: C_3  and  C_16
REMARK    3  A    between atoms: N_5  and  C_7
REMARK    4  A    between atoms: C_7  and  C_8
REMARK    5  A    between atoms: C_16  and  N_17
REMARK    6  A    between atoms: N_17  and  C_18
REMARK    7  A    between atoms: C_18  and  C_19
REMARK    8  A    between atoms: C_22  and  O_27
REMARK    9  A    between atoms: C_23  and  O_25
REMARK   10  A    between atoms: O_25  and  C_26
REMARK                            x       y       z     vdW  Elec       q    Type
REMARK                         _______ _______ _______ _____ _____    ______ ____
ROOT
ATOM      1  C   UNL     1      -0.018   1.503   0.010  0.00  0.00    +0.068 C 
ATOM      2  C   UNL     1       0.002  -0.004   0.002  0.00  0.00    +0.063 A 
ATOM      3  C   UNL     1       0.008  -0.818  -1.135  0.00  0.00    -0.005 A 
ATOM      4  C   UNL     1       0.028  -2.108  -0.724  0.00  0.00    +0.129 A 
ATOM      5  N   UNL     1       0.035  -2.109   0.626  0.00  0.00    -0.248 N 
ATOM      6  N   UNL     1       0.023  -0.777   1.058  0.00  0.00    -0.175 NA
ATOM      7 CL   UNL     1       0.043  -3.509  -1.749  0.00  0.00    -0.062 Cl
ENDROOT
BRANCH   5   8
ATOM      8  C   UNL     1       0.055  -3.294   1.487  0.00  0.00    +0.180 C 
BRANCH   8   9
ATOM      9  C   UNL     1       1.483  -3.682   1.775  0.00  0.00    -0.026 A 
ATOM     10  C   UNL     1       2.143  -4.558   0.935  0.00  0.00    +0.008 A 
ATOM     11  C   UNL     1       3.453  -4.914   1.198  0.00  0.00    +0.038 A 
ATOM     12  C   UNL     1       4.103  -4.391   2.303  0.00  0.00    +0.123 A 
ATOM     13  C   UNL     1       3.440  -3.513   3.144  0.00  0.00    +0.038 A 
ATOM     14  C   UNL     1       2.132  -3.155   2.876  0.00  0.00    +0.008 A 
ATOM     15  F   UNL     1       5.382  -4.739   2.562  0.00  0.00    -0.205 F 
ENDBRANCH   8   9
ENDBRANCH   5   8
BRANCH   3  16
ATOM     16  C   UNL     1      -0.006  -0.343  -2.566  0.00  0.00    -0.041 C 
BRANCH  16  17
ATOM     17  N   UNL     1       1.374  -0.168  -3.038  0.00  0.00    +0.384 N 
ATOM     18  H   UNL     1       1.843   0.514  -2.461  0.00  0.00    -0.085 HD
ATOM     19  H   UNL     1       1.863  -1.049  -2.981  0.00  0.00    -0.085 HD
BRANCH  17  20
ATOM     20  C   UNL     1       1.360   0.295  -4.432  0.00  0.00    -0.046 C 
BRANCH  20  21
ATOM     21  C   UNL     1       2.776   0.474  -4.916  0.00  0.00    -0.061 A 
ATOM     22  C   UNL     1       3.411   1.691  -4.755  0.00  0.00    +0.005 A 
ATOM     23  C   UNL     1       4.710   1.860  -5.197  0.00  0.00    +0.049 A 
ATOM     24  C   UNL     1       5.378   0.808  -5.803  0.00  0.00    +0.158 A 
ATOM     25  C   UNL     1       4.738  -0.417  -5.965  0.00  0.00    +0.161 A 
ATOM     26  C   UNL     1       3.438  -0.581  -5.515  0.00  0.00    +0.051 A 
BRANCH  25  27
ATOM     27  O   UNL     1       5.390  -1.452  -6.559  0.00  0.00    -0.491 OA
ATOM     28  C   UNL     1       4.671  -2.680  -6.692  0.00  0.00    +0.277 C 
ENDBRANCH  25  27
BRANCH  24  29
ATOM     29  O   UNL     1       6.655   0.974  -6.239  0.00  0.00    -0.503 OA
ATOM     30  H   UNL     1       7.327   0.759  -5.578  0.00  0.00    +0.292 HD
ENDBRANCH  24  29
ENDBRANCH  20  21
ENDBRANCH  17  20
ENDBRANCH  16  17
ENDBRANCH   3  16
TORSDOF 8
