REMARK  Name = ZINC39302115
REMARK  10 active torsions:
REMARK  status: ('A' for Active; 'I' for Inactive)
REMARK    1  A    between atoms: C_1  and  C_2
REMARK    2  A    between atoms: C_2  and  C_3
REMARK    3  A    between atoms: C_2  and  N_4
REMARK    4  A    between atoms: C_15  and  C_20
REMARK    5  A    between atoms: C_23  and  C_26
REMARK    6  A    between atoms: N_28  and  C_29
REMARK    7  A    between atoms: N_28  and  C_30
REMARK    8  A    between atoms: C_30  and  C_31
REMARK    9  A    between atoms: C_31  and  N_32
REMARK   10  A    between atoms: C_33  and  C_35
REMARK                            x       y       z     vdW  Elec       q    Type
REMARK                         _______ _______ _______ _____ _____    ______ ____
ROOT
ATOM      1  N   UNL     1       1.236   1.306   1.738  0.00  0.00    +0.381 N 
ATOM      2  C   UNL     1       1.376  -0.145   1.571  0.00  0.00    -0.075 C 
ATOM      3  C   UNL     1       2.162  -0.725   2.749  0.00  0.00    +0.030 C 
ATOM      4  C   UNL     1       1.415  -0.426   4.050  0.00  0.00    +0.114 C 
ATOM      5  C   UNL     1       1.207   1.085   4.178  0.00  0.00    +0.030 C 
ATOM      6  C   UNL     1       0.455   1.596   2.946  0.00  0.00    -0.075 C 
ATOM      7  C   UNL     1       2.247  -0.924   5.240  0.00  0.00    +0.127 C 
ATOM      8  C   UNL     1       1.451  -0.624   6.498  0.00  0.00    +0.170 C 
ATOM      9  O   UNL     1       1.986  -0.224   7.511  0.00  0.00    -0.292 OA
ATOM     10  C   UNL     1      -0.004  -0.843   6.425  0.00  0.00    +0.060 A 
ATOM     11  C   UNL     1      -0.783  -0.832   7.580  0.00  0.00    +0.023 A 
ATOM     12  C   UNL     1      -2.155  -1.036   7.484  0.00  0.00    -0.017 A 
ATOM     13  C   UNL     1      -2.742  -1.251   6.233  0.00  0.00    +0.012 A 
ATOM     14  C   UNL     1      -1.972  -1.264   5.091  0.00  0.00    +0.047 A 
ATOM     15  C   UNL     1      -0.599  -1.063   5.170  0.00  0.00    +0.132 A 
ATOM     16  O   UNL     1       0.151  -1.086   4.044  0.00  0.00    -0.485 OA
ATOM     17  H   UNL     1       2.151   1.723   1.821  0.00  0.00    -0.081 HD
ENDROOT
BRANCH  12  18
ATOM     18  C   UNL     1      -2.995  -1.028   8.705  0.00  0.00    -0.018 A 
ATOM     19  C   UNL     1      -2.409  -0.808   9.953  0.00  0.00    +0.009 A 
ATOM     20  C   UNL     1      -3.187  -0.800  11.088  0.00  0.00    +0.013 A 
ATOM     21  C   UNL     1      -4.565  -1.011  10.991  0.00  0.00    +0.037 A 
ATOM     22  C   UNL     1      -5.151  -1.231   9.741  0.00  0.00    +0.013 A 
ATOM     23  C   UNL     1      -4.372  -1.233   8.607  0.00  0.00    +0.009 A 
BRANCH  21  24
ATOM     24  C   UNL     1      -5.401  -1.004  12.208  0.00  0.00    +0.246 C 
ATOM     25  O   UNL     1      -6.501  -0.486  12.186  0.00  0.00    -0.270 OA
ATOM     26  N   UNL     1      -4.945  -1.570  13.342  0.00  0.00    -0.299 N 
ATOM     27  C   UNL     1      -3.580  -2.099  13.400  0.00  0.00    +0.132 C 
BRANCH  26  28
ATOM     28  C   UNL     1      -5.814  -1.657  14.519  0.00  0.00    +0.126 C 
BRANCH  28  29
ATOM     29  C   UNL     1      -6.596  -2.972  14.479  0.00  0.00    +0.123 C 
BRANCH  29  30
ATOM     30  N   UNL     1      -7.465  -3.059  15.655  0.00  0.00    -0.306 N 
ATOM     31  C   UNL     1      -8.252  -4.139  15.833  0.00  0.00    +0.317 C 
ATOM     32  O   UNL     1      -8.241  -5.038  15.019  0.00  0.00    -0.266 OA
ATOM     33  H   UNL     1      -7.474  -2.340  16.306  0.00  0.00    +0.149 HD
BRANCH  31  34
ATOM     34  C   UNL     1      -9.146  -4.228  17.043  0.00  0.00    +0.469 C 
ATOM     35  F   UNL     1      -9.860  -5.431  17.007  0.00  0.00    -0.162 F 
ATOM     36  F   UNL     1      -8.366  -4.184  18.203  0.00  0.00    -0.162 F 
ATOM     37  F   UNL     1     -10.041  -3.154  17.041  0.00  0.00    -0.162 F 
ENDBRANCH  31  34
ENDBRANCH  29  30
ENDBRANCH  28  29
ENDBRANCH  26  28
ENDBRANCH  21  24
ENDBRANCH  12  18
BRANCH   1  39
ATOM     38  C   UNL     1       0.411   3.383   0.735  0.00  0.00    -0.014 C 
ATOM     39  C   UNL     1       0.549   1.869   0.567  0.00  0.00    -0.075 C 
ATOM     40  C   UNL     1       1.362   1.567  -0.694  0.00  0.00    -0.014 C 
ENDBRANCH   1  39
TORSDOF 7
