REMARK  Name = ZINC20873910
REMARK  12 active torsions:
REMARK  status: ('A' for Active; 'I' for Inactive)
REMARK    1  A    between atoms: C_1  and  C_2
REMARK    2  A    between atoms: C_5  and  C_8
REMARK    3  A    between atoms: C_8  and  O_9
REMARK    4  A    between atoms: O_9  and  C_10
REMARK    5  A    between atoms: C_11  and  O_28
REMARK    6  A    between atoms: C_13  and  C_17
REMARK    7  A    between atoms: C_17  and  N_18
REMARK    8  A    between atoms: N_18  and  C_19
REMARK    9  A    between atoms: C_19  and  C_20
REMARK   10  A    between atoms: C_23  and  O_26
REMARK   11  A    between atoms: O_26  and  C_27
REMARK   12  A    between atoms: O_28  and  C_29
REMARK                            x       y       z     vdW  Elec       q    Type
REMARK                         _______ _______ _______ _____ _____    ______ ____
ROOT
ATOM      1  C   UNL     1      -1.432   3.411   2.466  0.00  0.00    +0.176 A 
ATOM      2  C   UNL     1      -0.787   2.893   1.346  0.00  0.00    +0.163 A 
ATOM      3  C   UNL     1      -0.259   3.751   0.395  0.00  0.00    +0.051 A 
ATOM      4  C   UNL     1      -0.368   5.119   0.561  0.00  0.00    -0.060 A 
ATOM      5  C   UNL     1      -1.002   5.635   1.675  0.00  0.00    +0.021 A 
ATOM      6  C   UNL     1      -1.532   4.784   2.630  0.00  0.00    +0.063 A 
ATOM      7 BR   UNL     1      -2.398   5.494   4.153  0.00  0.00    -0.046 Br
ENDROOT
BRANCH   2   8
ATOM      8  O   UNL     1      -0.682   1.547   1.184  0.00  0.00    -0.491 OA
ATOM      9  C   UNL     1      -0.013   1.086   0.008  0.00  0.00    +0.277 C 
ENDBRANCH   2   8
BRANCH   1  10
ATOM     10  O   UNL     1      -1.957   2.573   3.399  0.00  0.00    -0.483 OA
BRANCH  10  11
ATOM     11  C   UNL     1      -1.102   2.184   4.476  0.00  0.00    +0.264 C 
BRANCH  11  16
ATOM     12  C   UNL     1      -3.970  -1.353   8.033  0.00  0.00    +0.044 C 
ATOM     13  C   UNL     1      -3.222  -0.430   7.106  0.00  0.00    -0.050 A 
ATOM     14  C   UNL     1      -2.507  -0.950   6.043  0.00  0.00    +0.004 A 
ATOM     15  C   UNL     1      -1.820  -0.104   5.192  0.00  0.00    +0.007 A 
ATOM     16  C   UNL     1      -1.850   1.262   5.404  0.00  0.00    -0.010 A 
ATOM     17  C   UNL     1      -2.561   1.781   6.469  0.00  0.00    +0.007 A 
ATOM     18  C   UNL     1      -3.251   0.935   7.317  0.00  0.00    +0.004 A 
ENDBRANCH  11  16
ENDBRANCH  10  11
ENDBRANCH   1  10
BRANCH   4  19
ATOM     19  C   UNL     1       0.207   6.050  -0.475  0.00  0.00    -0.046 C 
BRANCH  19  20
ATOM     20  N   UNL     1      -0.811   6.340  -1.492  0.00  0.00    +0.384 N 
ATOM     21  H   UNL     1      -1.124   5.402  -1.975  0.00  0.00    -0.085 HD
ATOM     22  H   UNL     1      -1.681   6.814  -1.016  0.00  0.00    -0.085 HD
BRANCH  20  23
ATOM     23  C   UNL     1      -0.285   7.247  -2.521  0.00  0.00    -0.046 C 
BRANCH  23  24
ATOM     24  C   UNL     1      -1.356   7.520  -3.546  0.00  0.00    -0.064 A 
ATOM     25  C   UNL     1      -1.471   6.707  -4.658  0.00  0.00    +0.005 A 
ATOM     26  C   UNL     1      -2.455   6.952  -5.596  0.00  0.00    +0.046 A 
ATOM     27  C   UNL     1      -3.322   8.022  -5.426  0.00  0.00    +0.120 A 
ATOM     28  C   UNL     1      -3.200   8.840  -4.312  0.00  0.00    +0.046 A 
ATOM     29  C   UNL     1      -2.218   8.587  -3.375  0.00  0.00    +0.005 A 
BRANCH  27  30
ATOM     30  O   UNL     1      -4.288   8.268  -6.350  0.00  0.00    -0.495 OA
ATOM     31  C   UNL     1      -4.353   7.385  -7.471  0.00  0.00    +0.277 C 
ENDBRANCH  27  30
ENDBRANCH  23  24
ENDBRANCH  20  23
ENDBRANCH  19  20
ENDBRANCH   4  19
TORSDOF 9
