REMARK  Name = ZINC12347529
REMARK  8 active torsions:
REMARK  status: ('A' for Active; 'I' for Inactive)
REMARK    1  A    between atoms: C_1  and  C_2
REMARK    2  A    between atoms: C_2  and  C_29
REMARK    3  A    between atoms: C_6  and  C_16
REMARK    4  A    between atoms: C_13  and  O_14
REMARK    5  A    between atoms: C_18  and  O_24
REMARK    6  A    between atoms: C_21  and  O_22
REMARK    7  A    between atoms: O_22  and  C_23
REMARK    8  A    between atoms: O_24  and  C_25
REMARK                            x       y       z     vdW  Elec       q    Type
REMARK                         _______ _______ _______ _____ _____    ______ ____
ROOT
ATOM      1  C   UNL     1      -4.284  -0.159   4.095  0.00  0.00    +0.011 C 
ATOM      2  C   UNL     1      -4.747  -0.086   5.551  0.00  0.00    -0.023 C 
ATOM      3  C   UNL     1      -4.751   1.371   6.019  0.00  0.00    +0.058 C 
ATOM      4  C   UNL     1      -3.351   1.937   5.938  0.00  0.00    +0.017 C 
ATOM      5  C   UNL     1      -2.273   1.144   6.118  0.00  0.00    +0.024 C 
ATOM      6  C   UNL     1      -0.856   1.673   6.060  0.00  0.00    +0.096 C 
ATOM      7  C   UNL     1      -0.875   3.174   6.112  0.00  0.00    +0.067 A 
ATOM      8  C   UNL     1      -2.020   3.902   5.925  0.00  0.00    +0.126 A 
ATOM      9  N   UNL     1      -1.701   5.206   6.028  0.00  0.00    -0.260 N 
ATOM     10  H   UNL     1      -2.331   5.976   5.935  0.00  0.00    +0.190 HD
ATOM     11  N   UNL     1      -0.324   5.290   6.290  0.00  0.00    -0.134 NA
ATOM     12  C   UNL     1       0.166   4.070   6.340  0.00  0.00    +0.237 A 
ATOM     13  N   UNL     1      -3.240   3.281   5.684  0.00  0.00    -0.303 N 
ATOM     14  C   UNL     1      -2.423  -0.232   6.372  0.00  0.00    +0.162 C 
ATOM     15  O   UNL     1      -1.433  -0.916   6.538  0.00  0.00    -0.292 OA
ATOM     16  C   UNL     1      -3.781  -0.874   6.441  0.00  0.00    +0.086 C 
ATOM     17  C   UNL     1      -6.156  -0.670   5.675  0.00  0.00    +0.011 C 
ATOM     18  H   UNL     1      -3.995   3.786   5.343  0.00  0.00    +0.153 HD
ENDROOT
BRANCH   6  19
ATOM     19  C   UNL     1      -0.206   1.224   4.777  0.00  0.00    +0.010 A 
ATOM     20  C   UNL     1      -0.747   1.595   3.561  0.00  0.00    +0.053 A 
ATOM     21  C   UNL     1      -0.148   1.182   2.380  0.00  0.00    +0.121 A 
ATOM     22  C   UNL     1       0.991   0.392   2.420  0.00  0.00    +0.049 A 
ATOM     23  C   UNL     1       1.536   0.026   3.635  0.00  0.00    +0.049 A 
ATOM     24  C   UNL     1       0.937   0.439   4.816  0.00  0.00    +0.124 A 
BRANCH  24  25
ATOM     25  O   UNL     1       1.470   0.074   6.013  0.00  0.00    -0.495 OA
ATOM     26  C   UNL     1       2.647  -0.735   5.979  0.00  0.00    +0.277 C 
ENDBRANCH  24  25
BRANCH  21  27
ATOM     27  O   UNL     1      -0.682   1.547   1.184  0.00  0.00    -0.495 OA
ATOM     28  C   UNL     1      -0.013   1.086   0.008  0.00  0.00    +0.277 C 
ENDBRANCH  21  27
ENDBRANCH   6  19
BRANCH  12  29
ATOM     29  O   UNL     1       1.465   3.741   6.573  0.00  0.00    -0.491 OA
ATOM     30  H   UNL     1       2.002   4.574   6.703  0.00  0.00    +0.294 HD
ENDBRANCH  12  29
TORSDOF 4
