REMARK  Name = ZINC09434847
REMARK  11 active torsions:
REMARK  status: ('A' for Active; 'I' for Inactive)
REMARK    1  A    between atoms: C_1  and  O_2
REMARK    2  A    between atoms: O_2  and  C_3
REMARK    3  A    between atoms: C_7  and  C_9
REMARK    4  A    between atoms: C_9  and  C_11
REMARK    5  A    between atoms: C_9  and  N_61
REMARK    6  A    between atoms: C_11  and  O_13
REMARK    7  A    between atoms: O_13  and  C_14
REMARK    8  A    between atoms: C_15  and  N_61
REMARK    9  A    between atoms: N_25  and  C_26
REMARK   10  A    between atoms: C_26  and  C_27
REMARK   11  A    between atoms: C_27  and  C_28
REMARK                            x       y       z     vdW  Elec       q    Type
REMARK                         _______ _______ _______ _____ _____    ______ ____
ROOT
ATOM      1  C   UNL     1       3.690   1.391  -0.161  0.00  0.00    +0.048 C 
ATOM      2  C   UNL     1       2.427   0.629   0.136  0.00  0.00    -0.058 C 
ATOM      3  C   UNL     1       1.439   1.215  -0.541  0.00  0.00    +0.014 C 
ATOM      4  C   UNL     1       0.003   0.744  -0.509  0.00  0.00    +0.040 C 
ATOM      5  C   UNL     1      -0.027  -0.687   0.040  0.00  0.00    +0.005 C 
ATOM      6  C   UNL     1       0.776  -0.751   1.342  0.00  0.00    +0.005 C 
ATOM      7  C   UNL     1       2.267  -0.576   1.026  0.00  0.00    +0.031 C 
ATOM      8  C   UNL     1       1.971   2.354  -1.293  0.00  0.00    +0.241 C 
ATOM      9  O   UNL     1       1.313   3.087  -2.006  0.00  0.00    -0.270 OA
ATOM     10  N   UNL     1       3.296   2.471  -1.079  0.00  0.00    -0.307 N 
ENDROOT
BRANCH   1  11
ATOM     11  N   UNL     1       4.243   1.966   1.080  0.00  0.00    +0.405 N 
ATOM     12  H   UNL     1       4.799   2.798   0.850  0.00  0.00    -0.081 HD
ATOM     13  H   UNL     1       3.471   2.232   1.703  0.00  0.00    -0.081 HD
BRANCH  11  14
ATOM     14  C   UNL     1       5.102   0.981   1.763  0.00  0.00    +0.073 C 
BRANCH  14  19
ATOM     15  C   UNL     1       5.134   0.548   5.516  0.00  0.00    +0.120 A 
ATOM     16  C   UNL     1       5.198   1.866   5.944  0.00  0.00    +0.045 A 
ATOM     17  C   UNL     1       5.231   2.891   5.018  0.00  0.00    +0.004 A 
ATOM     18  C   UNL     1       5.205   2.603   3.666  0.00  0.00    +0.003 A 
ATOM     19  C   UNL     1       5.136   1.290   3.237  0.00  0.00    -0.047 A 
ATOM     20  C   UNL     1       5.103   0.262   4.159  0.00  0.00    +0.048 A 
BRANCH  15  22
ATOM     21  C   UNL     1       5.137  -0.093   7.806  0.00  0.00    +0.277 C 
ATOM     22  O   UNL     1       5.102  -0.462   6.425  0.00  0.00    -0.495 OA
ENDBRANCH  15  22
ENDBRANCH  14  19
BRANCH  14  23
ATOM     23  C   UNL     1       6.499   1.057   1.202  0.00  0.00    +0.297 C 
ATOM     24  O   UNL     1       6.899   2.088   0.716  0.00  0.00    -0.252 OA
BRANCH  23  25
ATOM     25  O   UNL     1       7.298  -0.021   1.241  0.00  0.00    -0.469 OA
ATOM     26  C   UNL     1       8.664   0.154   0.782  0.00  0.00    +0.280 C 
ENDBRANCH  23  25
ENDBRANCH  14  23
ENDBRANCH  11  14
ENDBRANCH   1  11
BRANCH  10  27
ATOM     27  C   UNL     1       4.182   3.486  -1.655  0.00  0.00    +0.111 C 
BRANCH  27  28
ATOM     28  C   UNL     1       4.138   4.749  -0.793  0.00  0.00    +0.054 C 
BRANCH  28  29
ATOM     29  C   UNL     1       4.953   5.833  -1.450  0.00  0.00    -0.046 A 
ATOM     30  C   UNL     1       6.314   5.910  -1.221  0.00  0.00    +0.005 A 
ATOM     31  C   UNL     1       7.063   6.900  -1.827  0.00  0.00    +0.020 A 
ATOM     32  C   UNL     1       6.449   7.823  -2.655  0.00  0.00    +0.041 A 
ATOM     33  C   UNL     1       5.086   7.750  -2.880  0.00  0.00    +0.020 A 
ATOM     34  C   UNL     1       4.339   6.755  -2.277  0.00  0.00    +0.005 A 
ATOM     35 CL   UNL     1       7.388   9.072  -3.411  0.00  0.00    -0.084 Cl
ENDBRANCH  28  29
ENDBRANCH  27  28
ENDBRANCH  10  27
TORSDOF 9
