REMARK  Name = ZINC03596230
REMARK  9 active torsions:
REMARK  status: ('A' for Active; 'I' for Inactive)
REMARK    1  A    between atoms: C_1  and  C_2
REMARK    2  A    between atoms: C_2  and  C_3
REMARK    3  A    between atoms: C_3  and  C_4
REMARK    4  A    between atoms: C_4  and  C_23
REMARK    5  A    between atoms: N_7  and  C_11
REMARK    6  A    between atoms: C_11  and  C_12
REMARK    7  A    between atoms: N_14  and  C_15
REMARK    8  A    between atoms: C_17  and  C_22
REMARK    9  A    between atoms: C_20  and  C_21
REMARK                            x       y       z     vdW  Elec       q    Type
REMARK                         _______ _______ _______ _____ _____    ______ ____
ROOT
ATOM      1  C   UNL     1       3.461  -1.179  -0.656  0.00  0.00    +0.138 C 
ATOM      2  C   UNL     1       2.093  -0.722  -1.123  0.00  0.00    +0.251 C 
ATOM      3  O   UNL     1       1.712  -0.603  -2.268  0.00  0.00    -0.272 OA
ATOM      4  N   UNL     1       1.389  -0.474  -0.001  0.00  0.00    -0.215 N 
ATOM      5  C   UNL     1       2.112  -0.716   1.099  0.00  0.00    +0.310 C 
ATOM      6  O   UNL     1       1.692  -0.569   2.229  0.00  0.00    -0.252 OA
ATOM      7  N   UNL     1       3.357  -1.139   0.813  0.00  0.00    -0.281 N 
ATOM      8  H   UNL     1       4.218  -1.428   1.433  0.00  0.00    +0.152 HD
ENDROOT
BRANCH   1   9
ATOM      9  C   UNL     1       3.737  -2.583  -1.130  0.00  0.00    -0.015 A 
ATOM     10  C   UNL     1       4.441  -2.791  -2.301  0.00  0.00    +0.006 A 
ATOM     11  C   UNL     1       4.699  -4.079  -2.733  0.00  0.00    +0.000 A 
ATOM     12  C   UNL     1       4.242  -5.158  -1.999  0.00  0.00    +0.000 A 
ATOM     13  C   UNL     1       3.533  -4.950  -0.831  0.00  0.00    +0.000 A 
ATOM     14  C   UNL     1       3.280  -3.662  -0.396  0.00  0.00    +0.006 A 
ENDBRANCH   1   9
BRANCH   1  15
ATOM     15  C   UNL     1       4.552  -0.224  -1.145  0.00  0.00    +0.040 C 
BRANCH  15  17
ATOM     16  C   UNL     1       5.378   2.133  -1.081  0.00  0.00    +0.004 C 
ATOM     17  C   UNL     1       4.287   1.178  -0.592  0.00  0.00    -0.000 C 
ENDBRANCH  15  17
ENDBRANCH   1  15
BRANCH   4  18
ATOM     18  C   UNL     1       0.002  -0.004   0.013  0.00  0.00    +0.214 C 
BRANCH  18  19
ATOM     19  C   UNL     1      -0.018   1.502   0.013  0.00  0.00    +0.235 C 
ATOM     20  O   UNL     1       1.024   2.123   0.003  0.00  0.00    -0.274 OA
ATOM     21  N   UNL     1      -1.195   2.161   0.019  0.00  0.00    -0.284 N 
ATOM     22  H   UNL     1      -2.138   1.602  -0.064  0.00  0.00    +0.155 HD
BRANCH  21  23
ATOM     23  C   UNL     1      -1.215   3.555   0.133  0.00  0.00    +0.037 A 
ATOM     24  C   UNL     1      -0.156   4.220   0.737  0.00  0.00    +0.027 A 
ATOM     25  C   UNL     1      -0.180   5.596   0.848  0.00  0.00    -0.049 A 
ATOM     26  C   UNL     1      -1.256   6.313   0.357  0.00  0.00    +0.004 A 
ATOM     27  C   UNL     1      -2.312   5.654  -0.246  0.00  0.00    +0.005 A 
ATOM     28  C   UNL     1      -2.292   4.278  -0.364  0.00  0.00    -0.029 A 
ATOM     29  C   UNL     1      -3.440   3.561  -1.027  0.00  0.00    +0.045 C 
ATOM     30  C   UNL     1       0.969   6.319   1.504  0.00  0.00    +0.044 C 
ENDBRANCH  21  23
ENDBRANCH  18  19
ENDBRANCH   4  18
TORSDOF 6
