REMARK  Name = ZINC64540625
REMARK  9 active torsions:
REMARK  status: ('A' for Active; 'I' for Inactive)
REMARK    1  A    between atoms: C_1  and  C_2
REMARK    2  A    between atoms: N_8  and  C_9
REMARK    3  A    between atoms: C_9  and  C_10
REMARK    4  A    between atoms: C_10  and  C_11
REMARK    5  A    between atoms: C_11  and  N_12
REMARK    6  A    between atoms: C_13  and  C_15
REMARK    7  A    between atoms: C_15  and  C_17
REMARK    8  A    between atoms: C_15  and  C_18
REMARK    9  A    between atoms: C_24  and  C_26
REMARK                            x       y       z     vdW  Elec       q    Type
REMARK                         _______ _______ _______ _____ _____    ______ ____
ROOT
ATOM      1  C   UNL     1       0.707   0.375   9.766  0.00  0.00    +0.004 C 
ATOM      2  C   UNL     1      -0.713  -0.186   9.880  0.00  0.00    +0.023 C 
ATOM      3  C   UNL     1      -1.393   0.406  11.120  0.00  0.00    +0.108 C 
ATOM      4  N   UNL     1      -0.546   0.148  12.292  0.00  0.00    -0.300 N 
ATOM      5  C   UNL     1       0.863   0.565  12.252  0.00  0.00    +0.108 C 
ATOM      6  C   UNL     1       1.517  -0.028  11.000  0.00  0.00    +0.023 C 
ATOM      7  C   UNL     1      -1.051  -0.460  13.384  0.00  0.00    +0.242 C 
ATOM      8  O   UNL     1      -2.215  -0.799  13.405  0.00  0.00    -0.273 OA
ENDROOT
BRANCH   7   9
ATOM      9  C   UNL     1      -0.170  -0.717  14.579  0.00  0.00    +0.190 C 
ATOM     10  C   UNL     1       0.960  -1.650  14.202  0.00  0.00    +0.016 C 
ATOM     11  C   UNL     1       0.818  -2.745  14.982  0.00  0.00    -0.004 A 
ATOM     12  C   UNL     1       1.585  -3.992  15.096  0.00  0.00    +0.010 A 
ATOM     13  C   UNL     1       1.189  -4.926  15.989  0.00  0.00    +0.001 A 
ATOM     14  C   UNL     1       0.067  -4.735  16.808  0.00  0.00    +0.002 A 
ATOM     15  C   UNL     1      -0.688  -3.617  16.761  0.00  0.00    +0.026 A 
ATOM     16  C   UNL     1      -0.363  -2.568  15.858  0.00  0.00    +0.043 A 
ATOM     17  N   UNL     1      -0.929  -1.406  15.628  0.00  0.00    -0.370 N 
ATOM     18  H   UNL     1      -1.717  -1.061  16.076  0.00  0.00    +0.161 HD
ENDBRANCH   7   9
BRANCH   1  19
ATOM     19  C   UNL     1       1.377  -0.187   8.511  0.00  0.00    +0.075 C 
ATOM     20  C   UNL     1       2.795   0.374   8.395  0.00  0.00    +0.017 C 
BRANCH  19  22
ATOM     21  N   UNL     1       0.983  -0.177   6.069  0.00  0.00    -0.315 N 
ATOM     22  C   UNL     1       0.579   0.209   7.295  0.00  0.00    +0.216 C 
ATOM     23  O   UNL     1      -0.427   0.876   7.421  0.00  0.00    -0.276 OA
ATOM     24  H   UNL     1       1.787  -0.710   5.968  0.00  0.00    +0.149 HD
BRANCH  21  25
ATOM     25  C   UNL     1       0.207   0.209   4.887  0.00  0.00    +0.102 C 
BRANCH  25  26
ATOM     26  C   UNL     1       0.877  -0.353   3.631  0.00  0.00    +0.000 C 
BRANCH  26  27
ATOM     27  C   UNL     1       0.067   0.050   2.397  0.00  0.00    -0.077 C 
BRANCH  27  34
ATOM     28  C   UNL     1      -0.019   1.526   0.010  0.00  0.00    -0.013 C 
ATOM     29  C   UNL     1       0.002  -0.004   0.002  0.00  0.00    -0.072 C 
ATOM     30  C   UNL     1       0.717  -0.497  -1.258  0.00  0.00    -0.016 C 
ATOM     31  C   UNL     1       0.735  -2.028  -1.262  0.00  0.00    -0.003 C 
ATOM     32  C   UNL     1       1.410  -2.524   0.020  0.00  0.00    -0.019 C 
ATOM     33  C   UNL     1       0.669  -1.956   1.232  0.00  0.00    -0.078 C 
ATOM     34  N   UNL     1       0.711  -0.490   1.192  0.00  0.00    +0.381 N 
ATOM     35  H   UNL     1       1.671  -0.182   1.159  0.00  0.00    -0.081 HD
ENDBRANCH  27  34
ENDBRANCH  26  27
ENDBRANCH  25  26
ENDBRANCH  21  25
ENDBRANCH  19  22
ENDBRANCH   1  19
TORSDOF 7
