REMARK  Name = ZINC09232786
REMARK  6 active torsions:
REMARK  status: ('A' for Active; 'I' for Inactive)
REMARK    1  A    between atoms: C_1  and  C_2
REMARK    2  A    between atoms: C_2  and  O_3
REMARK    3  A    between atoms: O_3  and  C_4
REMARK    4  A    between atoms: C_7  and  N_10
REMARK    5  A    between atoms: C_14  and  C_15
REMARK    6  A    between atoms: C_18  and  N_21
REMARK                            x       y       z     vdW  Elec       q    Type
REMARK                         _______ _______ _______ _____ _____    ______ ____
ROOT
ATOM      1  N   UNL     1       1.978   0.278   2.109  0.00  0.00    -0.217 N 
ATOM      2  C   UNL     1       1.116  -0.522   1.449  0.00  0.00    +0.262 C 
ATOM      3  O   UNL     1       1.221  -1.733   1.502  0.00  0.00    -0.269 OA
ATOM      4  C   UNL     1       0.042   0.112   0.660  0.00  0.00    +0.100 C 
ATOM      5  C   UNL     1      -0.879  -0.643  -0.043  0.00  0.00    +0.026 C 
ATOM      6  C   UNL     1      -0.006   1.587   0.654  0.00  0.00    +0.255 C 
ATOM      7  O   UNL     1      -0.859   2.183   0.024  0.00  0.00    -0.270 OA
ATOM      8  N   UNL     1       0.926   2.257   1.363  0.00  0.00    -0.263 N 
ATOM      9  C   UNL     1       1.875   1.614   2.058  0.00  0.00    +0.150 C 
ATOM     10  S   UNL     1       3.015   2.548   2.928  0.00  0.00    -0.018 S 
ATOM     11  H   UNL     1       0.909   3.227   1.371  0.00  0.00    +0.157 HD
ENDROOT
BRANCH   1  15
ATOM     12  C   UNL     1       5.040  -1.442   4.359  0.00  0.00    +0.121 A 
ATOM     13  C   UNL     1       3.727  -1.522   4.799  0.00  0.00    +0.047 A 
ATOM     14  C   UNL     1       2.713  -0.953   4.055  0.00  0.00    +0.027 A 
ATOM     15  C   UNL     1       3.008  -0.300   2.865  0.00  0.00    +0.043 A 
ATOM     16  C   UNL     1       4.321  -0.226   2.422  0.00  0.00    +0.027 A 
ATOM     17  C   UNL     1       5.335  -0.790   3.171  0.00  0.00    +0.047 A 
BRANCH  12  18
ATOM     18  O   UNL     1       6.038  -2.003   5.093  0.00  0.00    -0.492 OA
BRANCH  18  20
ATOM     19  C   UNL     1       8.345  -2.570   5.534  0.00  0.00    +0.048 C 
ATOM     20  C   UNL     1       7.366  -1.883   4.580  0.00  0.00    +0.225 C 
ENDBRANCH  18  20
ENDBRANCH  12  18
ENDBRANCH   1  15
BRANCH   5  21
ATOM     21  C   UNL     1      -0.671  -2.080  -0.210  0.00  0.00    -0.024 A 
ATOM     22  C   UNL     1       0.598  -2.573  -0.556  0.00  0.00    +0.010 A 
ATOM     23  C   UNL     1       0.788  -3.916  -0.704  0.00  0.00    +0.024 A 
ATOM     24  C   UNL     1      -0.278  -4.797  -0.526  0.00  0.00    +0.030 A 
ATOM     25  C   UNL     1      -1.540  -4.313  -0.189  0.00  0.00    +0.024 A 
ATOM     26  C   UNL     1      -1.740  -2.972  -0.032  0.00  0.00    +0.010 A 
BRANCH  24  27
ATOM     27  N   UNL     1      -0.080  -6.162  -0.685  0.00  0.00    -0.330 N 
ATOM     28  C   UNL     1       1.337  -6.460  -0.993  0.00  0.00    +0.105 C 
ATOM     29  C   UNL     1       1.550  -7.881  -1.439  0.00  0.00    +0.019 C 
ATOM     30  C   UNL     1       1.495  -7.924  -2.980  0.00  0.00    +0.002 C 
ATOM     31  C   UNL     1       0.127  -7.887  -3.484  0.00  0.00    +0.002 C 
ATOM     32  C   UNL     1      -0.610  -6.594  -3.075  0.00  0.00    +0.019 C 
ATOM     33  C   UNL     1      -1.053  -6.731  -1.644  0.00  0.00    +0.105 C 
ENDBRANCH  24  27
ENDBRANCH   5  21
TORSDOF 5
