REMARK  Name = ZINC09751369
REMARK  9 active torsions:
REMARK  status: ('A' for Active; 'I' for Inactive)
REMARK    1  A    between atoms: C_1  and  C_2
REMARK    2  A    between atoms: C_2  and  C_3
REMARK    3  A    between atoms: C_2  and  C_4
REMARK    4  A    between atoms: C_4  and  C_5
REMARK    5  A    between atoms: C_5  and  N_6
REMARK    6  A    between atoms: C_19  and  S_20
REMARK    7  A    between atoms: S_20  and  C_21
REMARK    8  A    between atoms: C_21  and  C_22
REMARK    9  A    between atoms: N_24  and  C_25
REMARK                            x       y       z     vdW  Elec       q    Type
REMARK                         _______ _______ _______ _____ _____    ______ ____
ROOT
ATOM      1  N   UNL     1      -0.761   3.485   1.289  0.00  0.00    -0.285 N 
ATOM      2  C   UNL     1       0.243   4.166   1.881  0.00  0.00    +0.298 A 
ATOM      3  O   UNL     1       1.173   3.574   2.403  0.00  0.00    -0.264 OA
ATOM      4  C   UNL     1       0.198   5.575   1.879  0.00  0.00    +0.219 A 
ATOM      5  C   UNL     1      -0.890   6.199   1.273  0.00  0.00    +0.125 A 
ATOM      6  C   UNL     1      -0.661   7.644   1.434  0.00  0.00    +0.046 A 
ATOM      7  C   UNL     1      -1.366   8.784   1.056  0.00  0.00    +0.014 A 
ATOM      8  C   UNL     1      -0.867  10.030   1.368  0.00  0.00    +0.001 A 
ATOM      9  C   UNL     1       0.333  10.149   2.054  0.00  0.00    +0.004 A 
ATOM     10  C   UNL     1       1.040   9.029   2.433  0.00  0.00    +0.047 A 
ATOM     11  C   UNL     1       0.554   7.762   2.128  0.00  0.00    +0.138 A 
ATOM     12  O   UNL     1       1.026   6.521   2.371  0.00  0.00    -0.448 OA
ATOM     13  N   UNL     1      -1.857   5.465   0.706  0.00  0.00    -0.219 NA
ATOM     14  C   UNL     1      -1.801   4.151   0.711  0.00  0.00    +0.173 A 
ENDROOT
BRANCH   1  15
ATOM     15  C   UNL     1      -0.736   2.020   1.272  0.00  0.00    +0.128 C 
BRANCH  15  16
ATOM     16  C   UNL     1      -0.014   1.536   0.013  0.00  0.00    +0.025 C 
BRANCH  16  18
ATOM     17  C   UNL     1      -1.417  -0.527  -0.127  0.00  0.00    +0.007 C 
ATOM     18  C   UNL     1       0.012   0.006  -0.004  0.00  0.00    -0.016 C 
ATOM     19  C   UNL     1       0.840  -0.476  -1.196  0.00  0.00    +0.007 C 
ENDBRANCH  16  18
ENDBRANCH  15  16
ENDBRANCH   1  15
BRANCH  14  20
ATOM     20  S   UNL     1      -3.098   3.231  -0.048  0.00  0.00    -0.078 S 
BRANCH  20  21
ATOM     21  C   UNL     1      -4.152   4.587  -0.619  0.00  0.00    +0.173 C 
BRANCH  21  22
ATOM     22  C   UNL     1      -5.361   4.022  -1.320  0.00  0.00    +0.227 C 
ATOM     23  O   UNL     1      -5.497   2.821  -1.423  0.00  0.00    -0.275 OA
ATOM     24  N   UNL     1      -6.292   4.852  -1.832  0.00  0.00    -0.285 N 
ATOM     25  H   UNL     1      -6.218   5.809  -1.692  0.00  0.00    +0.155 HD
BRANCH  24  26
ATOM     26  C   UNL     1      -7.364   4.332  -2.567  0.00  0.00    +0.036 A 
ATOM     27  C   UNL     1      -7.880   5.043  -3.643  0.00  0.00    +0.026 A 
ATOM     28  C   UNL     1      -8.934   4.527  -4.370  0.00  0.00    +0.043 A 
ATOM     29  C   UNL     1      -9.486   3.307  -4.021  0.00  0.00    +0.159 A 
ATOM     30  C   UNL     1      -8.978   2.597  -2.944  0.00  0.00    +0.160 A 
ATOM     31  C   UNL     1      -7.918   3.108  -2.217  0.00  0.00    +0.064 A 
ATOM     32  F   UNL     1      -9.517   1.406  -2.605  0.00  0.00    -0.202 F 
ATOM     33  F   UNL     1     -10.521   2.807  -4.731  0.00  0.00    -0.202 F 
ENDBRANCH  24  26
ENDBRANCH  21  22
ENDBRANCH  20  21
ENDBRANCH  14  20
TORSDOF 7
