REMARK  Name = ZINC41090574
REMARK  8 active torsions:
REMARK  status: ('A' for Active; 'I' for Inactive)
REMARK    1  A    between atoms: C_1  and  C_2
REMARK    2  A    between atoms: C_2  and  C_3
REMARK    3  A    between atoms: C_9  and  C_26
REMARK    4  A    between atoms: C_11  and  S_13
REMARK    5  A    between atoms: S_13  and  C_14
REMARK    6  A    between atoms: C_14  and  C_15
REMARK    7  A    between atoms: N_17  and  C_18
REMARK    8  A    between atoms: C_26  and  C_27
REMARK                            x       y       z     vdW  Elec       q    Type
REMARK                         _______ _______ _______ _____ _____    ______ ____
ROOT
ATOM      1  C   UNL     1       0.703  -0.459   1.203  0.00  0.00    -0.008 A 
ATOM      2  C   UNL     1       0.209  -0.769   2.427  0.00  0.00    +0.019 A 
ATOM      3  C   UNL     1       1.060  -1.225   3.418  0.00  0.00    +0.016 A 
ATOM      4  C   UNL     1       2.395  -1.345   3.083  0.00  0.00    +0.109 A 
ATOM      5  S   UNL     1       2.444  -0.815   1.397  0.00  0.00    -0.074 S 
ATOM      6  N   UNL     1       3.367  -1.788   3.908  0.00  0.00    -0.230 NA
ATOM      7  C   UNL     1       3.007  -2.334   5.045  0.00  0.00    +0.097 C 
ATOM      8  N   UNL     1       1.683  -2.519   5.347  0.00  0.00    -0.317 N 
ATOM      9  C   UNL     1       0.654  -1.596   4.844  0.00  0.00    +0.163 C 
ATOM     10  H   UNL     1       1.420  -3.271   5.901  0.00  0.00    +0.149 HD
ENDROOT
BRANCH   1  12
ATOM     11  C   UNL     1      -0.047   1.580   0.007  0.00  0.00    +0.009 C 
ATOM     12  C   UNL     1      -0.029   0.050  -0.012  0.00  0.00    +0.039 C 
ENDBRANCH   1  12
BRANCH   7  13
ATOM     13  C   UNL     1       4.062  -2.764   6.031  0.00  0.00    +0.068 C 
ATOM     14  C   UNL     1       5.448  -2.452   5.463  0.00  0.00    +0.011 C 
ENDBRANCH   7  13
BRANCH   9  15
ATOM     15  S   UNL     1       0.594  -0.108   5.880  0.00  0.00    -0.124 S 
BRANCH  15  16
ATOM     16  C   UNL     1      -0.955  -0.281   6.808  0.00  0.00    +0.167 C 
BRANCH  16  17
ATOM     17  C   UNL     1      -1.129   0.905   7.720  0.00  0.00    +0.227 C 
ATOM     18  O   UNL     1      -0.291   1.782   7.742  0.00  0.00    -0.275 OA
ATOM     19  N   UNL     1      -2.217   0.993   8.511  0.00  0.00    -0.284 N 
ATOM     20  H   UNL     1      -2.918   0.326   8.447  0.00  0.00    +0.155 HD
BRANCH  19  21
ATOM     21  C   UNL     1      -2.334   2.046   9.426  0.00  0.00    +0.053 A 
ATOM     22  C   UNL     1      -1.835   3.302   9.108  0.00  0.00    +0.044 A 
ATOM     23  C   UNL     1      -1.952   4.340  10.013  0.00  0.00    +0.043 A 
ATOM     24  C   UNL     1      -2.567   4.129  11.235  0.00  0.00    +0.021 A 
ATOM     25  C   UNL     1      -3.064   2.879  11.554  0.00  0.00    +0.023 A 
ATOM     26  C   UNL     1      -2.955   1.838  10.651  0.00  0.00    +0.062 A 
ATOM     27 CL   UNL     1      -3.586   0.271  11.051  0.00  0.00    -0.082 Cl
ATOM     28 CL   UNL     1      -1.328   5.911   9.617  0.00  0.00    -0.083 Cl
ENDBRANCH  19  21
ENDBRANCH  16  17
ENDBRANCH  15  16
ENDBRANCH   9  15
TORSDOF 6
