REMARK  Name = ZINC57789470
REMARK  11 active torsions:
REMARK  status: ('A' for Active; 'I' for Inactive)
REMARK    1  A    between atoms: C_1  and  C_2
REMARK    2  A    between atoms: C_2  and  C_4
REMARK    3  A    between atoms: C_2  and  N_6
REMARK    4  A    between atoms: C_4  and  N_5
REMARK    5  A    between atoms: C_9  and  C_21
REMARK    6  A    between atoms: C_14  and  C_18
REMARK    7  A    between atoms: C_18  and  C_19
REMARK    8  A    between atoms: C_18  and  C_20
REMARK    9  A    between atoms: C_21  and  C_22
REMARK   10  A    between atoms: C_21  and  C_23
REMARK   11  A    between atoms: C_21  and  C_24
REMARK                            x       y       z     vdW  Elec       q    Type
REMARK                         _______ _______ _______ _____ _____    ______ ____
ROOT
ATOM      1  N   UNL     1       0.711  -0.489   1.189  0.00  0.00    -0.264 N 
ATOM      2  C   UNL     1       0.061  -1.315   2.118  0.00  0.00    +0.079 A 
ATOM      3  C   UNL     1      -1.319  -1.431   2.118  0.00  0.00    +0.031 A 
ATOM      4  C   UNL     1      -1.940  -2.251   3.042  0.00  0.00    -0.040 A 
ATOM      5  C   UNL     1      -1.187  -2.955   3.964  0.00  0.00    +0.008 A 
ATOM      6  C   UNL     1       0.192  -2.842   3.969  0.00  0.00    +0.048 A 
ATOM      7  C   UNL     1       0.820  -2.023   3.048  0.00  0.00    +0.143 A 
ATOM      8  O   UNL     1       2.174  -1.898   3.041  0.00  0.00    -0.477 OA
ATOM      9  C   UNL     1       2.701  -0.627   2.651  0.00  0.00    +0.262 C 
ATOM     10  C   UNL     1       2.001  -0.153   1.402  0.00  0.00    +0.261 C 
ATOM     11  O   UNL     1       2.594   0.531   0.595  0.00  0.00    -0.271 OA
ENDROOT
BRANCH   4  12
ATOM     12  C   UNL     1      -3.442  -2.379   3.044  0.00  0.00    -0.013 C 
ATOM     13  C   UNL     1      -3.909  -2.922   1.692  0.00  0.00    +0.015 C 
ATOM     14  C   UNL     1      -3.870  -3.339   4.155  0.00  0.00    +0.015 C 
ATOM     15  C   UNL     1      -4.069  -1.005   3.287  0.00  0.00    +0.015 C 
ENDBRANCH   4  12
BRANCH   9  16
ATOM     16  C   UNL     1       2.479   0.383   3.779  0.00  0.00    +0.033 C 
ATOM     17  C   UNL     1       3.193  -0.099   5.043  0.00  0.00    +0.011 C 
ATOM     18  C   UNL     1       3.042   1.744   3.362  0.00  0.00    +0.011 C 
ENDBRANCH   9  16
BRANCH   1  20
ATOM     19  C   UNL     1      -0.019   1.526   0.010  0.00  0.00    +0.026 C 
ATOM     20  C   UNL     1       0.002  -0.004   0.002  0.00  0.00    +0.061 C 
BRANCH  20  21
ATOM     21  C   UNL     1       0.718  -0.497  -1.257  0.00  0.00    -0.064 C 
BRANCH  21  22
ATOM     22  N   UNL     1       0.844  -1.960  -1.207  0.00  0.00    +0.379 N 
ATOM     23  H   UNL     1       1.377  -2.224  -0.392  0.00  0.00    -0.090 HD
ATOM     24  H   UNL     1      -0.074  -2.375  -1.158  0.00  0.00    -0.090 HD
ATOM     25  H   UNL     1       1.316  -2.286  -2.037  0.00  0.00    -0.090 HD
ENDBRANCH  21  22
ENDBRANCH  20  21
ENDBRANCH   1  20
TORSDOF 5
