REMARK  Name = ZINC59250045
REMARK  10 active torsions:
REMARK  status: ('A' for Active; 'I' for Inactive)
REMARK    1  A    between atoms: C_1  and  C_2
REMARK    2  A    between atoms: C_2  and  N_3
REMARK    3  A    between atoms: N_3  and  C_4
REMARK    4  A    between atoms: N_3  and  C_6
REMARK    5  A    between atoms: C_4  and  C_5
REMARK    6  A    between atoms: C_6  and  C_7
REMARK    7  A    between atoms: C_7  and  N_8
REMARK    8  A    between atoms: N_17  and  C_18
REMARK    9  A    between atoms: C_18  and  C_20
REMARK   10  A    between atoms: C_23  and  C_28
REMARK                            x       y       z     vdW  Elec       q    Type
REMARK                         _______ _______ _______ _____ _____    ______ ____
ROOT
ATOM      1  N   UNL     1      -1.456  -3.769  -1.651  0.00  0.00    -0.314 N 
ATOM      2  C   UNL     1      -1.586  -4.454  -2.855  0.00  0.00    +0.068 A 
ATOM      3  C   UNL     1      -1.516  -4.056  -4.183  0.00  0.00    +0.028 A 
ATOM      4  C   UNL     1      -1.691  -4.984  -5.189  0.00  0.00    +0.002 A 
ATOM      5  C   UNL     1      -1.937  -6.311  -4.881  0.00  0.00    +0.002 A 
ATOM      6  C   UNL     1      -2.008  -6.718  -3.563  0.00  0.00    +0.028 A 
ATOM      7  C   UNL     1      -1.833  -5.793  -2.544  0.00  0.00    +0.066 A 
ATOM      8  N   UNL     1      -1.848  -5.895  -1.156  0.00  0.00    -0.326 N 
ATOM      9  C   UNL     1      -1.612  -4.661  -0.634  0.00  0.00    +0.201 A 
ATOM     10  N   UNL     1      -1.547  -4.372   0.659  0.00  0.00    -0.142 NA
ATOM     11  H   UNL     1      -1.997  -6.708  -0.648  0.00  0.00    +0.169 HD
ENDROOT
BRANCH  10  12
ATOM     12  C   UNL     1      -1.598  -5.355   1.568  0.00  0.00    +0.275 C 
ATOM     13  O   UNL     1      -1.609  -6.519   1.207  0.00  0.00    -0.268 OA
BRANCH  12  14
ATOM     14  C   UNL     1      -1.640  -5.028   3.005  0.00  0.00    +0.103 A 
ATOM     15  C   UNL     1      -1.688  -6.044   3.958  0.00  0.00    +0.020 A 
ATOM     16  C   UNL     1      -1.727  -5.707   5.306  0.00  0.00    +0.027 A 
ATOM     17  C   UNL     1      -1.719  -4.378   5.683  0.00  0.00    +0.049 A 
ATOM     18  N   UNL     1      -1.673  -3.386   4.746  0.00  0.00    -0.321 N 
ATOM     19  H   UNL     1      -1.668  -2.458   5.031  0.00  0.00    +0.169 HD
ATOM     20  C   UNL     1      -1.628  -3.677   3.433  0.00  0.00    +0.261 A 
ATOM     21  O   UNL     1      -1.581  -2.778   2.611  0.00  0.00    -0.267 OA
BRANCH  17  22
ATOM     22  C   UNL     1      -1.760  -4.026   7.116  0.00  0.00    -0.002 A 
ATOM     23  C   UNL     1      -1.802  -5.032   8.085  0.00  0.00    +0.010 A 
ATOM     24  C   UNL     1      -1.841  -4.696   9.422  0.00  0.00    +0.001 A 
ATOM     25  C   UNL     1      -1.839  -3.366   9.805  0.00  0.00    +0.000 A 
ATOM     26  C   UNL     1      -1.798  -2.364   8.851  0.00  0.00    +0.001 A 
ATOM     27  C   UNL     1      -1.753  -2.686   7.511  0.00  0.00    +0.010 A 
ENDBRANCH  17  22
ENDBRANCH  12  14
ENDBRANCH  10  12
BRANCH   1  28
ATOM     28  C   UNL     1      -1.190  -2.336  -1.503  0.00  0.00    +0.106 C 
BRANCH  28  29
ATOM     29  C   UNL     1       0.321  -2.099  -1.462  0.00  0.00    -0.057 C 
BRANCH  29  30
ATOM     30  N   UNL     1       0.587  -0.662  -1.313  0.00  0.00    +0.380 N 
ATOM     31  H   UNL     1       0.120  -0.155  -2.050  0.00  0.00    -0.082 HD
BRANCH  30  33
ATOM     32  C   UNL     1       0.236   1.316   0.087  0.00  0.00    -0.017 C 
ATOM     33  C   UNL     1       0.087  -0.204  -0.011  0.00  0.00    -0.082 C 
ENDBRANCH  30  33
BRANCH  30  34
ATOM     34  C   UNL     1       2.034  -0.422  -1.394  0.00  0.00    -0.082 C 
ATOM     35  C   UNL     1       2.530  -0.765  -2.800  0.00  0.00    -0.017 C 
ENDBRANCH  30  34
ENDBRANCH  29  30
ENDBRANCH  28  29
ENDBRANCH   1  28
TORSDOF 8
