REMARK  Name = ZINC66794407
REMARK  3 active torsions:
REMARK  status: ('A' for Active; 'I' for Inactive)
REMARK    1  A    between atoms: C_3  and  C_8
REMARK    2  A    between atoms: N_11  and  C_15
REMARK    3  A    between atoms: C_15  and  N_16
REMARK                            x       y       z     vdW  Elec       q    Type
REMARK                         _______ _______ _______ _____ _____    ______ ____
ROOT
ATOM      1  C   UNL     1       3.672   2.186  -0.021  0.00  0.00    +0.162 C 
ATOM      2  C   UNL     1       4.162   2.346  -1.462  0.00  0.00    +0.122 C 
ATOM      3  N   UNL     1       5.462   3.033  -1.459  0.00  0.00    -0.282 NA
ATOM      4  C   UNL     1       6.448   2.278  -0.671  0.00  0.00    +0.114 C 
ATOM      5  C   UNL     1       5.934   2.119   0.762  0.00  0.00    +0.176 C 
ATOM      6  O   UNL     1       4.656   1.478   0.737  0.00  0.00    -0.369 OA
ENDROOT
BRANCH   1   9
ATOM      7  C   UNL     1      -0.017   1.377   0.010  0.00  0.00    +0.003 A 
ATOM      8  C   UNL     1       1.171   2.086   0.002  0.00  0.00    +0.006 A 
ATOM      9  C   UNL     1       2.378   1.413  -0.013  0.00  0.00    -0.015 A 
ATOM     10  C   UNL     1       2.399   0.030  -0.021  0.00  0.00    +0.044 A 
ATOM     11  C   UNL     1       1.211  -0.679  -0.013  0.00  0.00    +0.124 A 
ATOM     12  C   UNL     1       0.002  -0.004   0.002  0.00  0.00    +0.038 A 
ATOM     13  F   UNL     1       1.230  -2.030  -0.022  0.00  0.00    -0.205 F 
ENDBRANCH   1   9
BRANCH   3  14
ATOM     14  C   UNL     1       5.943   3.257  -2.829  0.00  0.00    +0.193 C 
BRANCH  14  15
ATOM     15  N   UNL     1       6.858   4.401  -2.843  0.00  0.00    -0.305 N 
ATOM     16  C   UNL     1       6.342   5.741  -3.059  0.00  0.00    +0.118 C 
ATOM     17  C   UNL     1       7.336   6.817  -2.549  0.00  0.00    +0.095 C 
ATOM     18  S   UNL     1       8.897   5.844  -2.672  0.00  0.00    -0.101 S 
ATOM     19  C   UNL     1       8.178   4.211  -2.652  0.00  0.00    +0.110 C 
ATOM     20  S   UNL     1       8.992   2.720  -2.438  0.00  0.00    -0.028 S 
ENDBRANCH  14  15
ENDBRANCH   3  14
TORSDOF 3
