REMARK  Name = ZINC20323933
REMARK  6 active torsions:
REMARK  status: ('A' for Active; 'I' for Inactive)
REMARK    1  A    between atoms: C_1  and  C_2
REMARK    2  A    between atoms: C_2  and  C_3
REMARK    3  A    between atoms: C_13  and  C_14
REMARK    4  A    between atoms: C_14  and  N_15
REMARK    5  A    between atoms: C_20  and  C_22
REMARK    6  A    between atoms: C_22  and  C_23
REMARK                            x       y       z     vdW  Elec       q    Type
REMARK                         _______ _______ _______ _____ _____    ______ ____
ROOT
ATOM      1  C   UNL     1      -7.687   0.705   1.037  0.00  0.00    -0.030 A 
ATOM      2  C   UNL     1      -7.669   2.053   1.203  0.00  0.00    +0.096 A 
ATOM      3  C   UNL     1      -6.466   2.766   1.021  0.00  0.00    +0.337 A 
ATOM      4  O   UNL     1      -6.464   3.975   1.173  0.00  0.00    -0.245 OA
ATOM      5  O   UNL     1      -5.324   2.148   0.684  0.00  0.00    -0.422 OA
ATOM      6  C   UNL     1      -5.273   0.810   0.504  0.00  0.00    +0.144 A 
ATOM      7  C   UNL     1      -6.437   0.036   0.670  0.00  0.00    +0.023 A 
ATOM      8  C   UNL     1      -6.388  -1.350   0.485  0.00  0.00    +0.035 A 
ATOM      9  C   UNL     1      -5.209  -1.948   0.144  0.00  0.00    +0.089 A 
ATOM     10  C   UNL     1      -4.055  -1.185  -0.029  0.00  0.00    +0.202 A 
ATOM     11  C   UNL     1      -4.084   0.187   0.157  0.00  0.00    +0.027 A 
ATOM     12  O   UNL     1      -2.891  -1.794  -0.374  0.00  0.00    -0.286 OA
ATOM     13 CL   UNL     1      -5.149  -3.668  -0.086  0.00  0.00    -0.080 Cl
ENDROOT
BRANCH   1  15
ATOM     14  C   UNL     1      -9.013  -0.629   2.653  0.00  0.00    +0.009 C 
ATOM     15  C   UNL     1      -8.958  -0.082   1.225  0.00  0.00    +0.033 C 
ENDBRANCH   1  15
BRANCH  11  16
ATOM     16  C   UNL     1      -2.829   1.001  -0.025  0.00  0.00    -0.035 C 
BRANCH  16  17
ATOM     17  N   UNL     1      -2.118   1.097   1.257  0.00  0.00    +0.384 N 
ATOM     18  C   UNL     1      -2.930   1.800   2.258  0.00  0.00    -0.078 C 
ATOM     19  C   UNL     1      -2.223   1.753   3.615  0.00  0.00    -0.019 C 
ATOM     20  C   UNL     1      -0.847   2.414   3.490  0.00  0.00    -0.003 C 
ATOM     21  C   UNL     1      -0.039   1.693   2.408  0.00  0.00    -0.015 C 
ATOM     22  C   UNL     1      -0.809   1.742   1.086  0.00  0.00    -0.068 C 
ATOM     23  H   UNL     1      -1.942   0.075   1.625  0.00  0.00    -0.081 HD
BRANCH  22  24
ATOM     24  C   UNL     1      -0.015   1.005   0.006  0.00  0.00    -0.019 C 
ATOM     25  C   UNL     1       1.322   1.715  -0.217  0.00  0.00    +0.002 C 
ENDBRANCH  22  24
ENDBRANCH  16  17
ENDBRANCH  11  16
TORSDOF 4
