REMARK  Name = ZINC39696209
REMARK  10 active torsions:
REMARK  status: ('A' for Active; 'I' for Inactive)
REMARK    1  A    between atoms: C_1  and  C_2
REMARK    2  A    between atoms: C_2  and  C_3
REMARK    3  A    between atoms: C_6  and  C_9
REMARK    4  A    between atoms: C_9  and  C_11
REMARK    5  A    between atoms: C_9  and  N_12
REMARK    6  A    between atoms: C_13  and  C_15
REMARK    7  A    between atoms: C_26  and  C_28
REMARK    8  A    between atoms: C_30  and  C_35
REMARK    9  A    between atoms: N_32  and  C_33
REMARK   10  A    between atoms: C_33  and  C_34
REMARK                            x       y       z     vdW  Elec       q    Type
REMARK                         _______ _______ _______ _____ _____    ______ ____
ROOT
ATOM      1  C   UNL     1      -8.509  -0.721  -1.768  0.00  0.00    +0.100 C 
ATOM      2  C   UNL     1      -8.283  -1.455  -3.109  0.00  0.00    +0.121 C 
ATOM      3  N   UNL     1      -9.503  -2.276  -3.296  0.00  0.00    -0.295 N 
ATOM      4  C   UNL     1     -10.608  -1.406  -2.827  0.00  0.00    +0.115 C 
ATOM      5  C   UNL     1     -10.036  -0.687  -1.589  0.00  0.00    -0.004 C 
ATOM      6  C   UNL     1     -10.530   0.755  -1.540  0.00  0.00    -0.010 C 
ATOM      7  C   UNL     1     -12.043   0.764  -1.302  0.00  0.00    -0.082 C 
ATOM      8  N   UNL     1     -12.346   0.078  -0.040  0.00  0.00    +0.379 N 
ATOM      9  C   UNL     1     -11.951  -1.333  -0.129  0.00  0.00    -0.082 C 
ATOM     10  C   UNL     1     -10.435  -1.430  -0.317  0.00  0.00    -0.010 C 
ATOM     11  C   UNL     1      -9.589  -3.529  -3.784  0.00  0.00    +0.266 C 
ATOM     12  O   UNL     1     -10.679  -4.037  -3.969  0.00  0.00    -0.268 OA
ATOM     13  H   UNL     1     -11.839   0.521   0.712  0.00  0.00    -0.086 HD
ATOM     14  H   UNL     1     -13.336   0.138   0.145  0.00  0.00    -0.086 HD
ENDROOT
BRANCH  11  15
ATOM     15  C   UNL     1      -8.364  -4.283  -4.093  0.00  0.00    +0.138 A 
ATOM     16  C   UNL     1      -7.725  -5.201  -3.276  0.00  0.00    +0.071 A 
ATOM     17  C   UNL     1      -6.619  -5.640  -4.009  0.00  0.00    +0.075 A 
ATOM     18  N   UNL     1      -6.626  -5.017  -5.160  0.00  0.00    -0.175 NA
ATOM     19  N   UNL     1      -7.632  -4.223  -5.246  0.00  0.00    -0.258 N 
ATOM     20  C   UNL     1      -5.597  -6.651  -3.554  0.00  0.00    +0.069 C 
ATOM     21 BR   UNL     1      -8.240  -5.746  -1.540  0.00  0.00    -0.046 Br
BRANCH  19  22
ATOM     22  C   UNL     1      -7.945  -3.379  -6.402  0.00  0.00    +0.141 C 
ATOM     23  C   UNL     1      -7.125  -2.090  -6.328  0.00  0.00    +0.029 C 
ENDBRANCH  19  22
ENDBRANCH  11  15
BRANCH   1  25
ATOM     24  N   UNL     1      -7.399  -0.820   0.440  0.00  0.00    -0.308 N 
ATOM     25  C   UNL     1      -7.864  -1.482  -0.638  0.00  0.00    +0.219 C 
ATOM     26  O   UNL     1      -7.764  -2.689  -0.699  0.00  0.00    -0.275 OA
ATOM     27  H   UNL     1      -7.543   0.135   0.522  0.00  0.00    +0.149 HD
BRANCH  24  28
ATOM     28  C   UNL     1      -6.675  -1.545   1.488  0.00  0.00    +0.100 C 
ATOM     29  C   UNL     1      -5.183  -1.570   1.153  0.00  0.00    +0.033 C 
BRANCH  28  33
ATOM     30  C   UNL     1      -7.258   0.414   5.239  0.00  0.00    -0.048 A 
ATOM     31  C   UNL     1      -7.262  -0.967   5.172  0.00  0.00    +0.004 A 
ATOM     32  C   UNL     1      -7.074  -1.601   3.958  0.00  0.00    +0.006 A 
ATOM     33  C   UNL     1      -6.882  -0.854   2.811  0.00  0.00    -0.027 A 
ATOM     34  C   UNL     1      -6.879   0.527   2.877  0.00  0.00    +0.006 A 
ATOM     35  C   UNL     1      -7.071   1.161   4.090  0.00  0.00    +0.004 A 
BRANCH  30  37
ATOM     36  C   UNL     1      -8.958   1.348   6.784  0.00  0.00    +0.009 C 
ATOM     37  C   UNL     1      -7.463   1.105   6.562  0.00  0.00    +0.032 C 
ENDBRANCH  30  37
ENDBRANCH  28  33
ENDBRANCH  24  28
ENDBRANCH   1  25
TORSDOF 6
