REMARK  Name = ZINC38660183
REMARK  13 active torsions:
REMARK  status: ('A' for Active; 'I' for Inactive)
REMARK    1  A    between atoms: C_1  and  C_2
REMARK    2  A    between atoms: C_2  and  C_3
REMARK    3  A    between atoms: C_3  and  C_4
REMARK    4  A    between atoms: C_4  and  O_5
REMARK    5  A    between atoms: O_5  and  C_6
REMARK    6  A    between atoms: C_9  and  C_14
REMARK    7  A    between atoms: C_11  and  O_12
REMARK    8  A    between atoms: O_12  and  C_13
REMARK    9  A    between atoms: C_19  and  O_28
REMARK   10  A    between atoms: C_23  and  N_27
REMARK   11  A    between atoms: C_24  and  C_25
REMARK   12  A    between atoms: O_28  and  C_29
REMARK   13  A    between atoms: C_29  and  C_31
REMARK                            x       y       z     vdW  Elec       q    Type
REMARK                         _______ _______ _______ _____ _____    ______ ____
ROOT
ATOM      1  C   UNL     1       1.897  -8.073  -3.149  0.00  0.00    +0.098 C 
ATOM      2  C   UNL     1       2.648  -8.653  -1.979  0.00  0.00    +0.008 A 
ATOM      3  C   UNL     1       4.030  -8.601  -1.965  0.00  0.00    +0.012 A 
ATOM      4  C   UNL     1       4.736  -9.127  -0.901  0.00  0.00    +0.047 A 
ATOM      5  C   UNL     1       4.057  -9.712   0.160  0.00  0.00    +0.135 A 
ATOM      6  C   UNL     1       2.673  -9.765   0.148  0.00  0.00    +0.093 A 
ATOM      7  C   UNL     1       1.965  -9.235  -0.922  0.00  0.00    +0.138 A 
ATOM      8  O   UNL     1       0.611  -9.296  -0.919  0.00  0.00    -0.441 OA
ATOM      9  C   UNL     1      -0.070  -9.157  -2.069  0.00  0.00    +0.199 C 
ATOM     10  C   UNL     1       0.484  -8.585  -3.160  0.00  0.00    +0.098 C 
ENDROOT
BRANCH   1  14
ATOM     11  C   UNL     1       1.853  -3.809  -2.828  0.00  0.00    +0.162 A 
ATOM     12  C   UNL     1       1.286  -4.588  -1.832  0.00  0.00    +0.050 A 
ATOM     13  C   UNL     1       1.302  -5.966  -1.938  0.00  0.00    +0.008 A 
ATOM     14  C   UNL     1       1.882  -6.571  -3.038  0.00  0.00    -0.031 A 
ATOM     15  C   UNL     1       2.450  -5.800  -4.035  0.00  0.00    +0.054 A 
ATOM     16  C   UNL     1       2.433  -4.418  -3.937  0.00  0.00    +0.162 A 
BRANCH  16  17
ATOM     17  O   UNL     1       2.986  -3.658  -4.920  0.00  0.00    -0.491 OA
ATOM     18  C   UNL     1       3.562  -4.351  -6.029  0.00  0.00    +0.277 C 
ENDBRANCH  16  17
BRANCH  11  19
ATOM     19  O   UNL     1       1.838  -2.453  -2.724  0.00  0.00    -0.488 OA
BRANCH  19  20
ATOM     20  C   UNL     1       1.226  -1.898  -1.558  0.00  0.00    +0.229 C 
BRANCH  20  21
ATOM     21  C   UNL     1       1.305  -0.371  -1.619  0.00  0.00    +0.041 C 
BRANCH  21  23
ATOM     22  C   UNL     1       0.729   1.750  -0.431  0.00  0.00    +0.004 C 
ATOM     23  C   UNL     1       0.650   0.223  -0.371  0.00  0.00    -0.000 C 
ENDBRANCH  21  23
ENDBRANCH  20  21
ENDBRANCH  19  20
ENDBRANCH  11  19
ENDBRANCH   1  14
BRANCH   9  24
ATOM     24  N   UNL     1      -1.364  -9.609  -2.136  0.00  0.00    -0.328 N 
ATOM     25  H   UNL     1      -1.775 -10.021  -1.359  0.00  0.00    +0.145 HD
ATOM     26  H   UNL     1      -1.868  -9.516  -2.959  0.00  0.00    +0.145 HD
ENDBRANCH   9  24
BRANCH  10  27
ATOM     27  C   UNL     1      -0.295  -8.467  -4.356  0.00  0.00    +0.101 C 
ATOM     28  N   UNL     1      -0.914  -8.372  -5.304  0.00  0.00    -0.191 NA
ENDBRANCH  10  27
BRANCH   5  29
ATOM     29  O   UNL     1       4.750 -10.232   1.207  0.00  0.00    -0.422 OA
BRANCH  29  30
ATOM     30  C   UNL     1       5.392  -9.377   2.027  0.00  0.00    +0.344 C 
ATOM     31  O   UNL     1       5.257  -8.178   1.882  0.00  0.00    -0.245 OA
BRANCH  30  32
ATOM     32  C   UNL     1       6.261  -9.897   3.102  0.00  0.00    +0.061 A 
ATOM     33  C   UNL     1       6.423 -11.274   3.268  0.00  0.00    +0.015 A 
ATOM     34  C   UNL     1       7.236 -11.754   4.274  0.00  0.00    +0.002 A 
ATOM     35  C   UNL     1       7.890 -10.874   5.119  0.00  0.00    +0.020 A 
ATOM     36  C   UNL     1       7.734  -9.508   4.960  0.00  0.00    +0.042 A 
ATOM     37  C   UNL     1       6.928  -9.014   3.953  0.00  0.00    +0.035 A 
ATOM     38 CL   UNL     1       8.559  -8.413   6.025  0.00  0.00    -0.084 Cl
ENDBRANCH  30  32
ENDBRANCH  29  30
ENDBRANCH   5  29
TORSDOF 11
