REMARK  Name = ZINC13495871
REMARK  16 active torsions:
REMARK  status: ('A' for Active; 'I' for Inactive)
REMARK    1  A    between atoms: C_1  and  C_2
REMARK    2  A    between atoms: C_2  and  C_3
REMARK    3  A    between atoms: C_3  and  C_5
REMARK    4  A    between atoms: C_3  and  N_74
REMARK    5  A    between atoms: N_9  and  C_10
REMARK    6  A    between atoms: C_10  and  C_11
REMARK    7  A    between atoms: C_10  and  C_12
REMARK    8  A    between atoms: C_10  and  C_13
REMARK    9  A    between atoms: C_13  and  C_14
REMARK   10  A    between atoms: C_15  and  C_16
REMARK   11  A    between atoms: C_15  and  N_74
REMARK   12  A    between atoms: C_16  and  C_17
REMARK   13  A    between atoms: C_22  and  C_23
REMARK   14  A    between atoms: C_24  and  C_25
REMARK   15  A    between atoms: C_24  and  N_74
REMARK   16  A    between atoms: C_31  and  C_37
REMARK                            x       y       z     vdW  Elec       q    Type
REMARK                         _______ _______ _______ _____ _____    ______ ____
ROOT
ATOM      1  N   UNL     1       0.437  -0.079  -1.706  0.00  0.00    +0.389 N 
ATOM      2  H   UNL     1      -0.301  -0.098  -2.420  0.00  0.00    -0.080 HD
ENDROOT
BRANCH   1   3
ATOM      3  C   UNL     1      -0.185   0.094  -0.377  0.00  0.00    +0.003 C 
BRANCH   3   4
ATOM      4  C   UNL     1      -0.566  -1.255   0.177  0.00  0.00    +0.139 A 
ATOM      5  N   UNL     1      -1.160  -2.227  -0.471  0.00  0.00    -0.115 NA
ATOM      6  N   UNL     1      -1.312  -3.214   0.343  0.00  0.00    -0.023 NA
ATOM      7  N   UNL     1      -0.838  -2.893   1.496  0.00  0.00    -0.043 NA
ATOM      8  N   UNL     1      -0.369  -1.692   1.434  0.00  0.00    -0.225 N 
BRANCH   8   9
ATOM      9  C   UNL     1       0.260  -0.946   2.527  0.00  0.00    +0.061 C 
ATOM     10  C   UNL     1       1.738  -0.718   2.205  0.00  0.00    +0.036 C 
ATOM     11  C   UNL     1      -0.441   0.404   2.691  0.00  0.00    +0.036 C 
BRANCH   9  12
ATOM     12  C   UNL     1       0.138  -1.745   3.826  0.00  0.00    +0.026 C 
ATOM     13  C   UNL     1       0.795  -0.965   4.967  0.00  0.00    +0.006 C 
ENDBRANCH   9  12
ENDBRANCH   8   9
ENDBRANCH   3   4
BRANCH   3  15
ATOM     14  C   UNL     1      -1.049   2.334  -1.069  0.00  0.00    +0.002 C 
ATOM     15  C   UNL     1      -1.440   0.955  -0.534  0.00  0.00    -0.011 C 
ENDBRANCH   3  15
ENDBRANCH   1   3
BRANCH   1  16
ATOM     16  C   UNL     1       1.184  -1.354  -1.753  0.00  0.00    -0.073 C 
BRANCH  16  17
ATOM     17  C   UNL     1       1.704  -1.571  -3.175  0.00  0.00    +0.017 C 
BRANCH  17  18
ATOM     18  C   UNL     1       2.338  -2.934  -3.276  0.00  0.00    -0.046 A 
ATOM     19  C   UNL     1       3.699  -3.079  -3.079  0.00  0.00    +0.004 A 
ATOM     20  C   UNL     1       4.281  -4.330  -3.167  0.00  0.00    +0.000 A 
ATOM     21  C   UNL     1       3.503  -5.434  -3.460  0.00  0.00    +0.000 A 
ATOM     22  C   UNL     1       2.144  -5.289  -3.662  0.00  0.00    +0.003 A 
ATOM     23  C   UNL     1       1.561  -4.038  -3.569  0.00  0.00    -0.047 A 
ATOM     24  C   UNL     1       0.079  -3.880  -3.789  0.00  0.00    +0.044 C 
ENDBRANCH  17  18
ENDBRANCH  16  17
ENDBRANCH   1  16
BRANCH   1  25
ATOM     25  C   UNL     1       1.348   1.051  -1.988  0.00  0.00    -0.037 C 
BRANCH  25  26
ATOM     26  C   UNL     1       2.514   1.040  -1.033  0.00  0.00    +0.001 A 
ATOM     27  C   UNL     1       3.664   0.410  -1.377  0.00  0.00    +0.017 A 
ATOM     28  C   UNL     1       4.779   0.422  -0.429  0.00  0.00    -0.001 A 
ATOM     29  C   UNL     1       5.992  -0.207  -0.730  0.00  0.00    +0.010 A 
ATOM     30  C   UNL     1       7.012  -0.181   0.178  0.00  0.00    +0.001 A 
ATOM     31  C   UNL     1       6.855   0.463   1.398  0.00  0.00    +0.005 A 
ATOM     32  C   UNL     1       5.669   1.089   1.716  0.00  0.00    -0.026 A 
ATOM     33  C   UNL     1       4.617   1.076   0.807  0.00  0.00    +0.052 A 
ATOM     34  N   UNL     1       3.420   1.695   1.098  0.00  0.00    -0.322 N 
ATOM     35  H   UNL     1       3.309   2.145   1.950  0.00  0.00    +0.169 HD
ATOM     36  C   UNL     1       2.403   1.683   0.219  0.00  0.00    +0.251 A 
ATOM     37  O   UNL     1       1.358   2.240   0.510  0.00  0.00    -0.268 OA
ATOM     38  C   UNL     1       5.513   1.784   3.044  0.00  0.00    +0.046 C 
ENDBRANCH  25  26
ENDBRANCH   1  25
TORSDOF 10
