REMARK  Name = ZINC39652644
REMARK  8 active torsions:
REMARK  status: ('A' for Active; 'I' for Inactive)
REMARK    1  A    between atoms: C_1  and  C_2
REMARK    2  A    between atoms: C_2  and  O_3
REMARK    3  A    between atoms: O_3  and  C_4
REMARK    4  A    between atoms: C_9  and  C_10
REMARK    5  A    between atoms: C_10  and  C_11
REMARK    6  A    between atoms: C_11  and  N_12
REMARK    7  A    between atoms: C_13  and  C_15
REMARK    8  A    between atoms: C_26  and  C_28
REMARK                            x       y       z     vdW  Elec       q    Type
REMARK                         _______ _______ _______ _____ _____    ______ ____
ROOT
ATOM      1  C   UNL     1       1.270   0.568   7.659  0.00  0.00    +0.100 C 
ATOM      2  C   UNL     1       2.475   0.119   8.515  0.00  0.00    +0.121 C 
ATOM      3  N   UNL     1       2.250   0.751   9.837  0.00  0.00    -0.296 N 
ATOM      4  C   UNL     1       0.789   0.633  10.059  0.00  0.00    +0.115 C 
ATOM      5  C   UNL     1       0.165   0.903   8.675  0.00  0.00    -0.004 C 
ATOM      6  C   UNL     1      -0.236   2.370   8.554  0.00  0.00    -0.010 C 
ATOM      7  C   UNL     1      -1.374   2.666   9.535  0.00  0.00    -0.082 C 
ATOM      8  N   UNL     1      -2.519   1.798   9.234  0.00  0.00    +0.379 N 
ATOM      9  C   UNL     1      -2.151   0.393   9.442  0.00  0.00    -0.082 C 
ATOM     10  C   UNL     1      -1.046   0.001   8.457  0.00  0.00    -0.010 C 
ATOM     11  C   UNL     1       3.167   1.307  10.653  0.00  0.00    +0.247 C 
ATOM     12  O   UNL     1       4.314   1.444  10.275  0.00  0.00    -0.270 OA
ATOM     13  H   UNL     1      -3.289   2.037   9.842  0.00  0.00    -0.086 HD
ATOM     14  H   UNL     1      -2.798   1.933   8.274  0.00  0.00    -0.086 HD
ENDROOT
BRANCH  11  15
ATOM     15  C   UNL     1       2.778   1.751  12.009  0.00  0.00    +0.040 A 
ATOM     16  C   UNL     1       1.632   1.233  12.613  0.00  0.00    +0.033 A 
ATOM     17  C   UNL     1       1.273   1.652  13.879  0.00  0.00    +0.043 A 
ATOM     18  C   UNL     1       2.048   2.583  14.549  0.00  0.00    +0.040 A 
ATOM     19  C   UNL     1       3.186   3.101  13.954  0.00  0.00    +0.043 A 
ATOM     20  C   UNL     1       3.558   2.686  12.691  0.00  0.00    +0.033 A 
ATOM     21 CL   UNL     1       4.151   4.269  14.801  0.00  0.00    -0.083 Cl
ATOM     22 CL   UNL     1      -0.153   1.009  14.633  0.00  0.00    -0.083 Cl
ENDBRANCH  11  15
BRANCH   1  24
ATOM     23  N   UNL     1       0.262  -0.269   5.560  0.00  0.00    -0.315 N 
ATOM     24  C   UNL     1       0.826  -0.551   6.752  0.00  0.00    +0.218 C 
ATOM     25  O   UNL     1       0.975  -1.705   7.094  0.00  0.00    -0.275 OA
ATOM     26  H   UNL     1       0.142   0.654   5.287  0.00  0.00    +0.149 HD
BRANCH  23  27
ATOM     27  C   UNL     1      -0.170  -1.357   4.678  0.00  0.00    +0.109 C 
BRANCH  27  28
ATOM     28  C   UNL     1      -0.771  -0.769   3.401  0.00  0.00    +0.057 C 
BRANCH  28  34
ATOM     29  C   UNL     1      -2.467  -2.461   2.660  0.00  0.00    +0.124 A 
ATOM     30  C   UNL     1      -2.876  -3.487   1.820  0.00  0.00    +0.046 A 
ATOM     31  C   UNL     1      -2.032  -3.938   0.824  0.00  0.00    +0.004 A 
ATOM     32  C   UNL     1      -0.783  -3.369   0.663  0.00  0.00    +0.000 A 
ATOM     33  C   UNL     1      -0.374  -2.346   1.499  0.00  0.00    +0.007 A 
ATOM     34  C   UNL     1      -1.215  -1.887   2.494  0.00  0.00    -0.004 A 
BRANCH  29  35
ATOM     35  O   UNL     1      -3.295  -2.014   3.641  0.00  0.00    -0.492 OA
BRANCH  35  37
ATOM     36  C   UNL     1      -5.355  -2.019   4.905  0.00  0.00    +0.048 C 
ATOM     37  C   UNL     1      -4.570  -2.651   3.754  0.00  0.00    +0.225 C 
ENDBRANCH  35  37
ENDBRANCH  29  35
ENDBRANCH  28  34
ENDBRANCH  27  28
ENDBRANCH  23  27
ENDBRANCH   1  24
TORSDOF 7
