REMARK  Name = ZINC67035655
REMARK  9 active torsions:
REMARK  status: ('A' for Active; 'I' for Inactive)
REMARK    1  A    between atoms: C_1  and  C_2
REMARK    2  A    between atoms: C_2  and  C_3
REMARK    3  A    between atoms: C_6  and  C_9
REMARK    4  A    between atoms: C_9  and  C_11
REMARK    5  A    between atoms: C_9  and  N_16
REMARK    6  A    between atoms: C_17  and  C_19
REMARK    7  A    between atoms: C_22  and  C_24
REMARK    8  A    between atoms: C_24  and  N_25
REMARK    9  A    between atoms: C_26  and  C_28
REMARK                            x       y       z     vdW  Elec       q    Type
REMARK                         _______ _______ _______ _____ _____    ______ ____
ROOT
ATOM      1  N   UNL     1      -5.578  -3.005  -1.015  0.00  0.00    -0.300 N 
ATOM      2  C   UNL     1      -6.529  -3.954  -0.909  0.00  0.00    +0.251 C 
ATOM      3  O   UNL     1      -7.256  -3.980   0.067  0.00  0.00    -0.270 OA
ATOM      4  H   UNL     1      -4.998  -2.985  -1.793  0.00  0.00    +0.150 HD
ENDROOT
BRANCH   2   5
ATOM      5  C   UNL     1      -6.688  -4.955  -1.968  0.00  0.00    +0.074 A 
ATOM      6  C   UNL     1      -7.596  -5.999  -2.054  0.00  0.00    +0.021 A 
ATOM      7  C   UNL     1      -7.502  -6.780  -3.181  0.00  0.00    +0.013 A 
ATOM      8  C   UNL     1      -6.556  -6.490  -4.107  0.00  0.00    +0.008 A 
ATOM      9  S   UNL     1      -5.769  -5.142  -3.484  0.00  0.00    -0.087 S 
BRANCH   8  10
ATOM     10  C   UNL     1      -6.277  -7.207  -5.403  0.00  0.00    +0.146 C 
BRANCH  10  11
ATOM     11  N   UNL     1      -7.079  -6.609  -6.474  0.00  0.00    -0.311 N 
ATOM     12  C   UNL     1      -6.994  -7.091  -7.729  0.00  0.00    +0.210 C 
ATOM     13  O   UNL     1      -6.253  -8.020  -7.973  0.00  0.00    -0.276 OA
ATOM     14  C   UNL     1      -7.818  -6.477  -8.831  0.00  0.00    +0.109 C 
ATOM     15  H   UNL     1      -7.672  -5.866  -6.279  0.00  0.00    +0.149 HD
ENDBRANCH  10  11
ENDBRANCH   8  10
ENDBRANCH   2   5
BRANCH   1  16
ATOM     16  C   UNL     1      -5.419  -2.005   0.043  0.00  0.00    +0.140 C 
BRANCH  16  20
ATOM     17  C   UNL     1      -1.412  -0.526   0.013  0.00  0.00    -0.048 A 
ATOM     18  C   UNL     1      -2.051  -0.766   1.215  0.00  0.00    +0.004 A 
ATOM     19  C   UNL     1      -3.348  -1.244   1.225  0.00  0.00    +0.006 A 
ATOM     20  C   UNL     1      -4.006  -1.482   0.032  0.00  0.00    -0.022 A 
ATOM     21  C   UNL     1      -3.367  -1.241  -1.170  0.00  0.00    +0.006 A 
ATOM     22  C   UNL     1      -2.072  -0.758  -1.179  0.00  0.00    +0.004 A 
BRANCH  17  24
ATOM     23  C   UNL     1      -0.019   1.526   0.010  0.00  0.00    +0.009 C 
ATOM     24  C   UNL     1       0.002  -0.004   0.002  0.00  0.00    +0.032 C 
ENDBRANCH  17  24
ENDBRANCH  16  20
BRANCH  16  25
ATOM     25  C   UNL     1      -6.377  -0.866  -0.194  0.00  0.00    +0.014 A 
ATOM     26  C   UNL     1      -7.111  -0.166   0.706  0.00  0.00    +0.013 A 
ATOM     27  C   UNL     1      -7.932   0.850   0.256  0.00  0.00    +0.008 A 
ATOM     28  C   UNL     1      -7.980   1.117  -1.073  0.00  0.00    +0.045 A 
ATOM     29  S   UNL     1      -6.835  -0.084  -1.732  0.00  0.00    -0.099 S 
ENDBRANCH  16  25
ENDBRANCH   1  16
TORSDOF 7
