REMARK  Name = ZINC12906150
REMARK  7 active torsions:
REMARK  status: ('A' for Active; 'I' for Inactive)
REMARK    1  A    between atoms: N_9  and  C_28
REMARK    2  A    between atoms: C_10  and  C_12
REMARK    3  A    between atoms: C_12  and  N_13
REMARK    4  A    between atoms: N_13  and  C_14
REMARK    5  A    between atoms: C_14  and  C_16
REMARK    6  A    between atoms: C_14  and  C_23
REMARK    7  A    between atoms: C_28  and  C_29
REMARK                            x       y       z     vdW  Elec       q    Type
REMARK                         _______ _______ _______ _____ _____    ______ ____
ROOT
ATOM      1  C   UNL     1       7.774   4.948   4.918  0.00  0.00    +0.001 A 
ATOM      2  C   UNL     1       6.696   5.581   4.314  0.00  0.00    +0.002 A 
ATOM      3  C   UNL     1       5.837   4.883   3.494  0.00  0.00    +0.028 A 
ATOM      4  C   UNL     1       6.051   3.522   3.267  0.00  0.00    +0.078 A 
ATOM      5  C   UNL     1       7.149   2.882   3.883  0.00  0.00    +0.065 A 
ATOM      6  C   UNL     1       8.006   3.606   4.709  0.00  0.00    +0.015 A 
ATOM      7  C   UNL     1       7.347   1.448   3.622  0.00  0.00    +0.262 A 
ATOM      8  O   UNL     1       8.273   0.837   4.122  0.00  0.00    -0.267 OA
ATOM      9  N   UNL     1       6.460   0.835   2.805  0.00  0.00    -0.286 N 
ATOM     10  C   UNL     1       5.430   1.531   2.255  0.00  0.00    +0.127 A 
ATOM     11  N   UNL     1       5.233   2.798   2.463  0.00  0.00    -0.232 NA
ENDROOT
BRANCH  10  12
ATOM     12  C   UNL     1       4.472   0.797   1.353  0.00  0.00    +0.156 C 
BRANCH  12  13
ATOM     13  N   UNL     1       3.444   1.728   0.870  0.00  0.00    -0.298 NA
ATOM     14  H   UNL     1       2.894   2.144   1.727  0.00  0.00    +0.123 HD
BRANCH  13  15
ATOM     15  C   UNL     1       2.490   1.046  -0.015  0.00  0.00    +0.122 C 
BRANCH  15  16
ATOM     16  C   UNL     1       1.175   1.783   0.000  0.00  0.00    -0.025 A 
ATOM     17  C   UNL     1      -0.013   1.076   0.008  0.00  0.00    +0.008 A 
ATOM     18  C   UNL     1      -1.219   1.750   0.017  0.00  0.00    +0.038 A 
ATOM     19  C   UNL     1      -1.237   3.135   0.029  0.00  0.00    +0.123 A 
ATOM     20  C   UNL     1      -0.047   3.842   0.022  0.00  0.00    +0.038 A 
ATOM     21  C   UNL     1       1.158   3.165   0.007  0.00  0.00    +0.008 A 
ATOM     22  F   UNL     1      -2.416   3.795   0.043  0.00  0.00    -0.205 F 
ENDBRANCH  15  16
BRANCH  15  23
ATOM     23  C   UNL     1       3.036   1.023  -1.419  0.00  0.00    +0.011 A 
ATOM     24  C   UNL     1       2.990   0.025  -2.336  0.00  0.00    +0.013 A 
ATOM     25  C   UNL     1       3.564   0.229  -3.578  0.00  0.00    +0.008 A 
ATOM     26  C   UNL     1       4.155   1.420  -3.841  0.00  0.00    +0.045 A 
ATOM     27  S   UNL     1       3.904   2.304  -2.310  0.00  0.00    -0.100 S 
ENDBRANCH  15  23
ENDBRANCH  13  15
ENDBRANCH  12  13
ENDBRANCH  10  12
BRANCH   9  28
ATOM     28  C   UNL     1       6.609  -0.592   2.511  0.00  0.00    +0.222 C 
BRANCH  28  29
ATOM     29  C   UNL     1       7.474  -0.765   1.288  0.00  0.00    +0.230 C 
ATOM     30  O   UNL     1       7.921   0.208   0.719  0.00  0.00    -0.274 OA
ATOM     31  N   UNL     1       7.750  -2.001   0.828  0.00  0.00    -0.328 N 
ATOM     32  H   UNL     1       8.381  -2.127  -0.064  0.00  0.00    +0.145 HD
ATOM     33  H   UNL     1       7.345  -2.884   1.345  0.00  0.00    +0.145 HD
ENDBRANCH  28  29
ENDBRANCH   9  28
TORSDOF 7
