REMARK  Name = ZINC09379418
REMARK  8 active torsions:
REMARK  status: ('A' for Active; 'I' for Inactive)
REMARK    1  A    between atoms: C_3  and  C_6
REMARK    2  A    between atoms: C_6  and  N_7
REMARK    3  A    between atoms: N_7  and  C_8
REMARK    4  A    between atoms: C_11  and  S_17
REMARK    5  A    between atoms: C_13  and  N_14
REMARK    6  A    between atoms: S_17  and  N_20
REMARK    7  A    between atoms: N_20  and  C_21
REMARK    8  A    between atoms: C_21  and  C_22
REMARK                            x       y       z     vdW  Elec       q    Type
REMARK                         _______ _______ _______ _____ _____    ______ ____
ROOT
ATOM      1  S   UNL     1       9.909   1.049   2.283  0.00  0.00    +0.059 S 
ATOM      2  O   UNL     1      10.159   0.816   3.663  0.00  0.00    -0.153 OA
ATOM      3  O   UNL     1      10.594   0.347   1.255  0.00  0.00    -0.153 OA
ENDROOT
BRANCH   1   7
ATOM      4  C   UNL     1       5.488   0.317   1.627  0.00  0.00    +0.058 A 
ATOM      5  C   UNL     1       6.377   0.203   0.566  0.00  0.00    +0.027 A 
ATOM      6  C   UNL     1       7.725   0.427   0.770  0.00  0.00    +0.030 A 
ATOM      7  C   UNL     1       8.189   0.764   2.028  0.00  0.00    +0.108 A 
ATOM      8  C   UNL     1       7.306   0.878   3.086  0.00  0.00    +0.063 A 
ATOM      9  C   UNL     1       5.957   0.660   2.889  0.00  0.00    +0.149 A 
BRANCH   9  10
ATOM     10  N   UNL     1       5.012   0.788   4.021  0.00  0.00    +0.058 N 
ATOM     11  O   UNL     1       3.915   1.264   3.842  0.00  0.00    -0.126 OA
ATOM     12  O   UNL     1       5.337   0.417   5.124  0.00  0.00    -0.126 OA
ENDBRANCH   9  10
BRANCH   4  13
ATOM     13  N   UNL     1       4.124   0.091   1.425  0.00  0.00    -0.335 N 
ATOM     14  H   UNL     1       3.516   0.087   2.180  0.00  0.00    +0.147 HD
BRANCH  13  15
ATOM     15  C   UNL     1       3.613  -0.139   0.071  0.00  0.00    +0.176 C 
BRANCH  15  18
ATOM     16  C   UNL     1      -0.070  -0.035   0.135  0.00  0.00    +0.041 A 
ATOM     17  C   UNL     1       1.185   0.607   0.034  0.00  0.00    +0.046 A 
ATOM     18  C   UNL     1       2.122  -0.354   0.127  0.00  0.00    +0.122 A 
ATOM     19  O   UNL     1       1.504  -1.536   0.278  0.00  0.00    -0.466 OA
ATOM     20  C   UNL     1       0.174  -1.350   0.283  0.00  0.00    +0.195 A 
ENDBRANCH  15  18
ENDBRANCH  13  15
ENDBRANCH   4  13
ENDBRANCH   1   7
BRANCH   1  21
ATOM     21  N   UNL     1      10.182   2.661   2.019  0.00  0.00    -0.181 NA
ATOM     22  H   UNL     1      10.740   2.943   1.277  0.00  0.00    +0.149 HD
BRANCH  21  23
ATOM     23  C   UNL     1       9.582   3.661   2.906  0.00  0.00    +0.201 C 
BRANCH  23  24
ATOM     24  C   UNL     1      10.259   4.990   2.694  0.00  0.00    +0.234 C 
ATOM     25  O   UNL     1      11.155   5.093   1.883  0.00  0.00    -0.274 OA
ATOM     26  N   UNL     1       9.870   6.066   3.407  0.00  0.00    -0.264 N 
ATOM     27  C   UNL     1      10.494   7.292   3.212  0.00  0.00    +0.165 A 
ATOM     28  N   UNL     1      11.469   7.590   2.381  0.00  0.00    -0.229 NA
ATOM     29  C   UNL     1      11.974   8.818   2.300  0.00  0.00    +0.054 A 
ATOM     30  C   UNL     1      11.406   9.725   3.137  0.00  0.00    +0.014 A 
ATOM     31  S   UNL     1      10.182   8.761   3.978  0.00  0.00    -0.057 S 
ATOM     32  C   UNL     1      11.749  11.168   3.284  0.00  0.00    +0.044 C 
ATOM     33  C   UNL     1      13.104  11.412   2.600  0.00  0.00    +0.006 C 
ATOM     34  C   UNL     1      13.085  10.753   1.218  0.00  0.00    +0.006 C 
ATOM     35  C   UNL     1      13.098   9.229   1.361  0.00  0.00    +0.056 C 
ATOM     36  H   UNL     1       9.153   5.984   4.056  0.00  0.00    +0.157 HD
ENDBRANCH  23  24
ENDBRANCH  21  23
ENDBRANCH   1  21
TORSDOF 8
