REMARK  Name = ZINC59016308
REMARK  8 active torsions:
REMARK  status: ('A' for Active; 'I' for Inactive)
REMARK    1  A    between atoms: C_1  and  C_2
REMARK    2  A    between atoms: C_7  and  N_8
REMARK    3  A    between atoms: C_9  and  C_11
REMARK    4  A    between atoms: C_11  and  S_12
REMARK    5  A    between atoms: S_12  and  C_13
REMARK    6  A    between atoms: N_18  and  N_19
REMARK    7  A    between atoms: C_20  and  C_21
REMARK    8  A    between atoms: C_22  and  C_23
REMARK                            x       y       z     vdW  Elec       q    Type
REMARK                         _______ _______ _______ _____ _____    ______ ____
ROOT
ATOM      1  C   UNL     1      -0.384  -0.116   7.687  0.00  0.00    +0.211 A 
ATOM      2  N   UNL     1      -0.471  -0.557   8.946  0.00  0.00    -0.186 NA
ATOM      3  C   UNL     1      -0.550   0.467   9.770  0.00  0.00    +0.232 A 
ATOM      4  N   UNL     1      -0.514   1.598   9.034  0.00  0.00    -0.245 N 
ATOM      5  N   UNL     1      -0.401   1.196   7.693  0.00  0.00    -0.144 NA
ATOM      6  N   UNL     1      -0.652   0.396  11.147  0.00  0.00    -0.205 N 
ATOM      7  H   UNL     1      -0.705   1.210  11.672  0.00  0.00    +0.177 HD
ATOM      8  H   UNL     1      -0.554   2.509   9.365  0.00  0.00    +0.192 HD
ENDROOT
BRANCH   6   9
ATOM      9  N   UNL     1      -0.679  -0.851  11.784  0.00  0.00    -0.188 NA
ATOM     10  C   UNL     1      -0.775  -0.918  13.082  0.00  0.00    +0.130 C 
BRANCH  10  11
ATOM     11  C   UNL     1      -0.802  -2.180  13.727  0.00  0.00    +0.022 C 
ATOM     12  C   UNL     1      -0.902  -2.248  15.070  0.00  0.00    +0.009 C 
BRANCH  12  13
ATOM     13  C   UNL     1      -0.930  -3.559  15.740  0.00  0.00    -0.025 A 
ATOM     14  C   UNL     1      -0.848  -4.735  14.987  0.00  0.00    +0.008 A 
ATOM     15  C   UNL     1      -0.874  -5.958  15.622  0.00  0.00    +0.001 A 
ATOM     16  C   UNL     1      -0.982  -6.025  17.000  0.00  0.00    +0.000 A 
ATOM     17  C   UNL     1      -1.064  -4.866  17.752  0.00  0.00    +0.001 A 
ATOM     18  C   UNL     1      -1.034  -3.635  17.133  0.00  0.00    +0.008 A 
ENDBRANCH  12  13
ENDBRANCH  10  11
ENDBRANCH   6   9
BRANCH   1  19
ATOM     19  S   UNL     1      -0.259  -1.131   6.252  0.00  0.00    -0.075 S 
BRANCH  19  20
ATOM     20  C   UNL     1      -0.168   0.054   4.882  0.00  0.00    +0.173 C 
BRANCH  20  22
ATOM     21  N   UNL     1       0.025  -0.014   2.417  0.00  0.00    -0.285 N 
ATOM     22  C   UNL     1      -0.056  -0.693   3.578  0.00  0.00    +0.227 C 
ATOM     23  O   UNL     1      -0.040  -1.906   3.574  0.00  0.00    -0.275 OA
ATOM     24  H   UNL     1       0.078   0.955   2.424  0.00  0.00    +0.155 HD
BRANCH  21  31
ATOM     25  C   UNL     1      -1.265   1.183   0.181  0.00  0.00    +0.045 C 
ATOM     26  C   UNL     1      -0.584  -0.158   0.084  0.00  0.00    -0.029 A 
ATOM     27  C   UNL     1      -0.569  -0.840  -1.117  0.00  0.00    +0.006 A 
ATOM     28  C   UNL     1       0.054  -2.070  -1.207  0.00  0.00    +0.020 A 
ATOM     29  C   UNL     1       0.667  -2.622  -0.095  0.00  0.00    +0.043 A 
ATOM     30  C   UNL     1       0.655  -1.944   1.109  0.00  0.00    +0.043 A 
ATOM     31  C   UNL     1       0.034  -0.706   1.201  0.00  0.00    +0.038 A 
ATOM     32 CL   UNL     1       1.449  -4.168  -0.213  0.00  0.00    -0.083 Cl
ENDBRANCH  21  31
ENDBRANCH  20  22
ENDBRANCH  19  20
ENDBRANCH   1  19
TORSDOF 7
