REMARK  Name = ZINC21969626
REMARK  6 active torsions:
REMARK  status: ('A' for Active; 'I' for Inactive)
REMARK    1  A    between atoms: C_7  and  C_11
REMARK    2  A    between atoms: C_11  and  C_12
REMARK    3  A    between atoms: N_14  and  N_15
REMARK    4  A    between atoms: C_16  and  C_18
REMARK    5  A    between atoms: C_18  and  N_19
REMARK    6  A    between atoms: C_26  and  C_29
REMARK                            x       y       z     vdW  Elec       q    Type
REMARK                         _______ _______ _______ _____ _____    ______ ____
ROOT
ATOM      1  N   UNL     1       2.366   1.214  -0.014  0.00  0.00    -0.233 N 
ATOM      2  C   UNL     1       3.524   1.904  -0.021  0.00  0.00    +0.249 C 
ATOM      3  O   UNL     1       3.508   3.117  -0.015  0.00  0.00    -0.272 OA
ATOM      4  H   UNL     1       2.381   0.115  -0.020  0.00  0.00    +0.173 HD
ENDROOT
BRANCH   1   7
ATOM      5  C   UNL     1      -0.014   1.209   0.009  0.00  0.00    +0.233 C 
ATOM      6  O   UNL     1       0.002  -0.004   0.002  0.00  0.00    -0.274 OA
ATOM      7  N   UNL     1       1.143   1.898   0.001  0.00  0.00    -0.234 N 
ATOM      8  H   UNL     1       1.129   2.998   0.007  0.00  0.00    +0.173 HD
BRANCH   5   9
ATOM      9  C   UNL     1      -1.330   1.944   0.019  0.00  0.00    +0.134 C 
BRANCH   9  16
ATOM     10  C   UNL     1      -3.526  -0.415   3.422  0.00  0.00    +0.001 A 
ATOM     11  C   UNL     1      -4.534  -1.240   2.944  0.00  0.00    +0.002 A 
ATOM     12  C   UNL     1      -4.806  -1.309   1.596  0.00  0.00    +0.026 A 
ATOM     13  C   UNL     1      -4.064  -0.544   0.702  0.00  0.00    +0.047 A 
ATOM     14  C   UNL     1      -3.043   0.291   1.191  0.00  0.00    +0.003 A 
ATOM     15  C   UNL     1      -2.784   0.344   2.562  0.00  0.00    +0.010 A 
ATOM     16  C   UNL     1      -2.462   0.950   0.019  0.00  0.00    -0.014 A 
ATOM     17  C   UNL     1      -3.132   0.503  -1.055  0.00  0.00    +0.087 A 
ATOM     18  N   UNL     1      -4.090  -0.394  -0.667  0.00  0.00    -0.360 N 
ATOM     19  H   UNL     1      -4.816  -0.961  -1.268  0.00  0.00    +0.165 HD
ENDBRANCH   9  16
ENDBRANCH   5   9
ENDBRANCH   1   7
BRANCH   2  20
ATOM     20  C   UNL     1       4.839   1.168  -0.038  0.00  0.00    +0.223 C 
BRANCH  20  21
ATOM     21  N   UNL     1       5.940   2.135  -0.043  0.00  0.00    -0.290 N 
ATOM     22  C   UNL     1       6.451   2.568   1.138  0.00  0.00    +0.203 A 
ATOM     23  N   UNL     1       7.432   3.430   1.174  0.00  0.00    -0.230 NA
ATOM     24  C   UNL     1       7.963   3.911   0.052  0.00  0.00    +0.116 A 
ATOM     25  C   UNL     1       7.500   3.521  -1.215  0.00  0.00    +0.080 A 
ATOM     26  C   UNL     1       6.428   2.573  -1.219  0.00  0.00    +0.263 A 
ATOM     27  O   UNL     1       5.961   2.171  -2.271  0.00  0.00    -0.267 OA
ATOM     28  C   UNL     1       8.188   4.141  -2.342  0.00  0.00    +0.010 A 
ATOM     29  C   UNL     1       9.191   5.018  -2.090  0.00  0.00    +0.057 A 
ATOM     30  S   UNL     1       9.265   5.060  -0.310  0.00  0.00    -0.076 S 
BRANCH  28  31
ATOM     31  C   UNL     1       7.799   3.819  -3.732  0.00  0.00    +0.021 A 
ATOM     32  C   UNL     1       7.511   4.669  -4.766  0.00  0.00    +0.016 A 
ATOM     33  C   UNL     1       7.173   4.131  -5.990  0.00  0.00    +0.008 A 
ATOM     34  C   UNL     1       7.125   2.782  -6.129  0.00  0.00    +0.046 A 
ATOM     35  S   UNL     1       7.576   2.221  -4.496  0.00  0.00    -0.097 S 
ENDBRANCH  28  31
ENDBRANCH  20  21
ENDBRANCH   2  20
TORSDOF 6
