REMARK  Name = ZINC13470781
REMARK  3 active torsions:
REMARK  status: ('A' for Active; 'I' for Inactive)
REMARK    1  A    between atoms: C_1  and  C_2
REMARK    2  A    between atoms: C_2  and  C_19
REMARK    3  A    between atoms: N_7  and  C_12
REMARK                            x       y       z     vdW  Elec       q    Type
REMARK                         _______ _______ _______ _____ _____    ______ ____
ROOT
ATOM      1  C   UNL     1      -0.639   1.855  -0.080  0.00  0.00    +0.040 C 
ATOM      2  C   UNL     1      -0.463   0.349   0.122  0.00  0.00    +0.092 C 
ATOM      3  C   UNL     1      -1.789  -0.397  -0.110  0.00  0.00    +0.209 C 
ATOM      4  N   UNL     1      -1.804  -1.123  -1.387  0.00  0.00    -0.303 N 
ATOM      5  C   UNL     1      -2.279  -2.358  -1.101  0.00  0.00    +0.156 C 
ATOM      6  N   UNL     1      -2.361  -2.553   0.233  0.00  0.00    -0.196 N 
ATOM      7  N   UNL     1      -1.672  -1.503   0.882  0.00  0.00    -0.202 N 
ATOM      8  C   UNL     1      -0.896  -1.063   1.874  0.00  0.00    +0.152 C 
ATOM      9  N   UNL     1      -0.185   0.033   1.541  0.00  0.00    -0.313 N 
ATOM     10  S   UNL     1      -0.812  -1.813   3.410  0.00  0.00    -0.017 S 
ATOM     11  S   UNL     1      -2.719  -3.522  -2.277  0.00  0.00    -0.017 S 
ATOM     12  H   UNL     1      -1.531  -0.787  -2.254  0.00  0.00    +0.150 HD
ATOM     13  H   UNL     1       0.406   0.528   2.130  0.00  0.00    +0.149 HD
ENDROOT
BRANCH   2  14
ATOM     14  C   UNL     1       0.623  -0.190  -0.774  0.00  0.00    -0.020 A 
ATOM     15  C   UNL     1       0.728   0.257  -2.078  0.00  0.00    +0.007 A 
ATOM     16  C   UNL     1       1.724  -0.236  -2.900  0.00  0.00    +0.022 A 
ATOM     17  C   UNL     1       2.616  -1.177  -2.418  0.00  0.00    +0.059 A 
ATOM     18  C   UNL     1       2.511  -1.624  -1.112  0.00  0.00    +0.060 A 
ATOM     19  C   UNL     1       1.517  -1.125  -0.289  0.00  0.00    +0.027 A 
ATOM     20 CL   UNL     1       3.630  -2.805  -0.506  0.00  0.00    -0.082 Cl
ATOM     21 CL   UNL     1       3.866  -1.797  -3.450  0.00  0.00    -0.082 Cl
ENDBRANCH   2  14
BRANCH   6  22
ATOM     22  C   UNL     1      -3.026  -3.605   0.871  0.00  0.00    +0.055 A 
ATOM     23  C   UNL     1      -4.322  -3.937   0.498  0.00  0.00    +0.025 A 
ATOM     24  C   UNL     1      -4.976  -4.977   1.129  0.00  0.00    +0.002 A 
ATOM     25  C   UNL     1      -4.342  -5.686   2.133  0.00  0.00    +0.000 A 
ATOM     26  C   UNL     1      -3.052  -5.358   2.507  0.00  0.00    +0.002 A 
ATOM     27  C   UNL     1      -2.390  -4.323   1.876  0.00  0.00    +0.025 A 
ENDBRANCH   6  22
TORSDOF 2
