REMARK  Name = ZINC59351523
REMARK  5 active torsions:
REMARK  status: ('A' for Active; 'I' for Inactive)
REMARK    1  A    between atoms: C_11  and  C_14
REMARK    2  A    between atoms: C_14  and  O_16
REMARK    3  A    between atoms: O_16  and  C_17
REMARK    4  A    between atoms: C_17  and  C_18
REMARK    5  A    between atoms: N_20  and  C_21
REMARK                            x       y       z     vdW  Elec       q    Type
REMARK                         _______ _______ _______ _____ _____    ______ ____
ROOT
ATOM      1  C   UNL     1      -2.649  -6.497  -1.587  0.00  0.00    +0.328 C 
ENDROOT
BRANCH   1   2
ATOM      2  C   UNL     1      -2.785  -7.493  -2.710  0.00  0.00    +0.255 C 
ATOM      3  O   UNL     1      -1.973  -7.505  -3.611  0.00  0.00    -0.272 OA
ATOM      4  N   UNL     1      -3.809  -8.369  -2.714  0.00  0.00    -0.283 N 
ATOM      5  H   UNL     1      -4.502  -8.308  -2.038  0.00  0.00    +0.155 HD
BRANCH   4   6
ATOM      6  C   UNL     1      -3.872  -9.369  -3.693  0.00  0.00    +0.037 A 
ATOM      7  C   UNL     1      -5.103  -9.775  -4.191  0.00  0.00    +0.027 A 
ATOM      8  C   UNL     1      -5.168 -10.761  -5.158  0.00  0.00    +0.051 A 
ATOM      9  C   UNL     1      -4.006 -11.345  -5.632  0.00  0.00    +0.167 A 
ATOM     10  C   UNL     1      -2.768 -10.938  -5.133  0.00  0.00    +0.169 A 
ATOM     11  C   UNL     1      -2.704  -9.948  -4.170  0.00  0.00    +0.073 A 
ATOM     12  O   UNL     1      -1.791 -11.663  -5.764  0.00  0.00    -0.447 OA
ATOM     13  C   UNL     1      -2.483 -12.819  -6.258  0.00  0.00    +0.254 C 
ATOM     14  O   UNL     1      -3.792 -12.322  -6.570  0.00  0.00    -0.448 OA
ATOM     15  C   UNL     1      -1.794 -13.387  -7.503  0.00  0.00    +0.093 C 
ATOM     16  C   UNL     1      -0.960 -14.576  -6.959  0.00  0.00    +0.008 C 
ATOM     17  C   UNL     1      -1.878 -15.168  -5.859  0.00  0.00    +0.008 C 
ATOM     18  C   UNL     1      -2.539 -13.931  -5.210  0.00  0.00    +0.093 C 
ENDBRANCH   4   6
ENDBRANCH   1   2
BRANCH   1  19
ATOM     19  O   UNL     1      -1.495  -5.684  -1.808  0.00  0.00    -0.455 OA
BRANCH  19  20
ATOM     20  C   UNL     1      -1.230  -4.740  -0.892  0.00  0.00    +0.312 C 
ATOM     21  O   UNL     1      -1.954  -4.608   0.066  0.00  0.00    -0.250 OA
BRANCH  20  32
ATOM     22  C   UNL     1       2.412   1.396   0.049  0.00  0.00    +0.005 A 
ATOM     23  C   UNL     1       1.172   2.020   0.060  0.00  0.00    +0.018 A 
ATOM     24  C   UNL     1       0.027   1.250   0.052  0.00  0.00    +0.084 A 
ATOM     25  N   UNL     1       0.098  -0.068   0.036  0.00  0.00    -0.350 N 
ATOM     26  C   UNL     1       1.261  -0.700   0.026  0.00  0.00    +0.099 A 
ATOM     27  C   UNL     1       2.455   0.013   0.032  0.00  0.00    +0.042 A 
ATOM     28  N   UNL     1       1.289  -2.090   0.009  0.00  0.00    -0.316 N 
ATOM     29  C   UNL     1       2.563  -2.811  -0.118  0.00  0.00    +0.106 C 
ATOM     30  C   UNL     1       2.460  -3.792  -1.290  0.00  0.00    +0.020 C 
ATOM     31  C   UNL     1       1.242  -4.697  -1.088  0.00  0.00    +0.018 C 
ATOM     32  C   UNL     1      -0.029  -3.845  -1.058  0.00  0.00    +0.115 C 
ATOM     33  C   UNL     1       0.046  -2.865   0.124  0.00  0.00    +0.121 C 
ATOM     34  H   UNL     1      -0.722  -0.586   0.031  0.00  0.00    +0.166 HD
ENDBRANCH  20  32
ENDBRANCH  19  20
ENDBRANCH   1  19
TORSDOF 5
