REMARK  Name = ZINC63277056
REMARK  8 active torsions:
REMARK  status: ('A' for Active; 'I' for Inactive)
REMARK    1  A    between atoms: C_1  and  N_2
REMARK    2  A    between atoms: C_3  and  C_19
REMARK    3  A    between atoms: C_7  and  S_8
REMARK    4  A    between atoms: S_8  and  C_9
REMARK    5  A    between atoms: C_9  and  C_10
REMARK    6  A    between atoms: C_22  and  N_25
REMARK    7  A    between atoms: C_26  and  C_28
REMARK    8  A    between atoms: C_29  and  C_30
REMARK                            x       y       z     vdW  Elec       q    Type
REMARK                         _______ _______ _______ _____ _____    ______ ____
ROOT
ATOM      1  C   UNL     1       0.008   1.424   0.018  0.00  0.00    +0.133 C 
ATOM      2  N   UNL     1       0.018  -0.041   0.014  0.00  0.00    -0.288 N 
ATOM      3  C   UNL     1      -1.151  -0.930   0.116  0.00  0.00    +0.208 C 
ATOM      4  N   UNL     1      -0.572  -2.284   0.061  0.00  0.00    -0.242 N 
ATOM      5  N   UNL     1       0.812  -2.111  -0.061  0.00  0.00    -0.162 NA
ATOM      6  C   UNL     1       1.131  -0.862  -0.093  0.00  0.00    +0.175 C 
ATOM      7  H   UNL     1      -1.053  -3.125   0.102  0.00  0.00    +0.170 HD
ENDROOT
BRANCH   3   8
ATOM      8  C   UNL     1      -1.870  -0.712   1.422  0.00  0.00    -0.008 A 
ATOM      9  C   UNL     1      -3.219  -0.410   1.425  0.00  0.00    +0.009 A 
ATOM     10  C   UNL     1      -3.881  -0.208   2.621  0.00  0.00    +0.024 A 
ATOM     11  C   UNL     1      -3.189  -0.309   3.821  0.00  0.00    +0.034 A 
ATOM     12  C   UNL     1      -1.833  -0.613   3.814  0.00  0.00    +0.024 A 
ATOM     13  C   UNL     1      -1.179  -0.818   2.616  0.00  0.00    +0.009 A 
BRANCH  11  14
ATOM     14  N   UNL     1      -3.855  -0.105   5.033  0.00  0.00    -0.282 N 
ATOM     15  C   UNL     1      -3.217   0.487   6.062  0.00  0.00    +0.241 C 
ATOM     16  O   UNL     1      -2.036   0.767   5.965  0.00  0.00    -0.270 OA
ATOM     17  H   UNL     1      -4.777  -0.389   5.134  0.00  0.00    +0.155 HD
BRANCH  15  18
ATOM     18  C   UNL     1      -3.943   0.792   7.296  0.00  0.00    +0.068 C 
ATOM     19  C   UNL     1      -3.304   1.384   8.325  0.00  0.00    +0.013 C 
BRANCH  19  20
ATOM     20  C   UNL     1      -4.034   1.691   9.566  0.00  0.00    -0.025 A 
ATOM     21  C   UNL     1      -5.389   1.365   9.683  0.00  0.00    +0.008 A 
ATOM     22  C   UNL     1      -6.066   1.655  10.849  0.00  0.00    +0.001 A 
ATOM     23  C   UNL     1      -5.408   2.268  11.901  0.00  0.00    +0.000 A 
ATOM     24  C   UNL     1      -4.067   2.594  11.793  0.00  0.00    +0.001 A 
ATOM     25  C   UNL     1      -3.375   2.305  10.636  0.00  0.00    +0.008 A 
ENDBRANCH  19  20
ENDBRANCH  15  18
ENDBRANCH  11  14
ENDBRANCH   3   8
BRANCH   6  26
ATOM     26  S   UNL     1       2.783  -0.269  -0.248  0.00  0.00    -0.085 S 
BRANCH  26  27
ATOM     27  C   UNL     1       3.784  -1.779  -0.346  0.00  0.00    +0.124 C 
BRANCH  27  28
ATOM     28  C   UNL     1       5.261  -1.405  -0.485  0.00  0.00    +0.184 C 
ATOM     29  N   UNL     1       5.673  -0.554   0.639  0.00  0.00    -0.363 N 
ATOM     30  C   UNL     1       6.066   0.584   0.143  0.00  0.00    +0.060 A 
ATOM     31  C   UNL     1       6.583   1.815   0.756  0.00  0.00    +0.027 A 
ATOM     32  C   UNL     1       6.918   2.859  -0.028  0.00  0.00    +0.002 A 
ATOM     33  C   UNL     1       6.794   2.825  -1.429  0.00  0.00    +0.002 A 
ATOM     34  C   UNL     1       6.331   1.747  -2.091  0.00  0.00    +0.027 A 
ATOM     35  C   UNL     1       5.936   0.548  -1.339  0.00  0.00    +0.060 A 
ATOM     36  N   UNL     1       5.466  -0.611  -1.703  0.00  0.00    -0.363 N 
ATOM     37  H   UNL     1       5.655  -0.795   1.578  0.00  0.00    +0.162 HD
ATOM     38  H   UNL     1       5.286  -0.897  -2.612  0.00  0.00    +0.162 HD
ENDBRANCH  27  28
ENDBRANCH  26  27
ENDBRANCH   6  26
TORSDOF 7
