REMARK  Name = ZINC21494368
REMARK  8 active torsions:
REMARK  status: ('A' for Active; 'I' for Inactive)
REMARK    1  A    between atoms: C_2  and  C_3
REMARK    2  A    between atoms: C_3  and  N_4
REMARK    3  A    between atoms: C_10  and  C_12
REMARK    4  A    between atoms: C_19  and  S_20
REMARK    5  A    between atoms: S_20  and  C_21
REMARK    6  A    between atoms: C_21  and  C_22
REMARK    7  A    between atoms: N_24  and  C_25
REMARK    8  A    between atoms: C_28  and  C_31
REMARK                            x       y       z     vdW  Elec       q    Type
REMARK                         _______ _______ _______ _____ _____    ______ ____
ROOT
ATOM      1  N   UNL     1       7.831   4.831  -0.572  0.00  0.00    -0.283 N 
ATOM      2  C   UNL     1       7.560   3.505  -0.542  0.00  0.00    +0.269 A 
ATOM      3  O   UNL     1       8.447   2.682  -0.691  0.00  0.00    -0.266 OA
ATOM      4  C   UNL     1       6.242   3.104  -0.336  0.00  0.00    +0.103 A 
ATOM      5  C   UNL     1       5.206   4.041  -0.161  0.00  0.00    +0.087 A 
ATOM      6  C   UNL     1       3.930   3.503   0.037  0.00  0.00    +0.044 A 
ATOM      7  C   UNL     1       3.757   2.151   0.053  0.00  0.00    +0.022 A 
ATOM      8  S   UNL     1       5.414   1.541  -0.210  0.00  0.00    -0.081 S 
ATOM      9  N   UNL     1       5.574   5.363  -0.208  0.00  0.00    -0.222 NA
ATOM     10  C   UNL     1       6.813   5.726  -0.402  0.00  0.00    +0.173 A 
ENDROOT
BRANCH   7  11
ATOM     11  C   UNL     1       2.509   1.382   0.245  0.00  0.00    -0.011 A 
ATOM     12  C   UNL     1       1.299   2.048   0.446  0.00  0.00    +0.009 A 
ATOM     13  C   UNL     1       0.138   1.324   0.624  0.00  0.00    +0.001 A 
ATOM     14  C   UNL     1       0.172  -0.059   0.605  0.00  0.00    +0.000 A 
ATOM     15  C   UNL     1       1.368  -0.725   0.408  0.00  0.00    +0.001 A 
ATOM     16  C   UNL     1       2.536  -0.014   0.228  0.00  0.00    +0.009 A 
ENDBRANCH   7  11
BRANCH   1  17
ATOM     17  C   UNL     1       9.202   5.301  -0.786  0.00  0.00    +0.154 C 
BRANCH  17  19
ATOM     18  C   UNL     1      11.030   4.833   0.762  0.00  0.00    +0.005 C 
ATOM     19  C   UNL     1       9.895   5.450   0.543  0.00  0.00    -0.013 C 
ENDBRANCH  17  19
ENDBRANCH   1  17
BRANCH  10  20
ATOM     20  S   UNL     1       7.189   7.447  -0.446  0.00  0.00    -0.078 S 
BRANCH  20  21
ATOM     21  C   UNL     1       5.538   8.136  -0.175  0.00  0.00    +0.173 C 
BRANCH  21  22
ATOM     22  C   UNL     1       5.616   9.641  -0.174  0.00  0.00    +0.227 C 
ATOM     23  O   UNL     1       6.683  10.194  -0.339  0.00  0.00    -0.275 OA
ATOM     24  N   UNL     1       4.500  10.374   0.011  0.00  0.00    -0.285 N 
ATOM     25  H   UNL     1       3.520   9.877   0.074  0.00  0.00    +0.155 HD
BRANCH  24  26
ATOM     26  C   UNL     1       4.587  11.762   0.123  0.00  0.00    +0.033 A 
ATOM     27  C   UNL     1       5.697  12.341   0.728  0.00  0.00    +0.024 A 
ATOM     28  C   UNL     1       5.789  13.711   0.836  0.00  0.00    +0.020 A 
ATOM     29  C   UNL     1       4.759  14.519   0.346  0.00  0.00    +0.052 A 
ATOM     30  C   UNL     1       3.642  13.933  -0.257  0.00  0.00    +0.020 A 
ATOM     31  C   UNL     1       3.560  12.563  -0.366  0.00  0.00    +0.024 A 
BRANCH  29  32
ATOM     32  C   UNL     1       4.848  15.944   0.461  0.00  0.00    +0.099 C 
ATOM     33  N   UNL     1       4.919  17.074   0.551  0.00  0.00    -0.191 NA
ENDBRANCH  29  32
ENDBRANCH  24  26
ENDBRANCH  21  22
ENDBRANCH  20  21
ENDBRANCH  10  20
TORSDOF 8
