REMARK  Name = ZINC46028261
REMARK  4 active torsions:
REMARK  status: ('A' for Active; 'I' for Inactive)
REMARK    1  A    between atoms: C_5  and  C_6
REMARK    2  A    between atoms: C_6  and  N_7
REMARK    3  A    between atoms: N_13  and  C_16
REMARK    4  A    between atoms: C_16  and  C_17
REMARK                            x       y       z     vdW  Elec       q    Type
REMARK                         _______ _______ _______ _____ _____    ______ ____
ROOT
ATOM      1  N   UNL     1      -3.588  -2.183  -0.577  0.00  0.00    -0.295 N 
ATOM      2  C   UNL     1      -2.852  -1.719  -1.606  0.00  0.00    +0.302 C 
ATOM      3  O   UNL     1      -1.881  -1.020  -1.393  0.00  0.00    -0.253 OA
ATOM      4  N   UNL     1      -3.193  -2.031  -2.873  0.00  0.00    -0.289 N 
ATOM      5  C   UNL     1      -2.339  -1.637  -4.004  0.00  0.00    +0.091 C 
ATOM      6  C   UNL     1      -3.213  -0.940  -5.052  0.00  0.00    -0.059 C 
ATOM      7  N   UNL     1      -4.334  -1.816  -5.415  0.00  0.00    +0.385 N 
ATOM      8  C   UNL     1      -5.204  -2.023  -4.250  0.00  0.00    -0.059 C 
ATOM      9  C   UNL     1      -4.426  -2.779  -3.162  0.00  0.00    +0.091 C 
ATOM     10  H   UNL     1      -4.403  -2.680  -0.749  0.00  0.00    +0.151 HD
ATOM     11  H   UNL     1      -3.976  -2.706  -5.728  0.00  0.00    -0.081 HD
ENDROOT
BRANCH   1  12
ATOM     12  C   UNL     1      -3.157  -1.936   0.801  0.00  0.00    +0.141 C 
BRANCH  12  17
ATOM     13  C   UNL     1      -3.984  -3.858   2.187  0.00  0.00    +0.013 A 
ATOM     14  C   UNL     1      -4.891  -4.383   3.045  0.00  0.00    +0.045 A 
ATOM     15  S   UNL     1      -6.021  -3.019   3.270  0.00  0.00    -0.105 S 
ATOM     16  C   UNL     1      -5.207  -1.841   2.204  0.00  0.00    +0.050 A 
ATOM     17  C   UNL     1      -4.146  -2.554   1.755  0.00  0.00    -0.023 A 
ENDBRANCH  12  17
ENDBRANCH   1  12
BRANCH   7  18
ATOM     18  C   UNL     1      -5.108  -1.195  -6.498  0.00  0.00    -0.024 C 
BRANCH  18  19
ATOM     19  C   UNL     1      -6.185  -2.146  -6.955  0.00  0.00    +0.007 A 
ATOM     20  C   UNL     1      -7.516  -1.831  -6.787  0.00  0.00    +0.090 A 
ATOM     21  C   UNL     1      -8.499  -2.723  -7.217  0.00  0.00    +0.259 A 
ATOM     22  O   UNL     1      -9.680  -2.449  -7.071  0.00  0.00    -0.267 OA
ATOM     23  N   UNL     1      -8.138  -3.904  -7.801  0.00  0.00    -0.264 N 
ATOM     24  C   UNL     1      -8.983  -4.879  -8.274  0.00  0.00    +0.104 A 
ATOM     25  C   UNL     1      -8.506  -5.994  -8.826  0.00  0.00    +0.067 A 
ATOM     26  S   UNL     1      -6.743  -5.733  -8.714  0.00  0.00    -0.059 S 
ATOM     27  C   UNL     1      -6.795  -4.137  -7.928  0.00  0.00    +0.158 A 
ATOM     28  N   UNL     1      -5.867  -3.302  -7.532  0.00  0.00    -0.341 N 
ATOM     29  H   UNL     1      -4.933  -3.531  -7.658  0.00  0.00    +0.167 HD
ENDBRANCH  18  19
ENDBRANCH   7  18
TORSDOF 4
