REMARK  Name = ZINC06122276
REMARK  9 active torsions:
REMARK  status: ('A' for Active; 'I' for Inactive)
REMARK    1  A    between atoms: C_1  and  C_2
REMARK    2  A    between atoms: C_2  and  C_3
REMARK    3  A    between atoms: C_10  and  N_15
REMARK    4  A    between atoms: C_11  and  C_12
REMARK    5  A    between atoms: C_16  and  C_18
REMARK    6  A    between atoms: C_18  and  C_19
REMARK    7  A    between atoms: C_18  and  C_21
REMARK    8  A    between atoms: C_19  and  C_20
REMARK    9  A    between atoms: C_21  and  C_22
REMARK                            x       y       z     vdW  Elec       q    Type
REMARK                         _______ _______ _______ _____ _____    ______ ____
ROOT
ATOM      1  C   UNL     1       3.533   2.798  -1.208  0.00  0.00    -0.006 C 
ATOM      2  C   UNL     1       3.586   1.460  -0.465  0.00  0.00    +0.008 C 
ATOM      3  C   UNL     1       2.394   0.592  -0.870  0.00  0.00    +0.037 C 
ATOM      4  C   UNL     1       1.115   1.400  -0.691  0.00  0.00    -0.023 A 
ATOM      5  C   UNL     1       1.151   2.747  -0.600  0.00  0.00    -0.004 A 
ATOM      6  S   UNL     1      -0.541   3.232  -0.403  0.00  0.00    -0.077 S 
ATOM      7  C   UNL     1      -1.287   1.669  -0.448  0.00  0.00    +0.084 A 
ATOM      8  C   UNL     1      -0.210   0.809  -0.606  0.00  0.00    +0.068 A 
ATOM      9  C   UNL     1       2.363   3.625  -0.656  0.00  0.00    +0.046 C 
ENDROOT
BRANCH   8  10
ATOM     10  C   UNL     1      -0.402  -0.642  -0.691  0.00  0.00    +0.244 C 
ATOM     11  O   UNL     1      -0.381  -1.319   0.321  0.00  0.00    -0.270 OA
ATOM     12  N   UNL     1      -0.601  -1.227  -1.888  0.00  0.00    -0.325 N 
ATOM     13  H   UNL     1      -0.618  -0.688  -2.694  0.00  0.00    +0.145 HD
ATOM     14  H   UNL     1      -0.728  -2.187  -1.944  0.00  0.00    +0.145 HD
ENDBRANCH   8  10
BRANCH   7  15
ATOM     15  N   UNL     1      -2.634   1.354  -0.348  0.00  0.00    -0.279 N 
ATOM     16  C   UNL     1      -3.546   2.335  -0.196  0.00  0.00    +0.221 C 
ATOM     17  O   UNL     1      -3.188   3.493  -0.147  0.00  0.00    -0.275 OA
ATOM     18  H   UNL     1      -2.919   0.428  -0.387  0.00  0.00    +0.155 HD
BRANCH  16  19
ATOM     19  C   UNL     1      -5.009   1.993  -0.087  0.00  0.00    +0.075 C 
BRANCH  19  20
ATOM     20  C   UNL     1      -5.233   1.089   1.127  0.00  0.00    +0.009 C 
ATOM     21  C   UNL     1      -4.812   1.829   2.398  0.00  0.00    +0.004 C 
ENDBRANCH  19  20
BRANCH  19  22
ATOM     22  C   UNL     1      -5.823   3.278   0.077  0.00  0.00    +0.009 C 
ATOM     23  C   UNL     1      -7.316   2.943   0.056  0.00  0.00    +0.004 C 
ENDBRANCH  19  22
ENDBRANCH  16  19
ENDBRANCH   7  15
BRANCH   1  25
ATOM     24  C   UNL     1       4.831   4.842  -1.822  0.00  0.00    +0.004 C 
ATOM     25  C   UNL     1       4.844   3.557  -0.993  0.00  0.00    +0.000 C 
ENDBRANCH   1  25
TORSDOF 6
