REMARK  Name = ZINC39690729
REMARK  4 active torsions:
REMARK  status: ('A' for Active; 'I' for Inactive)
REMARK    1  A    between atoms: C_5  and  C_7
REMARK    2  A    between atoms: C_7  and  N_8
REMARK    3  A    between atoms: C_9  and  C_11
REMARK    4  A    between atoms: C_22  and  C_24
REMARK                            x       y       z     vdW  Elec       q    Type
REMARK                         _______ _______ _______ _____ _____    ______ ____
ROOT
ATOM      1  C   UNL     1       1.338  -4.324   3.765  0.00  0.00    +0.100 C 
ATOM      2  C   UNL     1       2.873  -4.154   3.706  0.00  0.00    +0.121 C 
ATOM      3  N   UNL     1       3.407  -5.317   4.453  0.00  0.00    -0.300 N 
ATOM      4  C   UNL     1       2.527  -6.444   4.059  0.00  0.00    +0.115 C 
ATOM      5  C   UNL     1       1.115  -5.828   3.996  0.00  0.00    -0.004 C 
ATOM      6  C   UNL     1       0.380  -6.057   5.313  0.00  0.00    -0.010 C 
ATOM      7  C   UNL     1       0.121  -7.556   5.493  0.00  0.00    -0.082 C 
ATOM      8  N   UNL     1      -0.681  -8.054   4.368  0.00  0.00    +0.379 N 
ATOM      9  C   UNL     1       0.071  -7.914   3.116  0.00  0.00    -0.082 C 
ATOM     10  C   UNL     1       0.329  -6.431   2.836  0.00  0.00    -0.010 C 
ATOM     11  C   UNL     1       4.455  -5.345   5.300  0.00  0.00    +0.219 C 
ATOM     12  O   UNL     1       5.031  -4.316   5.585  0.00  0.00    -0.275 OA
ATOM     13  H   UNL     1      -0.902  -9.026   4.520  0.00  0.00    -0.086 HD
ATOM     14  H   UNL     1      -1.537  -7.523   4.306  0.00  0.00    -0.086 HD
ENDROOT
BRANCH  11  15
ATOM     15  C   UNL     1       4.911  -6.653   5.892  0.00  0.00    +0.079 C 
ATOM     16  C   UNL     1       5.636  -6.394   7.218  0.00  0.00    +0.017 C 
ATOM     17  C   UNL     1       5.929  -7.742   7.881  0.00  0.00    +0.027 C 
ATOM     18  C   UNL     1       6.572  -8.674   6.896  0.00  0.00    -0.031 C 
ATOM     19  C   UNL     1       6.550  -8.501   5.614  0.00  0.00    -0.030 C 
ATOM     20  C   UNL     1       5.883  -7.342   4.931  0.00  0.00    +0.039 C 
ENDBRANCH  11  15
BRANCH   1  22
ATOM     21  N   UNL     1      -0.551  -3.427   2.444  0.00  0.00    -0.311 N 
ATOM     22  C   UNL     1       0.713  -3.895   2.462  0.00  0.00    +0.218 C 
ATOM     23  O   UNL     1       1.347  -3.971   1.431  0.00  0.00    -0.275 OA
ATOM     24  H   UNL     1      -1.058  -3.366   3.268  0.00  0.00    +0.149 HD
BRANCH  21  25
ATOM     25  C   UNL     1      -1.159  -3.010   1.178  0.00  0.00    +0.140 C 
BRANCH  25  30
ATOM     26  C   UNL     1      -4.927  -2.927   1.405  0.00  0.00    +0.000 A 
ATOM     27  C   UNL     1      -5.146  -1.651   1.891  0.00  0.00    +0.001 A 
ATOM     28  C   UNL     1      -4.076  -0.815   2.146  0.00  0.00    +0.015 A 
ATOM     29  C   UNL     1      -2.785  -1.254   1.915  0.00  0.00    +0.023 A 
ATOM     30  C   UNL     1      -2.566  -2.531   1.429  0.00  0.00    -0.016 A 
ATOM     31  C   UNL     1      -3.637  -3.366   1.175  0.00  0.00    +0.006 A 
ATOM     32 BR   UNL     1      -1.320  -0.110   2.263  0.00  0.00    -0.050 Br
ENDBRANCH  25  30
ENDBRANCH  21  25
ENDBRANCH   1  22
TORSDOF 4
