REMARK  Name = ZINC40746483
REMARK  3 active torsions:
REMARK  status: ('A' for Active; 'I' for Inactive)
REMARK    1  A    between atoms: C_1  and  N_2
REMARK    2  A    between atoms: N_2  and  C_3
REMARK    3  A    between atoms: N_2  and  C_15
REMARK                            x       y       z     vdW  Elec       q    Type
REMARK                         _______ _______ _______ _____ _____    ______ ____
ROOT
ATOM      1  C   UNL     1       0.032   1.455  -0.169  0.00  0.00    -0.094 C 
ATOM      2  N   UNL     1       0.002  -0.004   0.002  0.00  0.00    +0.390 N 
ATOM      3  H   UNL     1       0.488  -0.253   0.851  0.00  0.00    -0.080 HD
ENDROOT
BRANCH   2   4
ATOM      4  C   UNL     1      -1.392  -0.459   0.084  0.00  0.00    +0.052 C 
ATOM      5  C   UNL     1      -2.199   0.094  -1.068  0.00  0.00    -0.030 A 
ATOM      6  C   UNL     1      -2.100  -0.049  -2.434  0.00  0.00    +0.024 A 
ATOM      7  C   UNL     1      -3.003   0.594  -3.263  0.00  0.00    +0.041 A 
ATOM      8  C   UNL     1      -4.002   1.379  -2.714  0.00  0.00    +0.022 A 
ATOM      9  C   UNL     1      -4.102   1.524  -1.346  0.00  0.00    +0.025 A 
ATOM     10  C   UNL     1      -3.196   0.880  -0.506  0.00  0.00    +0.035 A 
ATOM     11  N   UNL     1      -3.091   0.870   0.886  0.00  0.00    -0.286 N 
ATOM     12  C   UNL     1      -2.064   0.111   1.315  0.00  0.00    +0.208 C 
ATOM     13  O   UNL     1      -1.739  -0.080   2.468  0.00  0.00    -0.277 OA
ATOM     14 CL   UNL     1      -2.884   0.417  -4.986  0.00  0.00    -0.084 Cl
ATOM     15  H   UNL     1      -3.689   1.354   1.477  0.00  0.00    +0.155 HD
ENDBRANCH   2   4
BRANCH   2  16
ATOM     16  C   UNL     1       0.659  -0.645  -1.145  0.00  0.00    -0.065 C 
ATOM     17  C   UNL     1       2.124  -0.202  -1.205  0.00  0.00    +0.003 C 
ATOM     18  C   UNL     1       2.862  -0.752   0.026  0.00  0.00    +0.052 C 
ATOM     19  C   UNL     1       2.006  -0.429   1.273  0.00  0.00    +0.020 C 
ATOM     20  C   UNL     1       1.048  -1.630   1.417  0.00  0.00    +0.020 C 
ATOM     21  C   UNL     1       1.412  -2.570   0.243  0.00  0.00    +0.052 C 
ATOM     22  C   UNL     1       0.586  -2.167  -0.989  0.00  0.00    +0.003 C 
ATOM     23  N   UNL     1       2.841  -2.236  -0.074  0.00  0.00    -0.311 NA
ATOM     24  H   UNL     1       3.098  -2.539  -1.002  0.00  0.00    +0.122 HD
ENDBRANCH   2  16
TORSDOF 2
