REMARK  Name = ZINC39467105
REMARK  6 active torsions:
REMARK  status: ('A' for Active; 'I' for Inactive)
REMARK    1  A    between atoms: C_1  and  S_2
REMARK    2  A    between atoms: S_2  and  C_3
REMARK    3  A    between atoms: C_15  and  C_16
REMARK    4  A    between atoms: C_21  and  O_22
REMARK    5  A    between atoms: P_25  and  C_28
REMARK    6  A    between atoms: C_33  and  O_34
REMARK                            x       y       z     vdW  Elec       q    Type
REMARK                         _______ _______ _______ _____ _____    ______ ____
ROOT
ATOM      1  C   UNL     1       0.848  -0.411  -1.489  0.00  0.00    +0.011 C 
ATOM      2  C   UNL     1       1.300   0.560  -2.295  0.00  0.00    -0.010 C 
ATOM      3  C   UNL     1       2.029   0.177  -3.553  0.00  0.00    +0.005 C 
ATOM      4  C   UNL     1       2.926   1.305  -4.048  0.00  0.00    -0.046 C 
ATOM      5  N   UNL     1       3.585   0.906  -5.304  0.00  0.00    +0.398 N 
ATOM      6  C   UNL     1       4.411  -0.287  -5.118  0.00  0.00    -0.020 C 
ATOM      7  C   UNL     1       3.579  -1.457  -4.575  0.00  0.00    -0.003 C 
ATOM      8  C   UNL     1       2.916  -1.041  -3.266  0.00  0.00    +0.016 C 
ATOM      9  C   UNL     1       2.061  -2.146  -2.710  0.00  0.00    -0.013 C 
ATOM     10  C   UNL     1       1.072  -1.830  -1.858  0.00  0.00    -0.005 C 
ATOM     11  C   UNL     1       5.019  -0.761  -6.444  0.00  0.00    +0.157 C 
ATOM     12  O   UNL     1       5.876   0.268  -6.971  0.00  0.00    -0.316 OA
ATOM     13  P   UNL     1       5.276   1.777  -7.070  0.00  0.00    +0.291 P 
ATOM     14  O   UNL     1       4.432   1.915  -8.278  0.00  0.00    -0.269 OA
ATOM     15  N   UNL     1       4.364   1.976  -5.689  0.00  0.00    -0.288 NA
ATOM     16  H   UNL     1       4.365   2.804  -5.185  0.00  0.00    +0.111 HD
ATOM     17  H   UNL     1       2.885   0.727  -6.009  0.00  0.00    -0.055 HD
ENDROOT
BRANCH  10  18
ATOM     18  C   UNL     1       0.206  -2.893  -1.295  0.00  0.00    +0.024 A 
ATOM     19  C   UNL     1       0.686  -3.725  -0.285  0.00  0.00    +0.012 A 
ATOM     20  C   UNL     1      -0.124  -4.714   0.235  0.00  0.00    +0.001 A 
ATOM     21  C   UNL     1      -1.413  -4.883  -0.242  0.00  0.00    +0.004 A 
ATOM     22  C   UNL     1      -1.899  -4.064  -1.243  0.00  0.00    +0.046 A 
ATOM     23  C   UNL     1      -1.099  -3.062  -1.770  0.00  0.00    +0.125 A 
BRANCH  23  24
ATOM     24  O   UNL     1      -1.577  -2.252  -2.750  0.00  0.00    -0.506 OA
ATOM     25  H   UNL     1      -1.420  -2.583  -3.646  0.00  0.00    +0.292 HD
ENDBRANCH  23  24
ENDBRANCH  10  18
BRANCH  13  26
ATOM     26  C   UNL     1       6.624   2.990  -7.104  0.00  0.00    +0.091 A 
ATOM     27  C   UNL     1       7.112   3.514  -5.922  0.00  0.00    +0.018 A 
ATOM     28  C   UNL     1       8.140   4.438  -5.947  0.00  0.00    +0.001 A 
ATOM     29  C   UNL     1       8.682   4.840  -7.154  0.00  0.00    +0.004 A 
ATOM     30  C   UNL     1       8.198   4.319  -8.338  0.00  0.00    +0.046 A 
ATOM     31  C   UNL     1       7.170   3.387  -8.315  0.00  0.00    +0.131 A 
BRANCH  31  32
ATOM     32  O   UNL     1       6.696   2.868  -9.478  0.00  0.00    -0.506 OA
ATOM     33  H   UNL     1       5.968   3.373  -9.866  0.00  0.00    +0.292 HD
ENDBRANCH  31  32
ENDBRANCH  13  26
BRANCH   1  35
ATOM     34  C   UNL     1      -0.022   1.810   0.012  0.00  0.00    +0.090 C 
ATOM     35  S   UNL     1       0.002  -0.004   0.002  0.00  0.00    -0.128 S 
ENDBRANCH   1  35
TORSDOF 5
