REMARK  Name = ZINC04308988
REMARK  4 active torsions:
REMARK  status: ('A' for Active; 'I' for Inactive)
REMARK    1  A    between atoms: C_1  and  C_2
REMARK    2  A    between atoms: N_11  and  C_15
REMARK    3  A    between atoms: C_15  and  C_16
REMARK    4  A    between atoms: C_19  and  C_22
REMARK                            x       y       z     vdW  Elec       q    Type
REMARK                         _______ _______ _______ _____ _____    ______ ____
ROOT
ATOM      1  C   UNL     1      -1.179   0.990   4.247  0.00  0.00    +0.010 C 
ATOM      2  C   UNL     1      -2.159  -0.143   4.557  0.00  0.00    +0.018 C 
ATOM      3  C   UNL     1      -1.400  -1.471   4.623  0.00  0.00    +0.006 C 
ATOM      4  C   UNL     1      -2.384  -2.606   4.913  0.00  0.00    +0.000 C 
ATOM      5  C   UNL     1      -3.424  -2.679   3.792  0.00  0.00    +0.003 C 
ATOM      6  C   UNL     1      -4.191  -1.357   3.723  0.00  0.00    +0.035 C 
ATOM      7  C   UNL     1      -3.217  -0.213   3.461  0.00  0.00    +0.115 C 
ATOM      8  C   UNL     1      -2.569  -0.378   2.106  0.00  0.00    +0.247 C 
ATOM      9  O   UNL     1      -1.874  -1.298   1.732  0.00  0.00    -0.273 OA
ATOM     10  N   UNL     1      -2.925   0.715   1.400  0.00  0.00    -0.220 N 
ATOM     11  C   UNL     1      -3.707   1.531   2.118  0.00  0.00    +0.310 C 
ATOM     12  O   UNL     1      -4.158   2.578   1.696  0.00  0.00    -0.252 OA
ATOM     13  N   UNL     1      -3.937   1.063   3.359  0.00  0.00    -0.285 N 
ATOM     14  H   UNL     1      -4.472   1.484   4.050  0.00  0.00    +0.151 HD
ENDROOT
BRANCH  10  15
ATOM     15  C   UNL     1      -2.513   0.975   0.019  0.00  0.00    +0.153 C 
BRANCH  15  16
ATOM     16  C   UNL     1      -1.220   1.750   0.017  0.00  0.00    -0.030 A 
ATOM     17  C   UNL     1      -0.013   1.076   0.008  0.00  0.00    +0.006 A 
ATOM     18  C   UNL     1       1.174   1.781   0.000  0.00  0.00    +0.009 A 
ATOM     19  C   UNL     1       1.153   3.174   0.008  0.00  0.00    -0.018 A 
ATOM     20  C   UNL     1      -0.066   3.848   0.023  0.00  0.00    +0.009 A 
ATOM     21  C   UNL     1      -1.246   3.133   0.031  0.00  0.00    +0.006 A 
BRANCH  19  22
ATOM     22  C   UNL     1       2.426   3.938   0.001  0.00  0.00    -0.018 A 
ATOM     23  C   UNL     1       3.646   3.264  -0.009  0.00  0.00    +0.008 A 
ATOM     24  C   UNL     1       4.826   3.979  -0.021  0.00  0.00    +0.001 A 
ATOM     25  C   UNL     1       4.800   5.362  -0.013  0.00  0.00    +0.000 A 
ATOM     26  C   UNL     1       3.592   6.036   0.001  0.00  0.00    +0.001 A 
ATOM     27  C   UNL     1       2.406   5.331   0.008  0.00  0.00    +0.008 A 
ENDBRANCH  19  22
ENDBRANCH  15  16
ENDBRANCH  10  15
TORSDOF 3
