REMARK  Name = ZINC36011810
REMARK  10 active torsions:
REMARK  status: ('A' for Active; 'I' for Inactive)
REMARK    1  A    between atoms: C_1  and  C_2
REMARK    2  A    between atoms: C_6  and  C_38
REMARK    3  A    between atoms: C_8  and  O_11
REMARK    4  A    between atoms: O_11  and  C_12
REMARK    5  A    between atoms: C_12  and  C_14
REMARK    6  A    between atoms: C_15  and  C_37
REMARK    7  A    between atoms: C_19  and  C_21
REMARK    8  A    between atoms: C_22  and  C_23
REMARK    9  A    between atoms: C_38  and  C_39
REMARK   10  A    between atoms: C_38  and  C_40
REMARK                            x       y       z     vdW  Elec       q    Type
REMARK                         _______ _______ _______ _____ _____    ______ ____
ROOT
ATOM      1  C   UNL     1       3.438   0.066   4.902  0.00  0.00    +0.065 C 
ATOM      2  C   UNL     1       3.198   0.926   5.901  0.00  0.00    +0.016 C 
ATOM      3  N   UNL     1       3.768   0.805   7.141  0.00  0.00    -0.317 N 
ATOM      4  C   UNL     1       4.825  -0.067   7.288  0.00  0.00    +0.047 C 
ATOM      5  C   UNL     1       5.136  -0.992   6.324  0.00  0.00    +0.033 C 
ATOM      6  C   UNL     1       4.344  -1.128   5.046  0.00  0.00    +0.086 C 
ATOM      7  C   UNL     1       6.259  -1.745   6.732  0.00  0.00    +0.192 C 
ATOM      8  O   UNL     1       6.789  -2.643   6.106  0.00  0.00    -0.287 OA
ATOM      9  C   UNL     1       6.672  -1.242   8.060  0.00  0.00    +0.031 A 
ATOM     10  C   UNL     1       5.774  -0.198   8.398  0.00  0.00    +0.007 A 
ATOM     11  C   UNL     1       5.896   0.486   9.597  0.00  0.00    +0.010 A 
ATOM     12  C   UNL     1       6.938   0.099  10.445  0.00  0.00    +0.001 A 
ATOM     13  C   UNL     1       7.807  -0.914  10.114  0.00  0.00    +0.001 A 
ATOM     14  C   UNL     1       7.697  -1.615   8.908  0.00  0.00    +0.012 A 
ATOM     15  C   UNL     1       2.260   2.078   5.649  0.00  0.00    +0.061 C 
ATOM     16  H   UNL     1       3.437   1.319   7.894  0.00  0.00    +0.152 HD
ENDROOT
BRANCH   1  17
ATOM     17  C   UNL     1       2.807   0.287   3.655  0.00  0.00    +0.338 C 
ATOM     18  O   UNL     1       1.827  -0.364   3.346  0.00  0.00    -0.245 OA
BRANCH  17  19
ATOM     19  O   UNL     1       3.292   1.219   2.809  0.00  0.00    -0.458 OA
BRANCH  19  25
ATOM     20  C   UNL     1       0.662   0.555  -0.440  0.00  0.00    +0.007 C 
ATOM     21  C   UNL     1       2.159   0.682  -0.732  0.00  0.00    -0.011 C 
ATOM     22  C   UNL     1       2.460   2.090  -1.248  0.00  0.00    +0.004 C 
ATOM     23  C   UNL     1       2.058   3.118  -0.189  0.00  0.00    +0.007 C 
ATOM     24  C   UNL     1       2.852   2.865   1.095  0.00  0.00    +0.032 C 
ATOM     25  C   UNL     1       2.551   1.456   1.611  0.00  0.00    +0.180 C 
ATOM     26  C   UNL     1       2.953   0.428   0.551  0.00  0.00    +0.048 C 
BRANCH  24  27
ATOM     27  C   UNL     1       2.451   3.893   2.154  0.00  0.00    -0.011 C 
ATOM     28  C   UNL     1       2.883   5.288   1.700  0.00  0.00    +0.007 C 
ATOM     29  C   UNL     1       0.932   3.865   2.342  0.00  0.00    +0.007 C 
ENDBRANCH  24  27
ENDBRANCH  19  25
ENDBRANCH  17  19
ENDBRANCH   1  17
BRANCH   6  30
ATOM     30  C   UNL     1       5.289  -1.189   3.874  0.00  0.00    -0.013 C 
ATOM     31  C   UNL     1       5.223  -2.201   3.020  0.00  0.00    +0.004 C 
BRANCH  31  32
ATOM     32  C   UNL     1       6.227  -2.327   1.944  0.00  0.00    -0.025 A 
ATOM     33  C   UNL     1       7.321  -1.461   1.901  0.00  0.00    +0.008 A 
ATOM     34  C   UNL     1       8.255  -1.584   0.893  0.00  0.00    +0.001 A 
ATOM     35  C   UNL     1       8.110  -2.562  -0.074  0.00  0.00    +0.000 A 
ATOM     36  C   UNL     1       7.027  -3.423  -0.038  0.00  0.00    +0.001 A 
ATOM     37  C   UNL     1       6.089  -3.315   0.969  0.00  0.00    +0.008 A 
ENDBRANCH  31  32
ENDBRANCH   6  30
TORSDOF 6
