REMARK  Name = ZINC28632468
REMARK  13 active torsions:
REMARK  status: ('A' for Active; 'I' for Inactive)
REMARK    1  A    between atoms: C_1  and  C_2
REMARK    2  A    between atoms: C_2  and  C_3
REMARK    3  A    between atoms: C_2  and  C_4
REMARK    4  A    between atoms: C_2  and  C_5
REMARK    5  A    between atoms: C_8  and  C_11
REMARK    6  A    between atoms: C_14  and  C_16
REMARK    7  A    between atoms: N_18  and  N_19
REMARK    8  A    between atoms: C_20  and  C_21
REMARK    9  A    between atoms: C_23  and  C_28
REMARK   10  A    between atoms: C_26  and  O_27
REMARK   11  A    between atoms: C_28  and  C_29
REMARK   12  A    between atoms: C_28  and  C_30
REMARK   13  A    between atoms: C_28  and  C_31
REMARK                            x       y       z     vdW  Elec       q    Type
REMARK                         _______ _______ _______ _____ _____    ______ ____
ROOT
ATOM      1  C   UNL     1       0.003  -4.071  -0.321  0.00  0.00    +0.236 C 
ATOM      2  O   UNL     1      -1.034  -4.676  -0.497  0.00  0.00    -0.274 OA
ATOM      3  N   UNL     1      -0.022  -2.740  -0.111  0.00  0.00    -0.207 N 
ATOM      4  H   UNL     1       0.918  -2.191   0.049  0.00  0.00    +0.177 HD
ENDROOT
BRANCH   1   7
ATOM      5  C   UNL     1       1.279  -6.317  -0.580  0.00  0.00    +0.032 C 
ATOM      6  C   UNL     1       1.599  -5.775   0.814  0.00  0.00    +0.022 C 
ATOM      7  C   UNL     1       1.318  -4.807  -0.337  0.00  0.00    +0.085 C 
BRANCH   5  11
ATOM      8  C   UNL     1       4.489  -8.037  -2.813  0.00  0.00    -0.042 A 
ATOM      9  C   UNL     1       3.190  -8.144  -3.275  0.00  0.00    +0.004 A 
ATOM     10  C   UNL     1       2.151  -7.588  -2.553  0.00  0.00    +0.004 A 
ATOM     11  C   UNL     1       2.411  -6.924  -1.368  0.00  0.00    -0.044 A 
ATOM     12  C   UNL     1       3.710  -6.812  -0.909  0.00  0.00    +0.004 A 
ATOM     13  C   UNL     1       4.749  -7.373  -1.629  0.00  0.00    +0.004 A 
BRANCH   8  15
ATOM     14  C   UNL     1       5.670  -8.010  -4.994  0.00  0.00    +0.015 C 
ATOM     15  C   UNL     1       5.621  -8.643  -3.602  0.00  0.00    -0.013 C 
ATOM     16  C   UNL     1       6.943  -8.384  -2.877  0.00  0.00    +0.015 C 
ATOM     17  C   UNL     1       5.400 -10.151  -3.735  0.00  0.00    +0.015 C 
ENDBRANCH   8  15
ENDBRANCH   5  11
ENDBRANCH   1   7
BRANCH   3  18
ATOM     18  N   UNL     1      -1.244  -2.055  -0.096  0.00  0.00    -0.188 NA
ATOM     19  C   UNL     1      -1.261  -0.759  -0.032  0.00  0.00    +0.142 C 
BRANCH  19  20
ATOM     20  C   UNL     1      -0.101   0.018  -0.504  0.00  0.00    +0.036 A 
ATOM     21  C   UNL     1       0.837  -0.569  -1.357  0.00  0.00    +0.017 A 
ATOM     22  C   UNL     1       1.920   0.163  -1.795  0.00  0.00    -0.041 A 
ATOM     23  C   UNL     1       2.083   1.478  -1.393  0.00  0.00    +0.008 A 
ATOM     24  C   UNL     1       1.162   2.070  -0.549  0.00  0.00    +0.046 A 
ATOM     25  C   UNL     1       0.068   1.349  -0.100  0.00  0.00    +0.125 A 
BRANCH  22  26
ATOM     26  C   UNL     1       2.932  -0.471  -2.715  0.00  0.00    -0.013 C 
ATOM     27  C   UNL     1       2.239  -0.917  -4.004  0.00  0.00    +0.015 C 
ATOM     28  C   UNL     1       4.025   0.546  -3.049  0.00  0.00    +0.015 C 
ATOM     29  C   UNL     1       3.558  -1.685  -2.026  0.00  0.00    +0.015 C 
ENDBRANCH  22  26
BRANCH  25  30
ATOM     30  O   UNL     1      -0.838   1.930   0.729  0.00  0.00    -0.506 OA
ATOM     31  H   UNL     1      -0.703   2.975   1.045  0.00  0.00    +0.292 HD
ENDBRANCH  25  30
ENDBRANCH  19  20
ENDBRANCH   3  18
TORSDOF 7
