REMARK  Name = ZINC20455303
REMARK  7 active torsions:
REMARK  status: ('A' for Active; 'I' for Inactive)
REMARK    1  A    between atoms: C_3  and  N_8
REMARK    2  A    between atoms: C_10  and  C_13
REMARK    3  A    between atoms: C_13  and  N_14
REMARK    4  A    between atoms: N_17  and  C_24
REMARK    5  A    between atoms: C_18  and  C_21
REMARK    6  A    between atoms: C_21  and  C_22
REMARK    7  A    between atoms: C_22  and  O_23
REMARK                            x       y       z     vdW  Elec       q    Type
REMARK                         _______ _______ _______ _____ _____    ______ ____
ROOT
ATOM      1  N   UNL     1      -3.031   1.301   1.367  0.00  0.00    -0.301 NA
ATOM      2  C   UNL     1      -2.195   0.334   2.092  0.00  0.00    +0.066 C 
ATOM      3  C   UNL     1      -2.727   0.172   3.518  0.00  0.00    -0.062 C 
ATOM      4  N   UNL     1      -4.125  -0.277   3.469  0.00  0.00    +0.385 N 
ATOM      5  C   UNL     1      -4.961   0.691   2.744  0.00  0.00    -0.052 C 
ATOM      6  C   UNL     1      -4.429   0.852   1.318  0.00  0.00    +0.069 C 
ATOM      7  H   UNL     1      -4.157  -1.230   2.922  0.00  0.00    -0.081 HD
ENDROOT
BRANCH   4   8
ATOM      8  C   UNL     1      -4.649  -0.516   4.821  0.00  0.00    -0.068 C 
ATOM      9  C   UNL     1      -4.524   0.764   5.650  0.00  0.00    -0.015 C 
ATOM     10  C   UNL     1      -5.069   0.514   7.058  0.00  0.00    -0.002 C 
ATOM     11  C   UNL     1      -4.268  -0.606   7.724  0.00  0.00    -0.000 C 
ATOM     12  C   UNL     1      -4.392  -1.885   6.895  0.00  0.00    -0.002 C 
ATOM     13  C   UNL     1      -3.847  -1.636   5.487  0.00  0.00    -0.015 C 
ENDBRANCH   4   8
BRANCH   1  14
ATOM     14  C   UNL     1      -2.507   1.540   0.016  0.00  0.00    +0.122 C 
BRANCH  14  17
ATOM     15  N   UNL     1       0.983   2.580   0.245  0.00  0.00    -0.239 N 
ATOM     16  C   UNL     1       0.036   1.616   0.180  0.00  0.00    +0.119 A 
ATOM     17  C   UNL     1      -1.169   2.227   0.110  0.00  0.00    +0.004 A 
ATOM     18  C   UNL     1      -0.954   3.609   0.142  0.00  0.00    +0.139 A 
ATOM     19  N   UNL     1       0.335   3.821   0.220  0.00  0.00    -0.174 NA
BRANCH  15  22
ATOM     20  C   UNL     1       4.241   0.878   0.422  0.00  0.00    +0.005 A 
ATOM     21  C   UNL     1       2.876   1.081   0.347  0.00  0.00    +0.028 A 
ATOM     22  C   UNL     1       2.367   2.372   0.325  0.00  0.00    +0.068 A 
ATOM     23  C   UNL     1       3.230   3.458   0.386  0.00  0.00    +0.066 A 
ATOM     24  C   UNL     1       4.595   3.250   0.465  0.00  0.00    +0.125 A 
ATOM     25  C   UNL     1       5.099   1.960   0.483  0.00  0.00    +0.038 A 
ATOM     26  F   UNL     1       5.436   4.305   0.525  0.00  0.00    -0.205 F 
ENDBRANCH  15  22
ENDBRANCH  14  17
ENDBRANCH   1  14
BRANCH   5  27
ATOM     27  C   UNL     1      -6.404   0.184   2.697  0.00  0.00    +0.014 C 
BRANCH  27  28
ATOM     28  C   UNL     1      -7.290   1.232   2.021  0.00  0.00    +0.154 C 
BRANCH  28  29
ATOM     29  O   UNL     1      -8.655   0.813   2.084  0.00  0.00    -0.395 OA
ATOM     30  H   UNL     1      -9.444   1.443   1.647  0.00  0.00    +0.209 HD
ENDBRANCH  28  29
ENDBRANCH  27  28
ENDBRANCH   5  27
TORSDOF 7
