REMARK  Name = ZINC23737956
REMARK  10 active torsions:
REMARK  status: ('A' for Active; 'I' for Inactive)
REMARK    1  A    between atoms: C_1  and  C_2
REMARK    2  A    between atoms: C_2  and  C_27
REMARK    3  A    between atoms: N_5  and  C_9
REMARK    4  A    between atoms: C_9  and  C_10
REMARK    5  A    between atoms: N_12  and  C_13
REMARK    6  A    between atoms: C_13  and  C_14
REMARK    7  A    between atoms: C_14  and  C_16
REMARK    8  A    between atoms: C_14  and  N_22
REMARK    9  A    between atoms: C_30  and  O_33
REMARK   10  A    between atoms: O_33  and  C_34
REMARK                            x       y       z     vdW  Elec       q    Type
REMARK                         _______ _______ _______ _____ _____    ______ ____
ROOT
ATOM      1  C   UNL     1      -1.321   2.587  -0.059  0.00  0.00    +0.213 C 
ENDROOT
BRANCH   1   6
ATOM      2  C   UNL     1      -4.130  -0.220   2.450  0.00  0.00    +0.047 C 
ATOM      3  C   UNL     1      -4.279   0.964   1.493  0.00  0.00    +0.135 C 
ATOM      4  C   UNL     1      -3.061   1.863   1.562  0.00  0.00    +0.251 C 
ATOM      5  O   UNL     1      -2.653   2.470   2.529  0.00  0.00    -0.272 OA
ATOM      6  N   UNL     1      -2.524   1.846   0.326  0.00  0.00    -0.215 N 
ATOM      7  C   UNL     1      -3.230   1.073  -0.508  0.00  0.00    +0.310 C 
ATOM      8  O   UNL     1      -2.944   0.903  -1.677  0.00  0.00    -0.252 OA
ATOM      9  N   UNL     1      -4.288   0.501   0.094  0.00  0.00    -0.281 N 
ATOM     10  H   UNL     1      -5.076  -0.184  -0.253  0.00  0.00    +0.152 HD
BRANCH   3  11
ATOM     11  C   UNL     1      -5.532   1.743   1.802  0.00  0.00    -0.015 A 
ATOM     12  C   UNL     1      -5.477   2.825   2.660  0.00  0.00    +0.010 A 
ATOM     13  C   UNL     1      -6.622   3.545   2.941  0.00  0.00    +0.046 A 
ATOM     14  C   UNL     1      -7.831   3.173   2.369  0.00  0.00    +0.120 A 
ATOM     15  C   UNL     1      -7.884   2.083   1.513  0.00  0.00    +0.046 A 
ATOM     16  C   UNL     1      -6.734   1.370   1.231  0.00  0.00    +0.010 A 
BRANCH  14  17
ATOM     17  O   UNL     1      -8.960   3.875   2.649  0.00  0.00    -0.495 OA
ATOM     18  C   UNL     1      -8.830   4.985   3.539  0.00  0.00    +0.277 C 
ENDBRANCH  14  17
ENDBRANCH   3  11
ENDBRANCH   1   6
BRANCH   1  19
ATOM     19  C   UNL     1      -0.105   1.727   0.172  0.00  0.00    +0.231 C 
ATOM     20  O   UNL     1      -0.232   0.605   0.616  0.00  0.00    -0.274 OA
ATOM     21  N   UNL     1       1.122   2.202  -0.118  0.00  0.00    -0.315 N 
ATOM     22  H   UNL     1       1.237   3.220  -0.520  0.00  0.00    +0.149 HD
BRANCH  21  23
ATOM     23  C   UNL     1       2.303   1.364   0.102  0.00  0.00    +0.093 C 
BRANCH  23  24
ATOM     24  C   UNL     1       3.567   2.189  -0.146  0.00  0.00    -0.020 C 
BRANCH  24  25
ATOM     25  C   UNL     1       4.780   1.306   0.001  0.00  0.00    -0.059 A 
ATOM     26  C   UNL     1       5.195   0.905   1.257  0.00  0.00    +0.002 A 
ATOM     27  C   UNL     1       6.304   0.091   1.391  0.00  0.00    +0.000 A 
ATOM     28  C   UNL     1       7.005  -0.312   0.270  0.00  0.00    +0.000 A 
ATOM     29  C   UNL     1       6.593   0.094  -0.986  0.00  0.00    +0.000 A 
ATOM     30  C   UNL     1       5.481   0.903  -1.120  0.00  0.00    +0.002 A 
ENDBRANCH  24  25
BRANCH  24  31
ATOM     31  N   UNL     1       3.637   3.283   0.832  0.00  0.00    +0.385 N 
ATOM     32  C   UNL     1       4.975   3.929   0.814  0.00  0.00    -0.078 C 
ATOM     33  C   UNL     1       4.710   5.312   1.460  0.00  0.00    -0.020 C 
ATOM     34  C   UNL     1       3.315   5.689   0.911  0.00  0.00    -0.020 C 
ATOM     35  C   UNL     1       2.669   4.352   0.501  0.00  0.00    -0.078 C 
ATOM     36  H   UNL     1       3.416   2.827   1.808  0.00  0.00    -0.081 HD
ENDBRANCH  24  31
ENDBRANCH  23  24
ENDBRANCH  21  23
ENDBRANCH   1  19
TORSDOF 8
