REMARK  Name = ZINC32531553
REMARK  4 active torsions:
REMARK  status: ('A' for Active; 'I' for Inactive)
REMARK    1  A    between atoms: C_3  and  O_12
REMARK    2  A    between atoms: C_6  and  N_7
REMARK    3  A    between atoms: O_12  and  C_13
REMARK    4  A    between atoms: C_13  and  C_15
REMARK                            x       y       z     vdW  Elec       q    Type
REMARK                         _______ _______ _______ _____ _____    ______ ____
ROOT
ATOM      1  C   UNL     1      -0.023   1.419  -0.105  0.00  0.00    +0.031 A 
ATOM      2  C   UNL     1       1.171   2.113  -0.105  0.00  0.00    +0.048 A 
ATOM      3  C   UNL     1       2.373   1.425  -0.020  0.00  0.00    +0.132 A 
ATOM      4  C   UNL     1       2.376   0.040   0.067  0.00  0.00    +0.048 A 
ATOM      5  C   UNL     1       1.183  -0.654   0.068  0.00  0.00    +0.031 A 
ATOM      6  C   UNL     1      -0.020   0.033  -0.018  0.00  0.00    +0.069 A 
ENDROOT
BRANCH   6   7
ATOM      7  N   UNL     1      -1.233  -0.672  -0.017  0.00  0.00    -0.200 N 
ATOM      8  C   UNL     1      -1.403  -2.010   0.067  0.00  0.00    +0.250 A 
ATOM      9  N   UNL     1      -2.690  -2.240   0.033  0.00  0.00    -0.116 NA
ATOM     10  N   UNL     1      -3.344  -1.139  -0.065  0.00  0.00    -0.023 NA
ATOM     11  N   UNL     1      -2.531  -0.139  -0.095  0.00  0.00    -0.039 NA
ENDBRANCH   6   7
BRANCH   3  12
ATOM     12  O   UNL     1       3.548   2.109  -0.022  0.00  0.00    -0.422 OA
BRANCH  12  13
ATOM     13  C   UNL     1       3.845   2.860   1.058  0.00  0.00    +0.346 C 
ATOM     14  O   UNL     1       3.124   2.829   2.037  0.00  0.00    -0.244 OA
BRANCH  13  15
ATOM     15  C   UNL     1       5.040   3.715   1.052  0.00  0.00    +0.086 A 
ATOM     16  C   UNL     1       5.917   3.782  -0.094  0.00  0.00    +0.044 A 
ATOM     17  C   UNL     1       6.978   4.604   0.029  0.00  0.00    +0.080 A 
ATOM     18  S   UNL     1       6.786   5.271   1.667  0.00  0.00    -0.064 S 
ATOM     19  C   UNL     1       5.375   4.496   2.138  0.00  0.00    +0.093 A 
ATOM     20 CL   UNL     1       4.530   4.642   3.648  0.00  0.00    -0.075 Cl
ATOM     21 CL   UNL     1       8.228   4.932  -1.130  0.00  0.00    -0.076 Cl
ENDBRANCH  13  15
ENDBRANCH  12  13
ENDBRANCH   3  12
TORSDOF 4
