REMARK  Name = ZINC12001653
REMARK  4 active torsions:
REMARK  status: ('A' for Active; 'I' for Inactive)
REMARK    1  A    between atoms: C_10  and  C_11
REMARK    2  A    between atoms: C_18  and  C_21
REMARK    3  A    between atoms: C_21  and  N_22
REMARK    4  A    between atoms: C_23  and  C_25
REMARK                            x       y       z     vdW  Elec       q    Type
REMARK                         _______ _______ _______ _____ _____    ______ ____
ROOT
ATOM      1  C   UNL     1       1.444  -1.684  -1.168  0.00  0.00    +0.025 A 
ATOM      2  C   UNL     1       2.693  -1.905  -1.740  0.00  0.00    +0.032 A 
ATOM      3  C   UNL     1       3.636  -0.896  -1.761  0.00  0.00    +0.042 A 
ATOM      4  C   UNL     1       3.336   0.341  -1.213  0.00  0.00    +0.027 A 
ATOM      5  C   UNL     1       2.099   0.568  -0.648  0.00  0.00    -0.000 A 
ATOM      6  C   UNL     1       1.140  -0.434  -0.609  0.00  0.00    +0.132 A 
ATOM      7  O   UNL     1       0.002  -0.004   0.002  0.00  0.00    -0.486 OA
ATOM      8  C   UNL     1      -0.017   1.434   0.010  0.00  0.00    +0.195 C 
ATOM      9  C   UNL     1       1.487   1.796  -0.003  0.00  0.00    +0.085 C 
ATOM     10 CL   UNL     1       5.194  -1.177  -2.473  0.00  0.00    -0.084 Cl
ENDROOT
BRANCH   1  20
ATOM     11  C   UNL     1      -0.212  -3.101   0.048  0.00  0.00    +0.010 A 
ATOM     12  C   UNL     1      -1.147  -4.096   0.083  0.00  0.00    +0.027 A 
ATOM     13  C   UNL     1      -1.461  -4.802  -1.074  0.00  0.00    +0.046 A 
ATOM     14  C   UNL     1      -0.813  -4.482  -2.282  0.00  0.00    +0.000 A 
ATOM     15  C   UNL     1      -1.361  -5.394  -3.290  0.00  0.00    +0.027 A 
ATOM     16  C   UNL     1      -2.261  -6.171  -2.667  0.00  0.00    +0.083 A 
ATOM     17  N   UNL     1      -2.334  -5.832  -1.344  0.00  0.00    -0.361 N 
ATOM     18  H   UNL     1      -2.915  -6.255  -0.692  0.00  0.00    +0.165 HD
ATOM     19  C   UNL     1       0.137  -3.462  -2.314  0.00  0.00    +0.018 A 
ATOM     20  C   UNL     1       0.435  -2.771  -1.147  0.00  0.00    -0.014 A 
ENDBRANCH   1  20
BRANCH   8  21
ATOM     21  C   UNL     1      -0.691   1.960   1.279  0.00  0.00    +0.149 C 
BRANCH  21  22
ATOM     22  N   UNL     1      -2.080   1.496   1.322  0.00  0.00    -0.310 N 
ATOM     23  C   UNL     1      -2.873   1.839   2.356  0.00  0.00    +0.233 C 
ATOM     24  O   UNL     1      -2.437   2.532   3.251  0.00  0.00    -0.274 OA
ATOM     25  H   UNL     1      -2.429   0.943   0.606  0.00  0.00    +0.149 HD
BRANCH  23  26
ATOM     26  C   UNL     1      -4.302   1.363   2.401  0.00  0.00    +0.159 C 
ATOM     27  C   UNL     1      -5.194   2.264   1.517  0.00  0.00    +0.041 C 
ATOM     28  C   UNL     1      -5.715   3.296   2.548  0.00  0.00    +0.098 C 
ATOM     29  C   UNL     1      -5.631   2.571   3.873  0.00  0.00    +0.214 C 
ATOM     30  O   UNL     1      -6.196   2.916   4.890  0.00  0.00    -0.276 OA
ATOM     31  N   UNL     1      -4.839   1.491   3.761  0.00  0.00    -0.304 N 
ATOM     32  H   UNL     1      -4.646   0.876   4.486  0.00  0.00    +0.149 HD
ENDBRANCH  23  26
ENDBRANCH  21  22
ENDBRANCH   8  21
TORSDOF 4
