REMARK  Name = ZINC08634412
REMARK  6 active torsions:
REMARK  status: ('A' for Active; 'I' for Inactive)
REMARK    1  A    between atoms: C_1  and  C_2
REMARK    2  A    between atoms: C_2  and  C_28
REMARK    3  A    between atoms: N_5  and  C_9
REMARK    4  A    between atoms: C_9  and  C_10
REMARK    5  A    between atoms: C_13  and  C_23
REMARK    6  A    between atoms: C_16  and  C_18
REMARK                            x       y       z     vdW  Elec       q    Type
REMARK                         _______ _______ _______ _____ _____    ______ ____
ROOT
ATOM      1  C   UNL     1      -0.572   8.594   0.056  0.00  0.00    +0.253 C 
ATOM      2  O   UNL     1      -1.315   9.552   0.069  0.00  0.00    -0.272 OA
ATOM      3  N   UNL     1      -1.081   7.346   0.053  0.00  0.00    -0.183 N 
ATOM      4  C   UNL     1      -2.513   7.006   0.065  0.00  0.00    +0.143 C 
ATOM      5  C   UNL     1      -2.520   5.465   0.056  0.00  0.00    +0.088 C 
ATOM      6  C   UNL     1      -1.054   5.093   0.040  0.00  0.00    +0.075 C 
ATOM      7  N   UNL     1      -0.338   6.167   0.044  0.00  0.00    -0.180 NA
ENDROOT
BRANCH   6   8
ATOM      8  C   UNL     1      -0.528   3.724   0.027  0.00  0.00    +0.035 A 
ATOM      9  C   UNL     1       0.788   3.296   0.012  0.00  0.00    +0.017 A 
ATOM     10  C   UNL     1       1.034   1.942   0.003  0.00  0.00    +0.008 A 
ATOM     11  C   UNL     1      -0.013   1.076   0.008  0.00  0.00    +0.046 A 
ATOM     12  S   UNL     1      -1.418   2.176   0.019  0.00  0.00    -0.095 S 
ENDBRANCH   6   8
BRANCH   4  13
ATOM     13  C   UNL     1      -3.172   7.532   1.313  0.00  0.00    +0.013 A 
ATOM     14  C   UNL     1      -4.429   8.014   1.477  0.00  0.00    +0.013 A 
ATOM     15  C   UNL     1      -4.824   8.443   2.730  0.00  0.00    +0.008 A 
ATOM     16  C   UNL     1      -3.940   8.380   3.756  0.00  0.00    +0.045 A 
ATOM     17  S   UNL     1      -2.499   7.690   2.959  0.00  0.00    -0.100 S 
ENDBRANCH   4  13
BRANCH   1  18
ATOM     18  C   UNL     1       0.921   8.798   0.043  0.00  0.00    +0.215 C 
BRANCH  18  23
ATOM     19  C   UNL     1       3.033  12.845  -1.065  0.00  0.00    +0.047 C 
ATOM     20  C   UNL     1       1.657  12.385  -0.576  0.00  0.00    +0.135 C 
ATOM     21  C   UNL     1       1.366  10.980  -1.063  0.00  0.00    +0.251 C 
ATOM     22  O   UNL     1       1.282  10.605  -2.213  0.00  0.00    -0.272 OA
ATOM     23  N   UNL     1       1.218  10.233   0.049  0.00  0.00    -0.215 N 
ATOM     24  C   UNL     1       1.381  10.962   1.159  0.00  0.00    +0.310 C 
ATOM     25  O   UNL     1       1.299  10.508   2.283  0.00  0.00    -0.252 OA
ATOM     26  N   UNL     1       1.646  12.253   0.891  0.00  0.00    -0.281 N 
ATOM     27  H   UNL     1       1.799  12.960   1.538  0.00  0.00    +0.152 HD
BRANCH  20  28
ATOM     28  C   UNL     1       0.587  13.344  -1.031  0.00  0.00    -0.016 A 
ATOM     29  C   UNL     1      -0.023  13.167  -2.259  0.00  0.00    +0.006 A 
ATOM     30  C   UNL     1      -1.008  14.044  -2.674  0.00  0.00    +0.000 A 
ATOM     31  C   UNL     1      -1.375  15.104  -1.865  0.00  0.00    +0.000 A 
ATOM     32  C   UNL     1      -0.761  15.283  -0.640  0.00  0.00    +0.000 A 
ATOM     33  C   UNL     1       0.220  14.404  -0.223  0.00  0.00    +0.006 A 
ENDBRANCH  20  28
ENDBRANCH  18  23
ENDBRANCH   1  18
TORSDOF 5
