REMARK  Name = ZINC02093809
REMARK  8 active torsions:
REMARK  status: ('A' for Active; 'I' for Inactive)
REMARK    1  A    between atoms: C_1  and  C_2
REMARK    2  A    between atoms: C_5  and  C_26
REMARK    3  A    between atoms: C_6  and  N_8
REMARK    4  A    between atoms: N_8  and  C_9
REMARK    5  A    between atoms: C_9  and  C_10
REMARK    6  A    between atoms: C_15  and  O_16
REMARK    7  A    between atoms: O_16  and  C_17
REMARK    8  A    between atoms: C_17  and  C_18
REMARK                            x       y       z     vdW  Elec       q    Type
REMARK                         _______ _______ _______ _____ _____    ______ ____
ROOT
ATOM      1  C   UNL     1      -0.818   1.628  -3.525  0.00  0.00    +0.011 A 
ATOM      2  C   UNL     1      -0.295   1.273  -4.753  0.00  0.00    +0.009 A 
ATOM      3  C   UNL     1       0.844   0.491  -4.822  0.00  0.00    +0.001 A 
ATOM      4  C   UNL     1       1.464   0.067  -3.661  0.00  0.00    +0.004 A 
ATOM      5  C   UNL     1       0.948   0.423  -2.431  0.00  0.00    +0.046 A 
ATOM      6  C   UNL     1      -0.194   1.208  -2.359  0.00  0.00    +0.126 A 
ENDROOT
BRANCH   1   7
ATOM      7  C   UNL     1      -2.062   2.475  -3.451  0.00  0.00    +0.140 C 
BRANCH   7   8
ATOM      8  N   UNL     1      -1.690   3.868  -3.192  0.00  0.00    -0.339 N 
ATOM      9  H   UNL     1      -0.755   4.111  -3.097  0.00  0.00    +0.146 HD
BRANCH   8  15
ATOM     10  C   UNL     1      -6.448   5.097  -3.256  0.00  0.00    +0.044 C 
ATOM     11  C   UNL     1      -4.995   5.471  -3.108  0.00  0.00    -0.049 A 
ATOM     12  C   UNL     1      -4.642   6.785  -2.863  0.00  0.00    +0.004 A 
ATOM     13  C   UNL     1      -3.311   7.133  -2.727  0.00  0.00    +0.005 A 
ATOM     14  C   UNL     1      -2.329   6.168  -2.836  0.00  0.00    -0.030 A 
ATOM     15  C   UNL     1      -2.680   4.846  -3.081  0.00  0.00    +0.031 A 
ATOM     16  C   UNL     1      -4.019   4.502  -3.222  0.00  0.00    +0.026 A 
ATOM     17  C   UNL     1      -0.878   6.547  -2.688  0.00  0.00    +0.045 C 
ENDBRANCH   8  15
ENDBRANCH   7   8
ENDBRANCH   1   7
BRANCH   6  18
ATOM     18  O   UNL     1      -0.704   1.559  -1.150  0.00  0.00    -0.487 OA
BRANCH  18  19
ATOM     19  C   UNL     1      -0.013   1.086   0.008  0.00  0.00    +0.266 C 
BRANCH  19  20
ATOM     20  C   UNL     1      -0.718   1.572   1.248  0.00  0.00    +0.008 A 
ATOM     21  C   UNL     1      -1.854   2.352   1.136  0.00  0.00    +0.010 A 
ATOM     22  C   UNL     1      -2.502   2.798   2.272  0.00  0.00    +0.020 A 
ATOM     23  C   UNL     1      -2.013   2.463   3.523  0.00  0.00    +0.042 A 
ATOM     24  C   UNL     1      -0.877   1.683   3.636  0.00  0.00    +0.040 A 
ATOM     25  C   UNL     1      -0.232   1.232   2.498  0.00  0.00    +0.049 A 
ATOM     26 CL   UNL     1       1.190   0.247   2.638  0.00  0.00    -0.083 Cl
ATOM     27 CL   UNL     1      -2.827   3.024   4.951  0.00  0.00    -0.083 Cl
ENDBRANCH  19  20
ENDBRANCH  18  19
ENDBRANCH   6  18
TORSDOF 6
