REMARK  Name = ZINC36579586
REMARK  18 active torsions:
REMARK  status: ('A' for Active; 'I' for Inactive)
REMARK    1  A    between atoms: C_1  and  C_2
REMARK    2  A    between atoms: C_2  and  C_3
REMARK    3  A    between atoms: C_2  and  C_4
REMARK    4  A    between atoms: C_2  and  N_5
REMARK    5  A    between atoms: C_6  and  C_8
REMARK    6  A    between atoms: C_8  and  C_10
REMARK    7  A    between atoms: C_8  and  N_19
REMARK    8  A    between atoms: C_13  and  N_16
REMARK    9  A    between atoms: N_16  and  C_17
REMARK   10  A    between atoms: N_16  and  C_18
REMARK   11  A    between atoms: N_19  and  C_38
REMARK   12  A    between atoms: C_20  and  C_22
REMARK   13  A    between atoms: C_28  and  O_30
REMARK   14  A    between atoms: O_30  and  C_31
REMARK   15  A    between atoms: C_31  and  C_32
REMARK   16  A    between atoms: C_38  and  C_39
REMARK   17  A    between atoms: C_38  and  C_40
REMARK   18  A    between atoms: C_38  and  C_41
REMARK                            x       y       z     vdW  Elec       q    Type
REMARK                         _______ _______ _______ _____ _____    ______ ____
ROOT
ATOM      1  N   UNL     1       4.303  -0.772  -2.821  0.00  0.00    -0.279 N 
ATOM      2  C   UNL     1       5.015  -1.899  -3.020  0.00  0.00    +0.238 C 
ATOM      3  O   UNL     1       4.657  -2.941  -2.513  0.00  0.00    -0.274 OA
ENDROOT
BRANCH   2   4
ATOM      4  C   UNL     1       6.257  -1.864  -3.874  0.00  0.00    +0.165 C 
ATOM      5  C   UNL     1       7.510  -1.997  -2.983  0.00  0.00    +0.033 C 
ATOM      6  C   UNL     1       8.447  -2.895  -3.833  0.00  0.00    +0.021 C 
ATOM      7  C   UNL     1       7.432  -3.848  -4.512  0.00  0.00    +0.112 C 
ATOM      8  N   UNL     1       6.256  -3.003  -4.804  0.00  0.00    -0.256 N 
ATOM      9  C   UNL     1       5.335  -3.236  -5.760  0.00  0.00    +0.404 C 
ATOM     10  O   UNL     1       4.405  -2.468  -5.907  0.00  0.00    -0.226 OA
BRANCH   9  11
ATOM     11  O   UNL     1       5.446  -4.319  -6.552  0.00  0.00    -0.445 OA
BRANCH  11  12
ATOM     12  C   UNL     1       4.434  -4.503  -7.544  0.00  0.00    +0.269 C 
BRANCH  12  13
ATOM     13  C   UNL     1       4.722  -5.757  -8.329  0.00  0.00    -0.010 A 
ATOM     14  C   UNL     1       5.508  -5.697  -9.465  0.00  0.00    +0.007 A 
ATOM     15  C   UNL     1       5.772  -6.847 -10.184  0.00  0.00    +0.000 A 
ATOM     16  C   UNL     1       5.251  -8.058  -9.767  0.00  0.00    +0.000 A 
ATOM     17  C   UNL     1       4.467  -8.118  -8.631  0.00  0.00    +0.000 A 
ATOM     18  C   UNL     1       4.206  -6.969  -7.909  0.00  0.00    +0.007 A 
ENDBRANCH  12  13
ENDBRANCH  11  12
ENDBRANCH   9  11
ENDBRANCH   2   4
BRANCH   1  19
ATOM     19  C   UNL     1       4.781   0.502  -3.362  0.00  0.00    +0.030 C 
ATOM     20  C   UNL     1       3.989   1.652  -2.735  0.00  0.00    +0.031 C 
ATOM     21  C   UNL     1       6.266   0.669  -3.038  0.00  0.00    +0.031 C 
ATOM     22  C   UNL     1       4.586   0.517  -4.880  0.00  0.00    +0.031 C 
ENDBRANCH   1  19
BRANCH   1  23
ATOM     23  C   UNL     1       3.050  -0.822  -2.063  0.00  0.00    +0.193 C 
BRANCH  23  24
ATOM     24  C   UNL     1       3.339  -1.234  -0.642  0.00  0.00    -0.018 A 
ATOM     25  C   UNL     1       4.584  -1.733  -0.308  0.00  0.00    +0.008 A 
ATOM     26  C   UNL     1       4.852  -2.111   0.993  0.00  0.00    +0.023 A 
ATOM     27  C   UNL     1       3.869  -1.988   1.967  0.00  0.00    +0.029 A 
ATOM     28  C   UNL     1       2.619  -1.486   1.628  0.00  0.00    +0.023 A 
ATOM     29  C   UNL     1       2.360  -1.105   0.326  0.00  0.00    +0.008 A 
BRANCH  27  30
ATOM     30  N   UNL     1       4.137  -2.370   3.283  0.00  0.00    -0.336 N 
ATOM     31  C   UNL     1       5.455  -2.900   3.639  0.00  0.00    +0.129 C 
ATOM     32  C   UNL     1       3.099  -2.239   4.309  0.00  0.00    +0.129 C 
ENDBRANCH  27  30
ENDBRANCH  23  24
BRANCH  23  34
ATOM     33  N   UNL     1       0.919  -2.077  -2.137  0.00  0.00    -0.309 N 
ATOM     34  C   UNL     1       2.119  -1.824  -2.696  0.00  0.00    +0.239 C 
ATOM     35  O   UNL     1       2.450  -2.403  -3.709  0.00  0.00    -0.273 OA
ATOM     36  H   UNL     1       0.655  -1.614  -1.326  0.00  0.00    +0.149 HD
BRANCH  33  38
ATOM     37  C   UNL     1       0.695  -4.420  -2.801  0.00  0.00    +0.031 C 
ATOM     38  C   UNL     1       0.014  -3.050  -2.752  0.00  0.00    +0.026 C 
ATOM     39  C   UNL     1      -0.328  -2.600  -4.174  0.00  0.00    +0.031 C 
ATOM     40  C   UNL     1      -1.269  -3.148  -1.925  0.00  0.00    +0.031 C 
ENDBRANCH  33  38
ENDBRANCH  23  34
ENDBRANCH   1  23
TORSDOF 10
