REMARK  Name = ZINC19535508
REMARK  9 active torsions:
REMARK  status: ('A' for Active; 'I' for Inactive)
REMARK    1  A    between atoms: C_1  and  C_2
REMARK    2  A    between atoms: C_3  and  C_23
REMARK    3  A    between atoms: C_4  and  C_16
REMARK    4  A    between atoms: C_10  and  C_14
REMARK    5  A    between atoms: C_10  and  C_15
REMARK    6  A    between atoms: C_23  and  O_25
REMARK    7  A    between atoms: O_25  and  C_26
REMARK    8  A    between atoms: C_26  and  C_27
REMARK    9  A    between atoms: C_26  and  C_28
REMARK                            x       y       z     vdW  Elec       q    Type
REMARK                         _______ _______ _______ _____ _____    ______ ____
ROOT
ATOM      1  C   UNL     1      -2.484  -2.762   0.818  0.00  0.00    +0.061 C 
ATOM      2  C   UNL     1      -1.211  -2.071   0.400  0.00  0.00    +0.016 C 
ATOM      3  C   UNL     1      -0.218  -2.783  -0.160  0.00  0.00    +0.065 C 
ATOM      4  C   UNL     1       1.066  -2.132  -0.581  0.00  0.00    +0.092 C 
ATOM      5  C   UNL     1       0.903  -0.637  -0.694  0.00  0.00    +0.024 C 
ATOM      6  C   UNL     1      -0.141  -0.011  -0.110  0.00  0.00    +0.016 C 
ATOM      7  N   UNL     1      -1.075  -0.725   0.592  0.00  0.00    -0.321 N 
ATOM      8  C   UNL     1      -0.309   1.485  -0.217  0.00  0.00    +0.058 C 
ATOM      9  C   UNL     1       1.066   2.150  -0.324  0.00  0.00    -0.023 C 
ATOM     10  C   UNL     1       1.786   1.580  -1.551  0.00  0.00    +0.086 C 
ATOM     11  C   UNL     1       1.868   0.084  -1.419  0.00  0.00    +0.162 C 
ATOM     12  O   UNL     1       2.784  -0.512  -1.950  0.00  0.00    -0.292 OA
ATOM     13  C   UNL     1       0.894   3.662  -0.484  0.00  0.00    +0.011 C 
ATOM     14  C   UNL     1       1.881   1.851   0.936  0.00  0.00    +0.011 C 
ATOM     15  H   UNL     1      -1.719  -0.204   1.315  0.00  0.00    +0.152 HD
ENDROOT
BRANCH   4  16
ATOM     16  C   UNL     1       2.132  -2.437   0.440  0.00  0.00    -0.035 A 
ATOM     17  C   UNL     1       1.982  -2.008   1.746  0.00  0.00    +0.005 A 
ATOM     18  C   UNL     1       2.957  -2.292   2.683  0.00  0.00    +0.014 A 
ATOM     19  C   UNL     1       4.088  -2.996   2.313  0.00  0.00    +0.013 A 
ATOM     20  C   UNL     1       4.241  -3.420   1.006  0.00  0.00    +0.014 A 
ATOM     21  C   UNL     1       3.263  -3.141   0.070  0.00  0.00    +0.005 A 
ATOM     22  I   UNL     1       5.569  -3.420   3.732  0.00  0.00    -0.044 I 
ENDBRANCH   4  16
BRANCH   3  23
ATOM     23  C   UNL     1      -0.387  -4.174  -0.356  0.00  0.00    +0.338 C 
ATOM     24  O   UNL     1      -0.589  -4.611  -1.473  0.00  0.00    -0.245 OA
BRANCH  23  25
ATOM     25  O   UNL     1      -0.324  -5.016   0.697  0.00  0.00    -0.459 OA
BRANCH  25  26
ATOM     26  C   UNL     1      -0.503  -6.408   0.426  0.00  0.00    +0.171 C 
ATOM     27  C   UNL     1       0.288  -7.231   1.444  0.00  0.00    +0.052 C 
ATOM     28  C   UNL     1      -1.989  -6.760   0.530  0.00  0.00    +0.052 C 
ENDBRANCH  25  26
ENDBRANCH  23  25
ENDBRANCH   3  23
TORSDOF 4
