REMARK  Name = ZINC41585331
REMARK  5 active torsions:
REMARK  status: ('A' for Active; 'I' for Inactive)
REMARK    1  A    between atoms: C_8  and  C_12
REMARK    2  A    between atoms: C_21  and  O_37
REMARK    3  A    between atoms: C_22  and  C_23
REMARK    4  A    between atoms: C_23  and  N_24
REMARK    5  A    between atoms: N_27  and  C_30
REMARK                            x       y       z     vdW  Elec       q    Type
REMARK                         _______ _______ _______ _____ _____    ______ ____
ROOT
ATOM      1  C   UNL     1       2.670  -4.145   0.285  0.00  0.00    +0.006 A 
ATOM      2  C   UNL     1       2.324  -4.909  -0.817  0.00  0.00    +0.101 A 
ATOM      3  C   UNL     1       2.445  -6.306  -0.755  0.00  0.00    +0.338 A 
ATOM      4  O   UNL     1       2.138  -6.970  -1.730  0.00  0.00    -0.245 OA
ATOM      5  O   UNL     1       2.890  -6.931   0.346  0.00  0.00    -0.422 OA
ATOM      6  C   UNL     1       3.247  -6.252   1.458  0.00  0.00    +0.148 A 
ATOM      7  C   UNL     1       3.162  -4.849   1.483  0.00  0.00    +0.026 A 
ATOM      8  C   UNL     1       3.535  -4.144   2.629  0.00  0.00    +0.016 A 
ATOM      9  C   UNL     1       3.987  -4.822   3.726  0.00  0.00    +0.046 A 
ATOM     10  C   UNL     1       4.079  -6.211   3.707  0.00  0.00    +0.125 A 
ATOM     11  C   UNL     1       3.703  -6.926   2.581  0.00  0.00    +0.051 A 
ENDROOT
BRANCH   1  19
ATOM     12  C   UNL     1       0.086   1.424   0.015  0.00  0.00    +0.001 A 
ATOM     13  C   UNL     1       1.277   2.136   0.020  0.00  0.00    +0.004 A 
ATOM     14  C   UNL     1       2.489   1.478  -0.001  0.00  0.00    +0.047 A 
ATOM     15  C   UNL     1       2.521   0.090  -0.022  0.00  0.00    +0.139 A 
ATOM     16  C   UNL     1       1.313  -0.631   0.002  0.00  0.00    +0.018 A 
ATOM     17  C   UNL     1       0.093   0.059   0.001  0.00  0.00    +0.011 A 
ATOM     18  C   UNL     1       1.338  -2.050   0.045  0.00  0.00    +0.027 A 
ATOM     19  C   UNL     1       2.557  -2.675   0.259  0.00  0.00    +0.068 A 
ATOM     20  C   UNL     1       3.736  -1.812   0.460  0.00  0.00    +0.345 A 
ATOM     21  O   UNL     1       4.704  -2.205   1.083  0.00  0.00    -0.245 OA
ATOM     22  O   UNL     1       3.704  -0.568  -0.072  0.00  0.00    -0.422 OA
ENDBRANCH   1  19
BRANCH  10  23
ATOM     23  O   UNL     1       4.530  -6.871   4.804  0.00  0.00    -0.506 OA
ATOM     24  H   UNL     1       3.834  -7.121   5.427  0.00  0.00    +0.292 HD
ENDBRANCH  10  23
BRANCH  11  25
ATOM     25  C   UNL     1       3.805  -8.429   2.571  0.00  0.00    +0.127 C 
BRANCH  25  26
ATOM     26  N   UNL     1       5.137  -8.826   2.096  0.00  0.00    -0.295 NA
ATOM     27  C   UNL     1       5.329  -8.446   0.690  0.00  0.00    +0.103 C 
ATOM     28  C   UNL     1       6.783  -8.711   0.286  0.00  0.00    +0.120 C 
ATOM     29  N   UNL     1       7.109 -10.110   0.603  0.00  0.00    -0.327 N 
ATOM     30  C   UNL     1       6.816 -10.604   1.957  0.00  0.00    +0.120 C 
ATOM     31  C   UNL     1       5.360 -10.264   2.294  0.00  0.00    +0.103 C 
BRANCH  29  32
ATOM     32  C   UNL     1       7.681 -10.947  -0.358  0.00  0.00    +0.031 A 
ATOM     33  C   UNL     1       8.085 -12.230  -0.010  0.00  0.00    +0.023 A 
ATOM     34  C   UNL     1       8.650 -13.056  -0.962  0.00  0.00    +0.003 A 
ATOM     35  C   UNL     1       8.815 -12.608  -2.260  0.00  0.00    +0.020 A 
ATOM     36  C   UNL     1       8.413 -11.331  -2.610  0.00  0.00    +0.043 A 
ATOM     37  C   UNL     1       7.842 -10.501  -1.663  0.00  0.00    +0.043 A 
ATOM     38 CL   UNL     1       8.622 -10.772  -4.240  0.00  0.00    -0.083 Cl
ENDBRANCH  29  32
ENDBRANCH  25  26
ENDBRANCH  11  25
TORSDOF 5
