REMARK  Name = ZINC13122233
REMARK  7 active torsions:
REMARK  status: ('A' for Active; 'I' for Inactive)
REMARK    1  A    between atoms: C_1  and  C_2
REMARK    2  A    between atoms: C_2  and  C_4
REMARK    3  A    between atoms: C_2  and  O_20
REMARK    4  A    between atoms: C_4  and  N_6
REMARK    5  A    between atoms: N_7  and  C_8
REMARK    6  A    between atoms: C_17  and  O_18
REMARK    7  A    between atoms: O_20  and  C_21
REMARK                            x       y       z     vdW  Elec       q    Type
REMARK                         _______ _______ _______ _____ _____    ______ ____
ROOT
ATOM      1  N   UNL     1      -2.304  -0.063  -0.881  0.00  0.00    -0.076 NA
ATOM      2  N   UNL     1      -3.561  -0.326  -0.765  0.00  0.00    -0.151 NA
ENDROOT
BRANCH   2   3
ATOM      3  C   UNL     1      -4.392  -0.071  -1.777  0.00  0.00    +0.152 A 
ATOM      4  C   UNL     1      -5.851  -0.304  -1.810  0.00  0.00    +0.032 A 
ATOM      5  C   UNL     1      -6.763  -0.817  -0.893  0.00  0.00    +0.027 A 
ATOM      6  C   UNL     1      -8.097  -0.909  -1.234  0.00  0.00    +0.019 A 
ATOM      7  C   UNL     1      -8.527  -0.492  -2.485  0.00  0.00    +0.017 A 
ATOM      8  C   UNL     1      -7.631   0.018  -3.401  0.00  0.00    +0.027 A 
ATOM      9  C   UNL     1      -6.284   0.118  -3.075  0.00  0.00    +0.051 A 
ATOM     10  N   UNL     1      -5.180   0.579  -3.776  0.00  0.00    -0.324 N 
ATOM     11  H   UNL     1      -5.207   0.928  -4.680  0.00  0.00    +0.169 HD
ATOM     12  C   UNL     1      -4.060   0.479  -3.023  0.00  0.00    +0.219 A 
ATOM     13 BR   UNL     1      -9.342  -1.606   0.007  0.00  0.00    -0.050 Br
BRANCH  12  14
ATOM     14  O   UNL     1      -2.822   0.847  -3.410  0.00  0.00    -0.492 OA
ATOM     15  H   UNL     1      -2.320   0.142  -3.844  0.00  0.00    +0.294 HD
ENDBRANCH  12  14
ENDBRANCH   2   3
BRANCH   1  16
ATOM     16  C   UNL     1      -1.469  -0.320   0.135  0.00  0.00    +0.294 C 
ATOM     17  O   UNL     1      -1.896  -0.800   1.166  0.00  0.00    -0.268 OA
BRANCH  16  19
ATOM     18  C   UNL     1       0.194   1.500  -0.137  0.00  0.00    +0.062 C 
ATOM     19  C   UNL     1       0.000  -0.012   0.000  0.00  0.00    +0.259 C 
BRANCH  19  20
ATOM     20  O   UNL     1       0.693  -0.477   1.160  0.00  0.00    -0.480 OA
BRANCH  20  21
ATOM     21  C   UNL     1       2.014  -0.764   1.016  0.00  0.00    +0.122 A 
ATOM     22  C   UNL     1       2.721  -1.330   2.067  0.00  0.00    +0.045 A 
ATOM     23  C   UNL     1       4.063  -1.621   1.917  0.00  0.00    +0.004 A 
ATOM     24  C   UNL     1       4.702  -1.348   0.722  0.00  0.00    +0.000 A 
ATOM     25  C   UNL     1       4.000  -0.783  -0.326  0.00  0.00    +0.004 A 
ATOM     26  C   UNL     1       2.656  -0.496  -0.184  0.00  0.00    +0.045 A 
ENDBRANCH  20  21
ENDBRANCH  19  20
ENDBRANCH  16  19
ENDBRANCH   1  16
TORSDOF 6
