REMARK  Name = ZINC36531339
REMARK  17 active torsions:
REMARK  status: ('A' for Active; 'I' for Inactive)
REMARK    1  A    between atoms: C_1  and  C_2
REMARK    2  A    between atoms: C_2  and  C_4
REMARK    3  A    between atoms: C_2  and  C_10
REMARK    4  A    between atoms: C_10  and  C_12
REMARK    5  A    between atoms: C_10  and  N_23
REMARK    6  A    between atoms: N_14  and  C_15
REMARK    7  A    between atoms: C_15  and  C_16
REMARK    8  A    between atoms: C_15  and  C_17
REMARK    9  A    between atoms: C_15  and  C_18
REMARK   10  A    between atoms: C_18  and  C_19
REMARK   11  A    between atoms: C_19  and  C_20
REMARK   12  A    between atoms: C_19  and  C_21
REMARK   13  A    between atoms: C_19  and  C_22
REMARK   14  A    between atoms: N_23  and  C_24
REMARK   15  A    between atoms: C_25  and  C_27
REMARK   16  A    between atoms: C_31  and  O_34
REMARK   17  A    between atoms: C_32  and  O_33
REMARK                            x       y       z     vdW  Elec       q    Type
REMARK                         _______ _______ _______ _____ _____    ______ ____
ROOT
ATOM      1  C   UNL     1       2.585  -2.004  -1.060  0.00  0.00    +0.169 C 
ENDROOT
BRANCH   1   2
ATOM      2  C   UNL     1       1.396  -2.761  -0.527  0.00  0.00    +0.235 C 
ATOM      3  O   UNL     1       0.392  -2.865  -1.200  0.00  0.00    -0.274 OA
ATOM      4  N   UNL     1       1.448  -3.322   0.697  0.00  0.00    -0.309 N 
ATOM      5  H   UNL     1       2.269  -3.287   1.212  0.00  0.00    +0.149 HD
BRANCH   4   6
ATOM      6  C   UNL     1       0.265  -3.986   1.250  0.00  0.00    +0.030 C 
ATOM      7  C   UNL     1      -0.634  -2.947   1.924  0.00  0.00    +0.031 C 
ATOM      8  C   UNL     1      -0.508  -4.673   0.122  0.00  0.00    +0.031 C 
BRANCH   6   9
ATOM      9  C   UNL     1       0.700  -5.030   2.280  0.00  0.00    +0.031 C 
BRANCH   9  10
ATOM     10  C   UNL     1       2.136  -5.469   1.985  0.00  0.00    -0.036 C 
ATOM     11  C   UNL     1       3.110  -4.412   2.509  0.00  0.00    +0.010 C 
ATOM     12  C   UNL     1       2.412  -6.805   2.678  0.00  0.00    +0.010 C 
ATOM     13  C   UNL     1       2.321  -5.630   0.475  0.00  0.00    +0.010 C 
ENDBRANCH   9  10
ENDBRANCH   6   9
ENDBRANCH   4   6
ENDBRANCH   1   2
BRANCH   1  14
ATOM     14  N   UNL     1       2.370  -1.691  -2.475  0.00  0.00    -0.288 N 
ATOM     15  C   UNL     1       1.222  -0.876  -2.879  0.00  0.00    +0.133 C 
ATOM     16  C   UNL     1       3.229  -2.153  -3.406  0.00  0.00    +0.251 C 
ATOM     17  O   UNL     1       4.126  -2.907  -3.084  0.00  0.00    -0.270 OA
BRANCH  16  18
ATOM     18  C   UNL     1       3.080  -1.742  -4.815  0.00  0.00    +0.082 A 
ATOM     19  C   UNL     1       3.018  -0.386  -5.149  0.00  0.00    +0.017 A 
ATOM     20  C   UNL     1       2.879  -0.007  -6.466  0.00  0.00    +0.005 A 
ATOM     21  C   UNL     1       2.801  -0.964  -7.466  0.00  0.00    +0.049 A 
ATOM     22  C   UNL     1       2.862  -2.310  -7.151  0.00  0.00    +0.159 A 
ATOM     23  C   UNL     1       3.007  -2.709  -5.825  0.00  0.00    +0.171 A 
BRANCH  23  24
ATOM     24  O   UNL     1       3.073  -4.028  -5.513  0.00  0.00    -0.503 OA
ATOM     25  H   UNL     1       2.213  -4.434  -5.336  0.00  0.00    +0.292 HD
ENDBRANCH  23  24
BRANCH  22  26
ATOM     26  O   UNL     1       2.784  -3.244  -8.137  0.00  0.00    -0.503 OA
ATOM     27  H   UNL     1       3.641  -3.494  -8.509  0.00  0.00    +0.292 HD
ENDBRANCH  22  26
ENDBRANCH  16  18
ENDBRANCH   1  14
BRANCH   1  29
ATOM     28  C   UNL     1       3.711   0.226  -1.024  0.00  0.00    +0.015 C 
ATOM     29  C   UNL     1       2.759  -0.705  -0.271  0.00  0.00    +0.045 C 
BRANCH  29  30
ATOM     30  C   UNL     1       3.330  -1.016   1.088  0.00  0.00    -0.042 A 
ATOM     31  C   UNL     1       4.547  -1.661   1.196  0.00  0.00    +0.004 A 
ATOM     32  C   UNL     1       5.071  -1.946   2.443  0.00  0.00    +0.000 A 
ATOM     33  C   UNL     1       4.378  -1.585   3.583  0.00  0.00    +0.000 A 
ATOM     34  C   UNL     1       3.160  -0.939   3.475  0.00  0.00    +0.000 A 
ATOM     35  C   UNL     1       2.638  -0.650   2.228  0.00  0.00    +0.004 A 
ENDBRANCH  29  30
ENDBRANCH   1  29
TORSDOF 10
