REMARK  Name = ZINC04425830
REMARK  16 active torsions:
REMARK  status: ('A' for Active; 'I' for Inactive)
REMARK    1  A    between atoms: C_1  and  C_2
REMARK    2  A    between atoms: C_2  and  N_64
REMARK    3  A    between atoms: C_3  and  C_4
REMARK    4  A    between atoms: C_3  and  N_64
REMARK    5  A    between atoms: C_5  and  C_6
REMARK    6  A    between atoms: C_5  and  N_64
REMARK    7  A    between atoms: C_6  and  C_7
REMARK    8  A    between atoms: C_11  and  C_31
REMARK    9  A    between atoms: C_13  and  C_23
REMARK   10  A    between atoms: C_14  and  C_19
REMARK   11  A    between atoms: C_19  and  O_21
REMARK   12  A    between atoms: O_21  and  C_22
REMARK   13  A    between atoms: C_26  and  O_29
REMARK   14  A    between atoms: O_29  and  C_30
REMARK   15  A    between atoms: C_31  and  O_33
REMARK   16  A    between atoms: O_33  and  C_34
REMARK                            x       y       z     vdW  Elec       q    Type
REMARK                         _______ _______ _______ _____ _____    ______ ____
ROOT
ATOM      1  C   UNL     1      -0.011   4.444  -1.742  0.00  0.00    +0.270 C 
ATOM      2  S   UNL     1      -1.777   4.040  -1.860  0.00  0.00    +0.005 S 
ATOM      3  O   UNL     1      -2.526   5.178  -1.454  0.00  0.00    -0.172 OA
ATOM      4  O   UNL     1      -2.024   3.469  -3.137  0.00  0.00    -0.172 OA
ATOM      5  C   UNL     1      -1.974   2.747  -0.605  0.00  0.00    +0.250 C 
ATOM      6  C   UNL     1      -1.652   3.305   0.777  0.00  0.00    +0.089 C 
ATOM      7  C   UNL     1      -0.153   3.529   0.935  0.00  0.00    +0.250 C 
ATOM      8  S   UNL     1       0.369   4.962  -0.045  0.00  0.00    +0.005 S 
ATOM      9  O   UNL     1      -0.466   6.063   0.287  0.00  0.00    -0.172 OA
ATOM     10  O   UNL     1       1.778   5.102   0.078  0.00  0.00    -0.172 OA
ENDROOT
BRANCH   6  11
ATOM     11  C   UNL     1      -2.372   4.617   0.961  0.00  0.00    -0.039 A 
ATOM     12  C   UNL     1      -3.572   4.842   0.312  0.00  0.00    +0.007 A 
ATOM     13  C   UNL     1      -4.236   6.041   0.484  0.00  0.00    +0.046 A 
ATOM     14  C   UNL     1      -3.692   7.024   1.298  0.00  0.00    +0.120 A 
ATOM     15  C   UNL     1      -2.485   6.797   1.943  0.00  0.00    +0.046 A 
ATOM     16  C   UNL     1      -1.827   5.594   1.773  0.00  0.00    +0.007 A 
BRANCH  14  17
ATOM     17  O   UNL     1      -4.341   8.206   1.464  0.00  0.00    -0.495 OA
ATOM     18  C   UNL     1      -5.579   8.370   0.770  0.00  0.00    +0.277 C 
ENDBRANCH  14  17
ENDBRANCH   6  11
BRANCH   7  19
ATOM     19  C   UNL     1       0.166   3.777   2.387  0.00  0.00    +0.332 C 
ATOM     20  O   UNL     1      -0.725   4.008   3.170  0.00  0.00    -0.249 OA
BRANCH  19  21
ATOM     21  O   UNL     1       1.439   3.742   2.811  0.00  0.00    -0.467 OA
ATOM     22  C   UNL     1       1.671   3.990   4.222  0.00  0.00    +0.280 C 
ENDBRANCH  19  21
ENDBRANCH   7  19
BRANCH   5  23
ATOM     23  C   UNL     1      -3.394   2.245  -0.623  0.00  0.00    +0.332 C 
ATOM     24  O   UNL     1      -4.091   2.368   0.357  0.00  0.00    -0.249 OA
BRANCH  23  25
ATOM     25  O   UNL     1      -3.886   1.661  -1.727  0.00  0.00    -0.467 OA
ATOM     26  C   UNL     1      -5.262   1.202  -1.673  0.00  0.00    +0.280 C 
ENDBRANCH  23  25
ENDBRANCH   5  23
BRANCH   1  27
ATOM     27  C   UNL     1       0.320   5.581  -2.711  0.00  0.00    +0.031 C 
BRANCH  27  28
ATOM     28  C   UNL     1       0.117   5.101  -4.150  0.00  0.00    -0.075 C 
BRANCH  28  29
ATOM     29  N   UNL     1       0.419   6.216  -5.071  0.00  0.00    +0.379 N 
ATOM     30  H   UNL     1      -0.115   7.043  -4.781  0.00  0.00    -0.082 HD
BRANCH  29  32
ATOM     31  C   UNL     1       2.693   5.326  -5.456  0.00  0.00    -0.017 C 
ATOM     32  C   UNL     1       1.862   6.535  -5.023  0.00  0.00    -0.082 C 
ENDBRANCH  29  32
BRANCH  29  33
ATOM     33  C   UNL     1       0.028   5.852  -6.450  0.00  0.00    -0.082 C 
ATOM     34  C   UNL     1       0.119   7.098  -7.333  0.00  0.00    -0.017 C 
ENDBRANCH  29  33
ENDBRANCH  28  29
ENDBRANCH  27  28
ENDBRANCH   1  27
TORSDOF 11
