REMARK  Name = ZINC35747606
REMARK  12 active torsions:
REMARK  status: ('A' for Active; 'I' for Inactive)
REMARK    1  A    between atoms: C_1  and  C_2
REMARK    2  A    between atoms: C_2  and  C_3
REMARK    3  A    between atoms: C_2  and  N_4
REMARK    4  A    between atoms: N_4  and  C_5
REMARK    5  A    between atoms: N_4  and  C_24
REMARK    6  A    between atoms: C_5  and  C_6
REMARK    7  A    between atoms: C_12  and  C_17
REMARK    8  A    between atoms: C_24  and  C_25
REMARK    9  A    between atoms: C_25  and  C_27
REMARK   10  A    between atoms: C_25  and  O_36
REMARK   11  A    between atoms: C_27  and  O_28
REMARK   12  A    between atoms: O_28  and  C_29
REMARK                            x       y       z     vdW  Elec       q    Type
REMARK                         _______ _______ _______ _____ _____    ______ ____
ROOT
ATOM      1  C   UNL     1      -1.215  -2.058  -0.262  0.00  0.00    -0.003 C 
ENDROOT
BRANCH   1   2
ATOM      2  C   UNL     1      -0.292  -2.671   0.758  0.00  0.00    +0.094 A 
ATOM      3  N   UNL     1      -0.109  -4.016   0.770  0.00  0.00    -0.312 N 
ATOM      4  H   UNL     1      -0.575  -4.565   0.120  0.00  0.00    +0.170 HD
ATOM      5  C   UNL     1       0.707  -4.604   1.665  0.00  0.00    +0.260 A 
ATOM      6  O   UNL     1       0.861  -5.813   1.662  0.00  0.00    -0.267 OA
ATOM      7  C   UNL     1       1.392  -3.787   2.620  0.00  0.00    +0.080 A 
ATOM      8  C   UNL     1       2.317  -4.180   3.676  0.00  0.00    +0.004 A 
ATOM      9  C   UNL     1       2.848  -3.218   4.468  0.00  0.00    +0.056 A 
ATOM     10  S   UNL     1       2.129  -1.716   3.833  0.00  0.00    -0.076 S 
ATOM     11  C   UNL     1       1.141  -2.408   2.532  0.00  0.00    +0.116 A 
ATOM     12  N   UNL     1       0.323  -1.899   1.614  0.00  0.00    -0.229 NA
BRANCH   8  13
ATOM     13  C   UNL     1       2.668  -5.606   3.880  0.00  0.00    -0.015 A 
ATOM     14  C   UNL     1       1.663  -6.569   3.967  0.00  0.00    +0.008 A 
ATOM     15  C   UNL     1       1.996  -7.894   4.156  0.00  0.00    +0.002 A 
ATOM     16  C   UNL     1       3.323  -8.269   4.261  0.00  0.00    +0.020 A 
ATOM     17  C   UNL     1       4.326  -7.318   4.175  0.00  0.00    +0.042 A 
ATOM     18  C   UNL     1       4.004  -5.989   3.979  0.00  0.00    +0.028 A 
ATOM     19 CL   UNL     1       5.989  -7.798   4.307  0.00  0.00    -0.084 Cl
ENDBRANCH   8  13
ENDBRANCH   1   2
BRANCH   1  20
ATOM     20  N   UNL     1      -1.114  -0.594  -0.197  0.00  0.00    +0.388 N 
ATOM     21  H   UNL     1      -0.988  -0.308   0.762  0.00  0.00    -0.081 HD
BRANCH  20  23
ATOM     22  C   UNL     1       1.317  -0.760  -0.436  0.00  0.00    -0.014 C 
ATOM     23  C   UNL     1       0.034  -0.146  -0.997  0.00  0.00    -0.074 C 
ATOM     24  C   UNL     1      -0.152  -0.591  -2.449  0.00  0.00    -0.014 C 
ENDBRANCH  20  23
BRANCH  20  25
ATOM     25  C   UNL     1      -2.345   0.006  -0.728  0.00  0.00    -0.043 C 
BRANCH  25  26
ATOM     26  C   UNL     1      -2.313   1.519  -0.504  0.00  0.00    +0.135 C 
BRANCH  26  27
ATOM     27  O   UNL     1      -2.239   1.791   0.897  0.00  0.00    -0.390 OA
ATOM     28  H   UNL     1      -2.984   1.443   1.406  0.00  0.00    +0.210 HD
ENDBRANCH  26  27
BRANCH  26  29
ATOM     29  C   UNL     1      -3.585   2.147  -1.078  0.00  0.00    +0.258 C 
BRANCH  29  30
ATOM     30  O   UNL     1      -3.503   3.570  -0.973  0.00  0.00    -0.489 OA
BRANCH  30  31
ATOM     31  C   UNL     1      -4.559   4.285  -1.442  0.00  0.00    +0.121 A 
ATOM     32  C   UNL     1      -5.655   3.631  -1.986  0.00  0.00    +0.047 A 
ATOM     33  C   UNL     1      -6.728   4.359  -2.462  0.00  0.00    +0.023 A 
ATOM     34  C   UNL     1      -6.710   5.741  -2.396  0.00  0.00    +0.041 A 
ATOM     35  C   UNL     1      -5.618   6.396  -1.854  0.00  0.00    +0.023 A 
ATOM     36  C   UNL     1      -4.546   5.670  -1.371  0.00  0.00    +0.047 A 
ATOM     37 CL   UNL     1      -8.059   6.655  -2.995  0.00  0.00    -0.084 Cl
ENDBRANCH  30  31
ENDBRANCH  29  30
ENDBRANCH  26  29
ENDBRANCH  25  26
ENDBRANCH  20  25
ENDBRANCH   1  20
TORSDOF 10
