REMARK  Name = ZINC67472773
REMARK  10 active torsions:
REMARK  status: ('A' for Active; 'I' for Inactive)
REMARK    1  A    between atoms: C_1  and  C_2
REMARK    2  A    between atoms: C_3  and  C_20
REMARK    3  A    between atoms: C_4  and  C_18
REMARK    4  A    between atoms: C_7  and  C_8
REMARK    5  A    between atoms: C_13  and  C_15
REMARK    6  A    between atoms: C_13  and  C_16
REMARK    7  A    between atoms: C_25  and  O_26
REMARK    8  A    between atoms: O_26  and  C_27
REMARK    9  A    between atoms: C_27  and  C_28
REMARK   10  A    between atoms: C_28  and  O_29
REMARK                            x       y       z     vdW  Elec       q    Type
REMARK                         _______ _______ _______ _____ _____    ______ ____
ROOT
ATOM      1  C   UNL     1      -0.031   1.503   0.012  0.00  0.00    +0.046 C 
ATOM      2  C   UNL     1      -0.004  -0.004   0.003  0.00  0.00    -0.020 A 
ATOM      3  C   UNL     1      -0.105  -0.704  -1.202  0.00  0.00    +0.011 A 
ATOM      4  C   UNL     1      -0.075  -2.114  -1.157  0.00  0.00    +0.099 A 
ATOM      5  C   UNL     1       0.055  -2.744   0.092  0.00  0.00    +0.135 A 
ATOM      6  N   UNL     1       0.146  -2.025   1.200  0.00  0.00    -0.235 NA
ATOM      7  C   UNL     1       0.127  -0.705   1.183  0.00  0.00    +0.050 A 
ATOM      8  N   UNL     1       0.087  -4.126   0.165  0.00  0.00    -0.342 N 
ATOM      9  H   UNL     1       0.021  -4.656  -0.644  0.00  0.00    +0.144 HD
ATOM     10  H   UNL     1       0.177  -4.564   1.026  0.00  0.00    +0.144 HD
ENDROOT
BRANCH   7  11
ATOM     11  C   UNL     1       0.242   0.051   2.481  0.00  0.00    +0.043 C 
ATOM     12  C   UNL     1      -0.840  -0.430   3.453  0.00  0.00    +0.038 C 
ATOM     13  C   UNL     1      -0.666   0.286   4.795  0.00  0.00    +0.161 C 
ATOM     14  O   UNL     1       0.646   0.034   5.301  0.00  0.00    -0.374 OA
ATOM     15  C   UNL     1       1.698   0.505   4.457  0.00  0.00    +0.065 C 
ATOM     16  C   UNL     1       1.620  -0.201   3.101  0.00  0.00    +0.044 C 
ATOM     17  C   UNL     1       3.049   0.207   5.110  0.00  0.00    +0.041 C 
ATOM     18  C   UNL     1       1.552   2.014   4.253  0.00  0.00    +0.041 C 
ENDBRANCH   7  11
BRANCH   3  19
ATOM     19  C   UNL     1      -0.241   0.013  -2.490  0.00  0.00    +0.025 A 
ATOM     20  C   UNL     1       0.895   0.369  -3.217  0.00  0.00    +0.012 A 
ATOM     21  C   UNL     1       0.762   1.037  -4.417  0.00  0.00    +0.001 A 
ATOM     22  C   UNL     1      -0.494   1.355  -4.903  0.00  0.00    +0.004 A 
ATOM     23  C   UNL     1      -1.627   1.006  -4.192  0.00  0.00    +0.046 A 
ATOM     24  C   UNL     1      -1.510   0.331  -2.988  0.00  0.00    +0.128 A 
BRANCH  24  25
ATOM     25  O   UNL     1      -2.622  -0.017  -2.291  0.00  0.00    -0.489 OA
BRANCH  25  26
ATOM     26  C   UNL     1      -3.883   0.340  -2.861  0.00  0.00    +0.257 C 
BRANCH  26  27
ATOM     27  C   UNL     1      -5.011  -0.131  -1.940  0.00  0.00    +0.196 C 
BRANCH  27  28
ATOM     28  O   UNL     1      -4.941   0.577  -0.701  0.00  0.00    -0.392 OA
ATOM     29  H   UNL     1      -5.628   0.329  -0.067  0.00  0.00    +0.210 HD
ENDBRANCH  27  28
ENDBRANCH  26  27
ENDBRANCH  25  26
ENDBRANCH  24  25
ENDBRANCH   3  19
BRANCH   4  30
ATOM     30  C   UNL     1      -0.175  -2.887  -2.358  0.00  0.00    +0.103 C 
ATOM     31  N   UNL     1      -0.254  -3.500  -3.311  0.00  0.00    -0.191 NA
ENDBRANCH   4  30
TORSDOF 7
