REMARK  Name = ZINC02128624
REMARK  5 active torsions:
REMARK  status: ('A' for Active; 'I' for Inactive)
REMARK    1  A    between atoms: C_1  and  C_2
REMARK    2  A    between atoms: C_13  and  C_32
REMARK    3  A    between atoms: N_20  and  C_23
REMARK    4  A    between atoms: C_23  and  C_24
REMARK    5  A    between atoms: C_24  and  C_25
REMARK                            x       y       z     vdW  Elec       q    Type
REMARK                         _______ _______ _______ _____ _____    ______ ____
ROOT
ATOM      1  C   UNL     1       6.491   1.196   1.345  0.00  0.00    +0.048 C 
ATOM      2  C   UNL     1       5.995   0.790  -0.043  0.00  0.00    +0.151 C 
ATOM      3  C   UNL     1       4.484   0.772  -0.036  0.00  0.00    +0.054 A 
ATOM      4  C   UNL     1       3.759  -0.368  -0.037  0.00  0.00    -0.008 A 
ATOM      5  C   UNL     1       2.363   0.020  -0.020  0.00  0.00    +0.004 A 
ATOM      6  C   UNL     1       1.175  -0.718  -0.013  0.00  0.00    +0.010 A 
ATOM      7  C   UNL     1       0.002  -0.004   0.002  0.00  0.00    +0.001 A 
ATOM      8  C   UNL     1      -0.017   1.381   0.010  0.00  0.00    +0.002 A 
ATOM      9  C   UNL     1       1.144   2.136   0.003  0.00  0.00    +0.026 A 
ATOM     10  C   UNL     1       2.350   1.438  -0.012  0.00  0.00    +0.047 A 
ATOM     11  N   UNL     1       3.649   1.857  -0.023  0.00  0.00    -0.356 N 
ATOM     12  H   UNL     1       3.937   2.783  -0.021  0.00  0.00    +0.166 HD
ATOM     13  C   UNL     1       4.345  -1.756  -0.058  0.00  0.00    +0.069 C 
ATOM     14  C   UNL     1       5.816  -1.687   0.368  0.00  0.00    +0.122 C 
ATOM     15  N   UNL     1       6.463  -0.565  -0.336  0.00  0.00    -0.280 N 
ATOM     16  C   UNL     1       7.443  -0.815  -1.207  0.00  0.00    +0.234 C 
ATOM     17  O   UNL     1       7.861  -1.952  -1.280  0.00  0.00    -0.274 OA
ATOM     18  C   UNL     1       8.060   0.214  -2.097  0.00  0.00    +0.203 C 
ATOM     19  N   UNL     1       7.432   1.516  -1.948  0.00  0.00    -0.290 N 
ATOM     20  C   UNL     1       6.502   1.787  -1.032  0.00  0.00    +0.245 C 
ATOM     21  O   UNL     1       6.041   2.908  -1.000  0.00  0.00    -0.273 OA
ENDROOT
BRANCH  13  22
ATOM     22  C   UNL     1       3.584  -2.639   0.898  0.00  0.00    -0.038 A 
ATOM     23  C   UNL     1       3.538  -2.322   2.243  0.00  0.00    +0.006 A 
ATOM     24  C   UNL     1       2.836  -3.127   3.120  0.00  0.00    +0.020 A 
ATOM     25  C   UNL     1       2.189  -4.257   2.653  0.00  0.00    +0.041 A 
ATOM     26  C   UNL     1       2.240  -4.577   1.308  0.00  0.00    +0.020 A 
ATOM     27  C   UNL     1       2.938  -3.768   0.431  0.00  0.00    +0.006 A 
ATOM     28 CL   UNL     1       1.312  -5.273   3.754  0.00  0.00    -0.084 Cl
ENDBRANCH  13  22
BRANCH  19  29
ATOM     29  C   UNL     1       7.843   2.591  -2.854  0.00  0.00    +0.113 C 
BRANCH  29  30
ATOM     30  C   UNL     1       6.956   2.575  -4.101  0.00  0.00    +0.057 C 
BRANCH  30  31
ATOM     31  C   UNL     1       7.379   3.680  -5.033  0.00  0.00    -0.011 A 
ATOM     32  C   UNL     1       8.180   3.396  -6.123  0.00  0.00    +0.006 A 
ATOM     33  C   UNL     1       8.568   4.410  -6.979  0.00  0.00    +0.000 A 
ATOM     34  C   UNL     1       8.155   5.709  -6.746  0.00  0.00    +0.003 A 
ATOM     35  C   UNL     1       7.354   5.995  -5.657  0.00  0.00    +0.038 A 
ATOM     36  C   UNL     1       6.961   4.979  -4.801  0.00  0.00    +0.127 A 
ATOM     37  F   UNL     1       6.174   5.257  -3.739  0.00  0.00    -0.205 F 
ENDBRANCH  30  31
ENDBRANCH  29  30
ENDBRANCH  19  29
TORSDOF 4
