REMARK  Name = ZINC04223399
REMARK  9 active torsions:
REMARK  status: ('A' for Active; 'I' for Inactive)
REMARK    1  A    between atoms: C_1  and  C_2
REMARK    2  A    between atoms: C_2  and  O_3
REMARK    3  A    between atoms: O_3  and  C_4
REMARK    4  A    between atoms: C_4  and  C_6
REMARK    5  A    between atoms: C_10  and  N_11
REMARK    6  A    between atoms: C_12  and  C_14
REMARK    7  A    between atoms: C_25  and  C_26
REMARK    8  A    between atoms: C_25  and  C_27
REMARK    9  A    between atoms: C_25  and  N_50
REMARK                            x       y       z     vdW  Elec       q    Type
REMARK                         _______ _______ _______ _____ _____    ______ ____
ROOT
ATOM      1  C   UNL     1       1.244   1.962   0.001  0.00  0.00    +0.091 A 
ATOM      2  C   UNL     1       1.879   2.354  -1.243  0.00  0.00    -0.025 A 
ATOM      3  C   UNL     1       3.037   3.040  -1.109  0.00  0.00    -0.021 A 
ATOM      4  S   UNL     1       3.285   3.170   0.637  0.00  0.00    -0.079 S 
ATOM      5  C   UNL     1       1.872   2.330   1.185  0.00  0.00    +0.086 A 
ATOM      6  C   UNL     1       3.894   3.561  -2.220  0.00  0.00    -0.035 C 
ATOM      7  C   UNL     1       2.016   2.977  -3.634  0.00  0.00    -0.073 C 
ATOM      8  C   UNL     1       1.329   2.045  -2.631  0.00  0.00    +0.018 C 
ATOM      9  N   UNL     1       3.481   2.879  -3.470  0.00  0.00    +0.384 N 
ATOM     10  H   UNL     1       3.745   1.888  -3.414  0.00  0.00    -0.081 HD
ENDROOT
BRANCH   5  11
ATOM     11  N   UNL     1       1.469   2.083   2.486  0.00  0.00    -0.275 N 
ATOM     12  C   UNL     1       2.216   2.522   3.518  0.00  0.00    +0.254 C 
ATOM     13  O   UNL     1       3.244   3.135   3.307  0.00  0.00    -0.270 OA
ATOM     14  H   UNL     1       0.648   1.593   2.655  0.00  0.00    +0.156 HD
BRANCH  12  15
ATOM     15  C   UNL     1       1.786   2.259   4.904  0.00  0.00    +0.107 A 
ATOM     16  C   UNL     1       2.195   1.091   5.558  0.00  0.00    +0.138 A 
ATOM     17  C   UNL     1       1.791   0.854   6.859  0.00  0.00    +0.039 A 
ATOM     18  C   UNL     1       0.977   1.763   7.510  0.00  0.00    +0.006 A 
ATOM     19  C   UNL     1       0.563   2.917   6.870  0.00  0.00    +0.039 A 
ATOM     20  C   UNL     1       0.962   3.172   5.571  0.00  0.00    +0.138 A 
ATOM     21  F   UNL     1       0.557   4.300   4.947  0.00  0.00    -0.205 F 
ATOM     22  F   UNL     1       2.986   0.200   4.922  0.00  0.00    -0.205 F 
ENDBRANCH  12  15
ENDBRANCH   5  11
BRANCH   9  23
ATOM     23  C   UNL     1       4.162   3.493  -4.631  0.00  0.00    -0.074 C 
ATOM     24  C   UNL     1       5.670   3.514  -4.372  0.00  0.00    -0.014 C 
ATOM     25  C   UNL     1       3.869   2.655  -5.877  0.00  0.00    -0.014 C 
ENDBRANCH   9  23
BRANCH   1  26
ATOM     26  C   UNL     1      -0.014   1.212   0.009  0.00  0.00    +0.342 C 
ATOM     27  O   UNL     1       0.002  -0.004   0.002  0.00  0.00    -0.245 OA
BRANCH  26  28
ATOM     28  O   UNL     1      -1.192   1.871   0.018  0.00  0.00    -0.461 OA
BRANCH  28  30
ATOM     29  C   UNL     1      -3.624   1.979   0.030  0.00  0.00    +0.048 C 
ATOM     30  C   UNL     1      -2.398   1.063   0.019  0.00  0.00    +0.229 C 
ENDBRANCH  28  30
ENDBRANCH  26  28
ENDBRANCH   1  26
TORSDOF 6
