REMARK  Name = ZINC64023793
REMARK  7 active torsions:
REMARK  status: ('A' for Active; 'I' for Inactive)
REMARK    1  A    between atoms: C_1  and  C_2
REMARK    2  A    between atoms: C_3  and  C_10
REMARK    3  A    between atoms: N_6  and  C_8
REMARK    4  A    between atoms: C_10  and  N_11
REMARK    5  A    between atoms: C_24  and  C_26
REMARK    6  A    between atoms: C_31  and  O_32
REMARK    7  A    between atoms: O_32  and  C_33
REMARK                            x       y       z     vdW  Elec       q    Type
REMARK                         _______ _______ _______ _____ _____    ______ ____
ROOT
ATOM      1  N   UNL     1      -3.052  -0.301  -1.130  0.00  0.00    -0.289 NA
ATOM      2  C   UNL     1      -2.136   0.653  -1.760  0.00  0.00    +0.090 C 
ATOM      3  C   UNL     1      -2.251   0.569  -3.294  0.00  0.00    +0.049 C 
ATOM      4  C   UNL     1      -3.724   0.657  -3.610  0.00  0.00    -0.035 C 
ATOM      5  C   UNL     1      -4.410   1.405  -4.463  0.00  0.00    -0.001 A 
ATOM      6  C   UNL     1      -3.981   2.334  -5.521  0.00  0.00    +0.010 A 
ATOM      7  C   UNL     1      -4.972   2.966  -6.202  0.00  0.00    +0.001 A 
ATOM      8  C   UNL     1      -6.332   2.770  -5.940  0.00  0.00    +0.002 A 
ATOM      9  C   UNL     1      -6.817   1.927  -4.994  0.00  0.00    +0.026 A 
ATOM     10  C   UNL     1      -5.870   1.197  -4.218  0.00  0.00    +0.043 A 
ATOM     11  N   UNL     1      -6.054   0.314  -3.281  0.00  0.00    -0.376 N 
ATOM     12  C   UNL     1      -4.748  -0.199  -2.871  0.00  0.00    +0.128 C 
ATOM     13  C   UNL     1      -4.471   0.000  -1.380  0.00  0.00    +0.117 C 
ATOM     14  H   UNL     1      -6.910   0.042  -2.916  0.00  0.00    +0.160 HD
ENDROOT
BRANCH  13  15
ATOM     15  C   UNL     1      -4.763   1.427  -0.994  0.00  0.00    +0.014 A 
ATOM     16  C   UNL     1      -4.171   2.466  -1.688  0.00  0.00    +0.009 A 
ATOM     17  C   UNL     1      -4.438   3.775  -1.335  0.00  0.00    +0.001 A 
ATOM     18  C   UNL     1      -5.297   4.050  -0.286  0.00  0.00    +0.004 A 
ATOM     19  C   UNL     1      -5.891   3.015   0.410  0.00  0.00    +0.046 A 
ATOM     20  C   UNL     1      -5.629   1.700   0.054  0.00  0.00    +0.125 A 
BRANCH  20  21
ATOM     21  O   UNL     1      -6.216   0.681   0.735  0.00  0.00    -0.495 OA
ATOM     22  C   UNL     1      -7.097   1.036   1.802  0.00  0.00    +0.277 C 
ENDBRANCH  20  21
ENDBRANCH  13  15
BRANCH   1  23
ATOM     23  C   UNL     1      -2.784  -0.416   0.310  0.00  0.00    +0.120 C 
BRANCH  23  26
ATOM     24  C   UNL     1      -0.256   1.244   0.790  0.00  0.00    +0.062 C 
ATOM     25  C   UNL     1      -0.299  -0.262   0.728  0.00  0.00    +0.019 C 
ATOM     26  C   UNL     1      -1.395  -0.962   0.520  0.00  0.00    -0.005 C 
ATOM     27  C   UNL     1      -0.991  -2.421   0.533  0.00  0.00    +0.195 C 
ATOM     28  N   UNL     1       0.465  -2.393   0.776  0.00  0.00    -0.211 NA
ATOM     29  N   UNL     1       0.808  -1.075   0.876  0.00  0.00    -0.281 N 
ATOM     30  C   UNL     1       1.195  -3.039  -0.323  0.00  0.00    +0.129 C 
ATOM     31 CL   UNL     1      -1.354  -3.190  -1.057  0.00  0.00    -0.098 Cl
ATOM     32  H   UNL     1       1.709  -0.752   1.032  0.00  0.00    +0.166 HD
ENDBRANCH  23  26
ENDBRANCH   1  23
TORSDOF 4
