REMARK  Name = ZINC40155747
REMARK  11 active torsions:
REMARK  status: ('A' for Active; 'I' for Inactive)
REMARK    1  A    between atoms: C_1  and  C_2
REMARK    2  A    between atoms: C_2  and  C_4
REMARK    3  A    between atoms: C_2  and  N_11
REMARK    4  A    between atoms: C_12  and  C_14
REMARK    5  A    between atoms: C_14  and  N_15
REMARK    6  A    between atoms: N_15  and  C_16
REMARK    7  A    between atoms: C_16  and  C_18
REMARK    8  A    between atoms: C_16  and  C_23
REMARK    9  A    between atoms: C_23  and  C_24
REMARK   10  A    between atoms: C_23  and  C_25
REMARK   11  A    between atoms: C_23  and  C_26
REMARK                            x       y       z     vdW  Elec       q    Type
REMARK                         _______ _______ _______ _____ _____    ______ ____
ROOT
ATOM      1  C   UNL     1       0.737  -1.182  -3.597  0.00  0.00    +0.016 C 
ENDROOT
BRANCH   1   3
ATOM      2  N   UNL     1       0.736  -0.640  -1.183  0.00  0.00    -0.310 N 
ATOM      3  C   UNL     1       0.055  -0.693  -2.345  0.00  0.00    +0.196 C 
ATOM      4  O   UNL     1      -1.107  -0.347  -2.383  0.00  0.00    -0.278 OA
ATOM      5  H   UNL     1       1.665  -0.917  -1.153  0.00  0.00    +0.149 HD
BRANCH   2   7
ATOM      6  C   UNL     1       0.146   1.363   0.091  0.00  0.00    +0.033 C 
ATOM      7  C   UNL     1       0.073  -0.165   0.034  0.00  0.00    +0.100 C 
BRANCH   7   8
ATOM      8  C   UNL     1       0.762  -0.746   1.241  0.00  0.00    -0.027 A 
ATOM      9  C   UNL     1       2.141  -0.842   1.270  0.00  0.00    +0.006 A 
ATOM     10  C   UNL     1       2.774  -1.375   2.378  0.00  0.00    +0.015 A 
ATOM     11  C   UNL     1       2.027  -1.812   3.457  0.00  0.00    +0.018 A 
ATOM     12  C   UNL     1       0.647  -1.716   3.427  0.00  0.00    +0.015 A 
ATOM     13  C   UNL     1       0.016  -1.178   2.322  0.00  0.00    +0.006 A 
ATOM     14 BR   UNL     1       2.892  -2.542   4.972  0.00  0.00    -0.050 Br
ENDBRANCH   7   8
ENDBRANCH   2   7
ENDBRANCH   1   3
BRANCH   1  15
ATOM     15  N   UNL     1      -0.212  -1.144  -4.718  0.00  0.00    +0.390 N 
ATOM     16  H   UNL     1      -0.960  -1.800  -4.548  0.00  0.00    -0.084 HD
ATOM     17  H   UNL     1      -0.593  -0.214  -4.804  0.00  0.00    -0.084 HD
BRANCH  15  18
ATOM     18  C   UNL     1       0.483  -1.506  -5.960  0.00  0.00    -0.028 C 
BRANCH  18  19
ATOM     19  C   UNL     1       0.928  -2.944  -5.886  0.00  0.00    -0.024 A 
ATOM     20  C   UNL     1       2.091  -3.501  -6.305  0.00  0.00    +0.009 A 
ATOM     21  C   UNL     1       2.284  -4.859  -6.133  0.00  0.00    +0.008 A 
ATOM     22  C   UNL     1       1.305  -5.593  -5.551  0.00  0.00    +0.045 A 
ATOM     23  S   UNL     1       0.062  -4.356  -5.218  0.00  0.00    -0.103 S 
ENDBRANCH  18  19
BRANCH  18  24
ATOM     24  C   UNL     1      -0.465  -1.325  -7.147  0.00  0.00    -0.046 C 
ATOM     25  C   UNL     1      -0.817   0.156  -7.297  0.00  0.00    +0.009 C 
ATOM     26  C   UNL     1       0.216  -1.820  -8.424  0.00  0.00    +0.009 C 
ATOM     27  C   UNL     1      -1.743  -2.131  -6.905  0.00  0.00    +0.009 C 
ENDBRANCH  18  24
ENDBRANCH  15  18
ENDBRANCH   1  15
TORSDOF 7
