REMARK  Name = ZINC64702998
REMARK  8 active torsions:
REMARK  status: ('A' for Active; 'I' for Inactive)
REMARK    1  A    between atoms: C_1  and  C_2
REMARK    2  A    between atoms: C_2  and  C_3
REMARK    3  A    between atoms: C_6  and  C_9
REMARK    4  A    between atoms: C_17  and  S_21
REMARK    5  A    between atoms: S_21  and  C_22
REMARK    6  A    between atoms: C_22  and  C_23
REMARK    7  A    between atoms: N_25  and  C_26
REMARK    8  A    between atoms: C_29  and  C_33
REMARK                            x       y       z     vdW  Elec       q    Type
REMARK                         _______ _______ _______ _____ _____    ______ ____
ROOT
ATOM      1  C   UNL     1      -5.258  -1.857   0.261  0.00  0.00    +0.047 C 
ATOM      2  C   UNL     1      -5.994  -2.129  -0.843  0.00  0.00    +0.027 C 
ATOM      3  C   UNL     1      -7.297  -2.650  -0.300  0.00  0.00    +0.193 C 
ATOM      4  C   UNL     1      -8.542  -2.190  -0.995  0.00  0.00    +0.276 C 
ATOM      5  O   UNL     1      -8.558  -1.941  -2.177  0.00  0.00    -0.270 OA
ATOM      6  N   UNL     1      -9.652  -2.069  -0.222  0.00  0.00    -0.081 NA
ATOM      7  N   UNL     1      -9.651  -2.207   1.003  0.00  0.00    -0.163 NA
ATOM      8  C   UNL     1      -8.434  -2.482   1.788  0.00  0.00    +0.272 C 
ATOM      9  N   UNL     1      -7.305  -1.979   1.040  0.00  0.00    -0.178 NA
ATOM     10  N   UNL     1      -6.015  -2.162   1.417  0.00  0.00    -0.274 N 
ATOM     11  H   UNL     1      -5.684  -2.438   2.286  0.00  0.00    +0.167 HD
ENDROOT
BRANCH   1  15
ATOM     12  C   UNL     1      -1.288  -0.342   0.253  0.00  0.00    -0.048 A 
ATOM     13  C   UNL     1      -1.924  -0.600   1.454  0.00  0.00    +0.004 A 
ATOM     14  C   UNL     1      -3.214  -1.092   1.463  0.00  0.00    +0.010 A 
ATOM     15  C   UNL     1      -3.875  -1.329   0.258  0.00  0.00    -0.003 A 
ATOM     16  C   UNL     1      -3.228  -1.066  -0.949  0.00  0.00    +0.010 A 
ATOM     17  C   UNL     1      -1.940  -0.570  -0.945  0.00  0.00    +0.004 A 
BRANCH  12  19
ATOM     18  C   UNL     1       0.082   1.726   0.273  0.00  0.00    +0.009 C 
ATOM     19  C   UNL     1       0.120   0.196   0.251  0.00  0.00    +0.032 C 
ENDBRANCH  12  19
ENDBRANCH   1  15
BRANCH   8  20
ATOM     20  S   UNL     1      -8.243  -4.270   2.029  0.00  0.00    -0.107 S 
BRANCH  20  21
ATOM     21  C   UNL     1      -9.475  -4.676   3.297  0.00  0.00    +0.168 C 
BRANCH  21  22
ATOM     22  C   UNL     1      -9.338  -6.126   3.683  0.00  0.00    +0.227 C 
ATOM     23  O   UNL     1      -8.494  -6.818   3.154  0.00  0.00    -0.275 OA
ATOM     24  N   UNL     1     -10.156  -6.655   4.615  0.00  0.00    -0.284 N 
ATOM     25  H   UNL     1     -10.882  -6.125   4.980  0.00  0.00    +0.155 HD
BRANCH  24  26
ATOM     26  C   UNL     1      -9.956  -7.968   5.057  0.00  0.00    +0.047 A 
ATOM     27  C   UNL     1      -8.725  -8.584   4.875  0.00  0.00    +0.024 A 
ATOM     28  C   UNL     1      -8.531  -9.880   5.312  0.00  0.00    +0.005 A 
ATOM     29  C   UNL     1      -9.562 -10.564   5.931  0.00  0.00    -0.049 A 
ATOM     30  C   UNL     1     -10.789  -9.954   6.114  0.00  0.00    +0.020 A 
ATOM     31  C   UNL     1     -10.988  -8.656   5.684  0.00  0.00    +0.039 A 
ATOM     32 BR   UNL     1     -12.664  -7.819   5.941  0.00  0.00    -0.048 Br
ATOM     33  C   UNL     1      -9.346 -11.977   6.407  0.00  0.00    +0.044 C 
ENDBRANCH  24  26
ENDBRANCH  21  22
ENDBRANCH  20  21
ENDBRANCH   8  20
TORSDOF 6
