REMARK  Name = ZINC46254418
REMARK  11 active torsions:
REMARK  status: ('A' for Active; 'I' for Inactive)
REMARK    1  A    between atoms: C_1  and  C_2
REMARK    2  A    between atoms: C_2  and  N_3
REMARK    3  A    between atoms: C_4  and  C_6
REMARK    4  A    between atoms: C_6  and  N_7
REMARK    5  A    between atoms: N_15  and  C_16
REMARK    6  A    between atoms: C_16  and  C_17
REMARK    7  A    between atoms: C_17  and  C_19
REMARK    8  A    between atoms: C_17  and  N_22
REMARK    9  A    between atoms: C_19  and  C_20
REMARK   10  A    between atoms: C_19  and  C_21
REMARK   11  A    between atoms: C_25  and  C_28
REMARK                            x       y       z     vdW  Elec       q    Type
REMARK                         _______ _______ _______ _____ _____    ______ ____
ROOT
ATOM      1  N   UNL     1       0.174  -3.260  -4.053  0.00  0.00    -0.291 NA
ATOM      2  C   UNL     1      -0.958  -4.176  -3.858  0.00  0.00    +0.104 C 
ATOM      3  C   UNL     1      -0.440  -5.519  -3.333  0.00  0.00    +0.124 C 
ATOM      4  N   UNL     1       0.604  -6.006  -4.247  0.00  0.00    -0.283 N 
ATOM      5  C   UNL     1       1.703  -5.093  -4.598  0.00  0.00    +0.124 C 
ATOM      6  C   UNL     1       1.100  -3.767  -5.073  0.00  0.00    +0.104 C 
ATOM      7  C   UNL     1       0.556  -7.256  -4.748  0.00  0.00    +0.302 C 
ATOM      8  O   UNL     1      -0.307  -8.028  -4.377  0.00  0.00    -0.253 OA
ATOM      9  N   UNL     1       1.466  -7.652  -5.661  0.00  0.00    -0.301 N 
ATOM     10  H   UNL     1       2.197  -7.062  -5.904  0.00  0.00    +0.150 HD
ENDROOT
BRANCH   1  11
ATOM     11  C   UNL     1      -0.294  -1.909  -4.391  0.00  0.00    +0.180 C 
BRANCH  11  13
ATOM     12  N   UNL     1      -1.561  -0.087  -3.298  0.00  0.00    -0.315 N 
ATOM     13  C   UNL     1      -1.038  -1.327  -3.217  0.00  0.00    +0.227 C 
ATOM     14  O   UNL     1      -1.166  -1.973  -2.199  0.00  0.00    -0.274 OA
ATOM     15  H   UNL     1      -1.459   0.430  -4.112  0.00  0.00    +0.149 HD
BRANCH  12  17
ATOM     16  C   UNL     1      -2.772   1.886  -2.509  0.00  0.00    +0.024 C 
ATOM     17  C   UNL     1      -2.285   0.479  -2.157  0.00  0.00    +0.101 C 
ENDBRANCH  12  17
ENDBRANCH  11  13
ENDBRANCH   1  11
BRANCH   9  18
ATOM     18  C   UNL     1       1.350  -8.971  -6.287  0.00  0.00    +0.091 C 
BRANCH  18  19
ATOM     19  C   UNL     1       2.588  -9.240  -7.144  0.00  0.00    -0.048 C 
BRANCH  19  20
ATOM     20  N   UNL     1       3.740  -9.505  -6.271  0.00  0.00    +0.383 N 
ATOM     21  C   UNL     1       3.980  -8.338  -5.413  0.00  0.00    -0.078 C 
ATOM     22  C   UNL     1       5.227  -8.576  -4.559  0.00  0.00    -0.016 C 
ATOM     23  C   UNL     1       5.013  -9.817  -3.687  0.00  0.00    -0.018 C 
ATOM     24  C   UNL     1       4.689 -11.012  -4.588  0.00  0.00    -0.016 C 
ATOM     25  C   UNL     1       3.462 -10.683  -5.441  0.00  0.00    -0.078 C 
ATOM     26  C   UNL     1       6.285 -10.107  -2.889  0.00  0.00    +0.007 C 
ATOM     27  H   UNL     1       4.557  -9.678  -6.837  0.00  0.00    -0.081 HD
ENDBRANCH  19  20
BRANCH  19  28
ATOM     28  C   UNL     1       2.336 -10.456  -8.037  0.00  0.00    -0.029 C 
ATOM     29  C   UNL     1       1.218 -10.135  -9.031  0.00  0.00    +0.005 C 
ATOM     30  C   UNL     1       3.615 -10.800  -8.803  0.00  0.00    +0.005 C 
ENDBRANCH  19  28
ENDBRANCH  18  19
ENDBRANCH   9  18
TORSDOF 7
