REMARK  Name = ZINC05386277
REMARK  7 active torsions:
REMARK  status: ('A' for Active; 'I' for Inactive)
REMARK    1  A    between atoms: C_1  and  C_2
REMARK    2  A    between atoms: C_2  and  O_3
REMARK    3  A    between atoms: O_3  and  C_4
REMARK    4  A    between atoms: C_12  and  C_13
REMARK    5  A    between atoms: N_14  and  C_15
REMARK    6  A    between atoms: C_15  and  C_16
REMARK    7  A    between atoms: C_16  and  C_17
REMARK                            x       y       z     vdW  Elec       q    Type
REMARK                         _______ _______ _______ _____ _____    ______ ____
ROOT
ATOM      1  C   UNL     1      -0.263   1.254  -2.424  0.00  0.00    +0.097 C 
ATOM      2  N   UNL     1      -0.721   1.571  -1.179  0.00  0.00    -0.389 N 
ATOM      3  H   UNL     1      -1.623   2.191  -1.066  0.00  0.00    +0.159 HD
ENDROOT
BRANCH   1  12
ATOM      4  C   UNL     1      -4.070   3.866  -6.547  0.00  0.00    +0.121 A 
ATOM      5  C   UNL     1      -3.313   3.345  -7.593  0.00  0.00    +0.047 A 
ATOM      6  C   UNL     1      -2.200   2.580  -7.309  0.00  0.00    +0.019 A 
ATOM      7  C   UNL     1      -1.848   2.339  -5.996  0.00  0.00    +0.024 A 
ATOM      8  C   UNL     1      -2.592   2.852  -4.916  0.00  0.00    +0.040 A 
ATOM      9  C   UNL     1      -3.728   3.632  -5.237  0.00  0.00    +0.058 A 
ATOM     10  C   UNL     1      -2.084   2.505  -3.588  0.00  0.00    +0.202 A 
ATOM     11  O   UNL     1      -2.644   2.890  -2.574  0.00  0.00    -0.286 OA
ATOM     12  C   UNL     1      -0.920   1.705  -3.526  0.00  0.00    +0.076 A 
ATOM     13  S   UNL     1      -0.519   1.437  -5.241  0.00  0.00    -0.083 S 
BRANCH   4  14
ATOM     14  O   UNL     1      -5.167   4.620  -6.827  0.00  0.00    -0.492 OA
BRANCH  14  16
ATOM     15  C   UNL     1      -6.732   5.695  -8.322  0.00  0.00    +0.048 C 
ATOM     16  C   UNL     1      -5.474   4.831  -8.207  0.00  0.00    +0.225 C 
ENDBRANCH  14  16
ENDBRANCH   4  14
ENDBRANCH   1  12
BRANCH   2  17
ATOM     17  C   UNL     1      -0.013   1.086   0.008  0.00  0.00    +0.117 C 
BRANCH  17  18
ATOM     18  C   UNL     1      -0.729   1.579   1.267  0.00  0.00    +0.058 C 
BRANCH  18  19
ATOM     19  C   UNL     1       0.000   1.080   2.488  0.00  0.00    -0.021 A 
ATOM     20  C   UNL     1      -0.285  -0.028   3.191  0.00  0.00    +0.087 A 
ATOM     21  N   UNL     1       0.592  -0.158   4.233  0.00  0.00    -0.360 N 
ATOM     22  H   UNL     1       0.508  -1.013   4.919  0.00  0.00    +0.165 HD
ATOM     23  C   UNL     1       1.486   0.890   4.226  0.00  0.00    +0.047 A 
ATOM     24  C   UNL     1       1.158   1.708   3.129  0.00  0.00    +0.003 A 
ATOM     25  C   UNL     1       1.900   2.863   2.875  0.00  0.00    +0.010 A 
ATOM     26  C   UNL     1       2.950   3.186   3.687  0.00  0.00    +0.001 A 
ATOM     27  C   UNL     1       3.282   2.380   4.766  0.00  0.00    +0.002 A 
ATOM     28  C   UNL     1       2.559   1.239   5.039  0.00  0.00    +0.026 A 
ENDBRANCH  18  19
ENDBRANCH  17  18
ENDBRANCH   2  17
TORSDOF 6
