REMARK  Name = ZINC38701012
REMARK  13 active torsions:
REMARK  status: ('A' for Active; 'I' for Inactive)
REMARK    1  A    between atoms: C_1  and  C_2
REMARK    2  A    between atoms: C_2  and  C_3
REMARK    3  A    between atoms: C_3  and  O_4
REMARK    4  A    between atoms: O_4  and  C_5
REMARK    5  A    between atoms: C_9  and  C_11
REMARK    6  A    between atoms: C_16  and  O_25
REMARK    7  A    between atoms: C_20  and  N_24
REMARK    8  A    between atoms: C_21  and  C_22
REMARK    9  A    between atoms: O_25  and  C_26
REMARK   10  A    between atoms: C_26  and  C_28
REMARK   11  A    between atoms: C_29  and  C_39
REMARK   12  A    between atoms: C_32  and  C_37
REMARK   13  A    between atoms: C_37  and  C_38
REMARK                            x       y       z     vdW  Elec       q    Type
REMARK                         _______ _______ _______ _____ _____    ______ ____
ROOT
ATOM      1  C   UNL     1      -3.995  -6.165   0.055  0.00  0.00    +0.098 C 
ATOM      2  C   UNL     1      -4.716  -6.625  -1.185  0.00  0.00    +0.008 A 
ATOM      3  C   UNL     1      -4.094  -6.512  -2.416  0.00  0.00    +0.012 A 
ATOM      4  C   UNL     1      -4.739  -6.929  -3.562  0.00  0.00    +0.047 A 
ATOM      5  C   UNL     1      -6.018  -7.465  -3.483  0.00  0.00    +0.136 A 
ATOM      6  C   UNL     1      -6.644  -7.579  -2.253  0.00  0.00    +0.093 A 
ATOM      7  C   UNL     1      -5.993  -7.158  -1.100  0.00  0.00    +0.138 A 
ATOM      8  O   UNL     1      -6.619  -7.277   0.097  0.00  0.00    -0.441 OA
ATOM      9  C   UNL     1      -5.903  -7.252   1.233  0.00  0.00    +0.199 C 
ATOM     10  C   UNL     1      -4.654  -6.737   1.278  0.00  0.00    +0.098 C 
ENDROOT
BRANCH   1  15
ATOM     11  C   UNL     1      -2.892  -2.553   0.193  0.00  0.00    +0.121 A 
ATOM     12  C   UNL     1      -4.112  -1.896   0.254  0.00  0.00    +0.045 A 
ATOM     13  C   UNL     1      -5.287  -2.621   0.249  0.00  0.00    +0.004 A 
ATOM     14  C   UNL     1      -5.249  -4.002   0.185  0.00  0.00    +0.005 A 
ATOM     15  C   UNL     1      -4.034  -4.660   0.125  0.00  0.00    -0.031 A 
ATOM     16  C   UNL     1      -2.856  -3.938   0.123  0.00  0.00    +0.050 A 
BRANCH  11  17
ATOM     17  O   UNL     1      -1.734  -1.842   0.197  0.00  0.00    -0.492 OA
BRANCH  17  18
ATOM     18  C   UNL     1      -1.847  -0.419   0.271  0.00  0.00    +0.229 C 
BRANCH  18  20
ATOM     19  C   UNL     1      -0.572   1.728   0.344  0.00  0.00    +0.007 C 
ATOM     20  C   UNL     1      -0.451   0.205   0.264  0.00  0.00    +0.038 C 
ENDBRANCH  18  20
ENDBRANCH  17  18
ENDBRANCH  11  17
ENDBRANCH   1  15
BRANCH   9  21
ATOM     21  N   UNL     1      -6.456  -7.761   2.381  0.00  0.00    -0.328 N 
ATOM     22  H   UNL     1      -7.352  -8.133   2.364  0.00  0.00    +0.145 HD
ATOM     23  H   UNL     1      -5.952  -7.750   3.209  0.00  0.00    +0.145 HD
ENDBRANCH   9  21
BRANCH  10  24
ATOM     24  C   UNL     1      -3.944  -6.739   2.521  0.00  0.00    +0.101 C 
ATOM     25  N   UNL     1      -3.381  -6.740   3.508  0.00  0.00    -0.191 NA
ENDBRANCH  10  24
BRANCH   5  26
ATOM     26  O   UNL     1      -6.654  -7.876  -4.612  0.00  0.00    -0.420 OA
BRANCH  26  27
ATOM     27  C   UNL     1      -7.719  -7.163  -5.034  0.00  0.00    +0.380 C 
ATOM     28  O   UNL     1      -8.018  -6.128  -4.471  0.00  0.00    -0.241 OA
BRANCH  27  29
ATOM     29  C   UNL     1      -8.515  -7.637  -6.172  0.00  0.00    +0.216 A 
ATOM     30  C   UNL     1      -9.601  -7.002  -6.686  0.00  0.00    +0.010 A 
ATOM     31  C   UNL     1     -10.067  -7.830  -7.797  0.00  0.00    +0.024 A 
ATOM     32  C   UNL     1     -11.118  -7.731  -8.711  0.00  0.00    +0.015 A 
ATOM     33  C   UNL     1     -11.287  -8.702  -9.657  0.00  0.00    -0.047 A 
ATOM     34  C   UNL     1     -10.421  -9.786  -9.714  0.00  0.00    +0.007 A 
ATOM     35  C   UNL     1      -9.378  -9.903  -8.822  0.00  0.00    +0.047 A 
ATOM     36  C   UNL     1      -9.186  -8.927  -7.850  0.00  0.00    +0.136 A 
ATOM     37  O   UNL     1      -8.277  -8.768  -6.870  0.00  0.00    -0.448 OA
ATOM     38  C   UNL     1     -10.203  -5.706  -6.207  0.00  0.00    +0.048 C 
BRANCH  33  39
ATOM     39  C   UNL     1     -12.421  -8.597 -10.644  0.00  0.00    +0.032 C 
ATOM     40  C   UNL     1     -11.950  -7.830 -11.882  0.00  0.00    +0.009 C 
ENDBRANCH  33  39
ENDBRANCH  27  29
ENDBRANCH  26  27
ENDBRANCH   5  26
TORSDOF 10
