REMARK  Name = ZINC07823216
REMARK  5 active torsions:
REMARK  status: ('A' for Active; 'I' for Inactive)
REMARK    1  A    between atoms: C_3  and  O_11
REMARK    2  A    between atoms: C_6  and  N_7
REMARK    3  A    between atoms: O_11  and  C_12
REMARK    4  A    between atoms: C_12  and  C_13
REMARK    5  A    between atoms: C_16  and  C_18
REMARK                            x       y       z     vdW  Elec       q    Type
REMARK                         _______ _______ _______ _____ _____    ______ ____
ROOT
ATOM      1  O   UNL     1       2.366   1.124  -0.015  0.00  0.00    -0.484 OA
ENDROOT
BRANCH   1   4
ATOM      2  C   UNL     1      -1.218   1.751   0.017  0.00  0.00    +0.036 A 
ATOM      3  C   UNL     1      -0.013   1.076   0.008  0.00  0.00    +0.049 A 
ATOM      4  C   UNL     1       1.179   1.786   0.000  0.00  0.00    +0.139 A 
ATOM      5  C   UNL     1       1.156   3.174   0.008  0.00  0.00    +0.085 A 
ATOM      6  C   UNL     1      -0.052   3.844   0.023  0.00  0.00    +0.056 A 
ATOM      7  C   UNL     1      -1.238   3.133   0.030  0.00  0.00    +0.128 A 
ATOM      8 CL   UNL     1       2.645   4.067  -0.001  0.00  0.00    -0.080 Cl
BRANCH   7   9
ATOM      9  N   UNL     1      -2.531   3.853   0.046  0.00  0.00    +0.056 N 
ATOM     10  O   UNL     1      -2.550   5.071   0.052  0.00  0.00    -0.126 OA
ATOM     11  O   UNL     1      -3.577   3.228   0.052  0.00  0.00    -0.126 OA
ENDBRANCH   7   9
ENDBRANCH   1   4
BRANCH   1  12
ATOM     12  C   UNL     1       2.312  -0.304  -0.023  0.00  0.00    +0.285 C 
BRANCH  12  13
ATOM     13  C   UNL     1       3.713  -0.859  -0.040  0.00  0.00    +0.086 A 
ATOM     14  C   UNL     1       4.778  -0.017  -0.045  0.00  0.00    +0.074 A 
ATOM     15  S   UNL     1       6.128  -1.190  -0.064  0.00  0.00    -0.075 S 
ATOM     16  C   UNL     1       5.128  -2.672  -0.063  0.00  0.00    +0.109 A 
ATOM     17  N   UNL     1       3.906  -2.159  -0.043  0.00  0.00    -0.241 NA
BRANCH  16  18
ATOM     18  C   UNL     1       5.551  -4.088  -0.075  0.00  0.00    +0.014 A 
ATOM     19  C   UNL     1       6.902  -4.430  -0.089  0.00  0.00    +0.018 A 
ATOM     20  C   UNL     1       7.248  -5.736  -0.100  0.00  0.00    +0.046 A 
ATOM     21  S   UNL     1       5.660  -6.551  -0.090  0.00  0.00    -0.104 S 
ATOM     22  C   UNL     1       4.625  -5.097  -0.066  0.00  0.00    +0.055 A 
ENDBRANCH  16  18
ENDBRANCH  12  13
ENDBRANCH   1  12
TORSDOF 5
