REMARK  Name = ZINC35704010
REMARK  11 active torsions:
REMARK  status: ('A' for Active; 'I' for Inactive)
REMARK    1  A    between atoms: C_1  and  C_2
REMARK    2  A    between atoms: C_3  and  C_29
REMARK    3  A    between atoms: C_4  and  C_22
REMARK    4  A    between atoms: C_7  and  C_12
REMARK    5  A    between atoms: C_13  and  N_15
REMARK    6  A    between atoms: N_18  and  C_21
REMARK    7  A    between atoms: C_29  and  O_31
REMARK    8  A    between atoms: O_31  and  C_32
REMARK    9  A    between atoms: C_32  and  C_33
REMARK   10  A    between atoms: C_32  and  C_34
REMARK   11  A    between atoms: C_32  and  C_35
REMARK                            x       y       z     vdW  Elec       q    Type
REMARK                         _______ _______ _______ _____ _____    ______ ____
ROOT
ATOM      1  C   UNL     1       0.777   1.415  -0.417  0.00  0.00    +0.066 C 
ATOM      2  C   UNL     1       0.496  -0.059  -0.288  0.00  0.00    +0.053 C 
ATOM      3  C   UNL     1      -0.804  -0.520  -0.373  0.00  0.00    +0.083 C 
ATOM      4  C   UNL     1      -1.035  -2.009  -0.238  0.00  0.00    +0.152 C 
ATOM      5  N   UNL     1       0.164  -2.862  -0.022  0.00  0.00    -0.267 N 
ATOM      6  C   UNL     1       0.191  -4.235   0.127  0.00  0.00    +0.048 C 
ATOM      7  C   UNL     1       1.393  -4.822   0.314  0.00  0.00    +0.072 C 
ATOM      8  S   UNL     1       2.496  -3.422   0.279  0.00  0.00    -0.060 S 
ATOM      9  C   UNL     1       1.363  -2.209   0.032  0.00  0.00    +0.166 C 
ATOM     10  N   UNL     1       1.496  -0.905  -0.099  0.00  0.00    -0.230 NA
ENDROOT
BRANCH   4  11
ATOM     11  C   UNL     1      -1.725  -2.487  -1.489  0.00  0.00    +0.013 A 
ATOM     12  C   UNL     1      -3.069  -2.810  -1.457  0.00  0.00    +0.008 A 
ATOM     13  C   UNL     1      -3.702  -3.248  -2.605  0.00  0.00    +0.001 A 
ATOM     14  C   UNL     1      -2.993  -3.365  -3.786  0.00  0.00    +0.003 A 
ATOM     15  C   UNL     1      -1.649  -3.042  -3.820  0.00  0.00    +0.039 A 
ATOM     16  C   UNL     1      -1.015  -2.597  -2.672  0.00  0.00    +0.129 A 
ATOM     17  F   UNL     1       0.297  -2.277  -2.706  0.00  0.00    -0.205 F 
ENDBRANCH   4  11
BRANCH   6  18
ATOM     18  C   UNL     1      -1.046  -5.029   0.085  0.00  0.00    +0.091 C 
ATOM     19  C   UNL     1      -1.009  -6.348   0.358  0.00  0.00    +0.241 C 
ATOM     20  O   UNL     1       0.181  -6.963   0.565  0.00  0.00    -0.271 OA
BRANCH  19  21
ATOM     21  N   UNL     1      -2.186  -7.073   0.427  0.00  0.00    -0.302 N 
ATOM     22  C   UNL     1      -3.345  -6.715  -0.404  0.00  0.00    +0.089 C 
ATOM     23  C   UNL     1      -3.837  -7.977  -1.121  0.00  0.00    -0.060 C 
ATOM     24  N   UNL     1      -4.103  -9.029  -0.131  0.00  0.00    +0.380 N 
ATOM     25  C   UNL     1      -2.853  -9.415   0.536  0.00  0.00    -0.060 C 
ATOM     26  C   UNL     1      -2.310  -8.228   1.330  0.00  0.00    +0.089 C 
ATOM     27  C   UNL     1      -4.677 -10.200  -0.806  0.00  0.00    -0.096 C 
ATOM     28  H   UNL     1      -4.756  -8.685   0.556  0.00  0.00    -0.082 HD
ENDBRANCH  19  21
ENDBRANCH   6  18
BRANCH   3  29
ATOM     29  C   UNL     1      -1.872   0.362  -0.578  0.00  0.00    +0.340 C 
ATOM     30  O   UNL     1      -1.671   1.563  -0.616  0.00  0.00    -0.245 OA
BRANCH  29  31
ATOM     31  O   UNL     1      -3.125  -0.119  -0.733  0.00  0.00    -0.456 OA
BRANCH  31  32
ATOM     32  C   UNL     1      -4.167   0.838  -0.938  0.00  0.00    +0.106 C 
ATOM     33  C   UNL     1      -3.876   1.644  -2.205  0.00  0.00    +0.055 C 
ATOM     34  C   UNL     1      -5.504   0.111  -1.091  0.00  0.00    +0.055 C 
ATOM     35  C   UNL     1      -4.235   1.782   0.264  0.00  0.00    +0.055 C 
ENDBRANCH  31  32
ENDBRANCH  29  31
ENDBRANCH   3  29
TORSDOF 6
