REMARK  Name = ZINC43746343
REMARK  7 active torsions:
REMARK  status: ('A' for Active; 'I' for Inactive)
REMARK    1  A    between atoms: C_1  and  C_2
REMARK    2  A    between atoms: C_6  and  C_41
REMARK    3  A    between atoms: C_17  and  C_19
REMARK    4  A    between atoms: C_19  and  N_20
REMARK    5  A    between atoms: N_23  and  C_26
REMARK    6  A    between atoms: C_26  and  C_28
REMARK    7  A    between atoms: C_26  and  C_34
REMARK                            x       y       z     vdW  Elec       q    Type
REMARK                         _______ _______ _______ _____ _____    ______ ____
ROOT
ATOM      1  N   UNL     1       3.145  -0.013   6.366  0.00  0.00    +0.382 N 
ATOM      2  C   UNL     1       4.182  -0.914   5.848  0.00  0.00    -0.063 C 
ATOM      3  C   UNL     1       5.545  -0.496   6.403  0.00  0.00    +0.067 C 
ATOM      4  N   UNL     1       5.511  -0.554   7.872  0.00  0.00    -0.295 NA
ATOM      5  C   UNL     1       4.460   0.324   8.404  0.00  0.00    +0.067 C 
ATOM      6  C   UNL     1       3.106  -0.100   7.832  0.00  0.00    -0.063 C 
ATOM      7  H   UNL     1       3.355   0.935   6.091  0.00  0.00    -0.082 HD
ENDROOT
BRANCH   1   8
ATOM      8  C   UNL     1       1.839  -0.403   5.818  0.00  0.00    -0.063 C 
BRANCH   8  23
ATOM      9  C   UNL     1       4.357   1.554   0.251  0.00  0.00    +0.044 C 
ATOM     10  C   UNL     1       2.965   2.121   0.348  0.00  0.00    -0.051 C 
ATOM     11  C   UNL     1       2.352   2.579  -0.730  0.00  0.00    -0.023 C 
ATOM     12  C   UNL     1       0.980   3.179  -0.739  0.00  0.00    +0.028 C 
ATOM     13  C   UNL     1       0.191   2.822   0.523  0.00  0.00    +0.015 C 
ATOM     14  C   UNL     1       1.079   3.084   1.739  0.00  0.00    -0.003 C 
ATOM     15  C   UNL     1       2.264   2.166   1.654  0.00  0.00    -0.042 C 
ATOM     16  C   UNL     1       2.684   1.421   2.649  0.00  0.00    -0.015 C 
ATOM     17  C   UNL     1       1.991   1.348   3.984  0.00  0.00    +0.065 C 
ATOM     18  C   UNL     1       0.507   1.747   3.802  0.00  0.00    +0.185 C 
ATOM     19  C   UNL     1       0.335   3.024   3.044  0.00  0.00    +0.056 C 
ATOM     20  O   UNL     1      -0.060   0.621   3.125  0.00  0.00    -0.461 OA
ATOM     21  C   UNL     1       0.443  -0.492   3.705  0.00  0.00    +0.309 C 
ATOM     22  O   UNL     1      -0.102  -1.570   3.748  0.00  0.00    -0.251 OA
ATOM     23  C   UNL     1       1.830  -0.170   4.306  0.00  0.00    +0.092 C 
ATOM     24  C   UNL     1       1.618   4.508   1.595  0.00  0.00    +0.016 C 
ENDBRANCH   8  23
ENDBRANCH   1   8
BRANCH   4  25
ATOM     25  C   UNL     1       6.821  -0.214   8.443  0.00  0.00    +0.117 C 
BRANCH  25  26
ATOM     26  C   UNL     1       6.762  -0.337   9.943  0.00  0.00    -0.026 A 
ATOM     27  C   UNL     1       6.159  -1.437  10.524  0.00  0.00    +0.007 A 
ATOM     28  C   UNL     1       6.105  -1.550  11.900  0.00  0.00    +0.020 A 
ATOM     29  C   UNL     1       6.654  -0.561  12.697  0.00  0.00    +0.041 A 
ATOM     30  C   UNL     1       7.257   0.540  12.116  0.00  0.00    +0.020 A 
ATOM     31  C   UNL     1       7.316   0.649  10.739  0.00  0.00    +0.007 A 
ATOM     32 CL   UNL     1       6.585  -0.702  14.426  0.00  0.00    -0.084 Cl
ENDBRANCH  25  26
BRANCH  25  33
ATOM     33  C   UNL     1       7.865  -1.158   7.902  0.00  0.00    -0.026 A 
ATOM     34  C   UNL     1       7.611  -2.516   7.855  0.00  0.00    +0.005 A 
ATOM     35  C   UNL     1       8.568  -3.381   7.359  0.00  0.00    +0.000 A 
ATOM     36  C   UNL     1       9.779  -2.889   6.911  0.00  0.00    +0.000 A 
ATOM     37  C   UNL     1      10.033  -1.530   6.958  0.00  0.00    +0.000 A 
ATOM     38  C   UNL     1       9.074  -0.665   7.449  0.00  0.00    +0.005 A 
ENDBRANCH  25  33
ENDBRANCH   4  25
TORSDOF 5
