REMARK  Name = ZINC20207999
REMARK  9 active torsions:
REMARK  status: ('A' for Active; 'I' for Inactive)
REMARK    1  A    between atoms: C_1  and  C_2
REMARK    2  A    between atoms: C_7  and  O_8
REMARK    3  A    between atoms: O_8  and  C_9
REMARK    4  A    between atoms: C_9  and  C_10
REMARK    5  A    between atoms: C_10  and  O_11
REMARK    6  A    between atoms: O_11  and  C_12
REMARK    7  A    between atoms: C_15  and  C_19
REMARK    8  A    between atoms: C_29  and  S_31
REMARK    9  A    between atoms: S_31  and  C_34
REMARK                            x       y       z     vdW  Elec       q    Type
REMARK                         _______ _______ _______ _____ _____    ______ ____
ROOT
ATOM      1  C   UNL     1      -1.572   1.793   5.920  0.00  0.00    +0.139 A 
ATOM      2  C   UNL     1      -0.670   1.754   6.978  0.00  0.00    +0.048 A 
ATOM      3  C   UNL     1      -0.757   2.666   7.991  0.00  0.00    +0.011 A 
ATOM      4  C   UNL     1      -1.760   3.646   7.968  0.00  0.00    -0.023 A 
ATOM      5  C   UNL     1      -2.670   3.686   6.902  0.00  0.00    +0.031 A 
ATOM      6  C   UNL     1      -2.569   2.765   5.883  0.00  0.00    +0.083 A 
ATOM      7 CL   UNL     1      -3.687   2.811   4.557  0.00  0.00    -0.080 Cl
ENDROOT
BRANCH   4   8
ATOM      8  C   UNL     1      -1.857   4.624   9.054  0.00  0.00    +0.024 C 
ATOM      9  C   UNL     1      -0.717   5.061   9.690  0.00  0.00    +0.081 C 
ATOM     10  C   UNL     1       0.644   4.711   9.193  0.00  0.00    +0.153 C 
ATOM     11  N   UNL     1       0.926   4.554   7.927  0.00  0.00    -0.283 NA
ATOM     12  N   UNL     1       1.597   4.565  10.224  0.00  0.00    -0.150 N 
ATOM     13  C   UNL     1       1.346   5.207  11.417  0.00  0.00    +0.182 C 
ATOM     14  N   UNL     1       0.270   5.873  11.756  0.00  0.00    -0.152 NA
ATOM     15  C   UNL     1      -0.777   5.912  10.905  0.00  0.00    +0.273 C 
ATOM     16  O   UNL     1      -1.744   6.622  11.128  0.00  0.00    -0.268 OA
ATOM     17  S   UNL     1       2.825   4.871  12.337  0.00  0.00    -0.015 S 
ATOM     18  C   UNL     1       3.622   3.827  11.125  0.00  0.00    +0.235 C 
ATOM     19  N   UNL     1       2.768   3.844  10.142  0.00  0.00    -0.145 NA
ATOM     20  H   UNL     1       1.830   4.327   7.657  0.00  0.00    +0.188 HD
BRANCH  18  21
ATOM     21  S   UNL     1       5.168   2.989  11.233  0.00  0.00    +0.019 S 
ATOM     22  O   UNL     1       5.319   2.683  12.613  0.00  0.00    -0.168 OA
ATOM     23  O   UNL     1       5.087   1.952  10.265  0.00  0.00    -0.168 OA
ATOM     24  C   UNL     1       6.402   4.220  10.729  0.00  0.00    +0.202 C 
ENDBRANCH  18  21
ENDBRANCH   4   8
BRANCH   1  25
ATOM     25  O   UNL     1      -1.478   0.883   4.918  0.00  0.00    -0.487 OA
BRANCH  25  26
ATOM     26  C   UNL     1      -0.433  -0.086   5.018  0.00  0.00    +0.270 C 
BRANCH  26  27
ATOM     27  C   UNL     1      -0.485  -1.019   3.807  0.00  0.00    +0.270 C 
BRANCH  27  28
ATOM     28  O   UNL     1      -0.198  -0.276   2.620  0.00  0.00    -0.488 OA
BRANCH  28  35
ATOM     29  C   UNL     1       0.366   1.176   0.264  0.00  0.00    +0.047 C 
ATOM     30  C   UNL     1       0.067  -0.301   0.256  0.00  0.00    -0.009 A 
ATOM     31  C   UNL     1       0.066  -1.000  -0.935  0.00  0.00    +0.007 A 
ATOM     32  C   UNL     1      -0.209  -2.355  -0.943  0.00  0.00    +0.000 A 
ATOM     33  C   UNL     1      -0.484  -3.014   0.242  0.00  0.00    +0.004 A 
ATOM     34  C   UNL     1      -0.484  -2.319   1.436  0.00  0.00    +0.046 A 
ATOM     35  C   UNL     1      -0.203  -0.960   1.446  0.00  0.00    +0.124 A 
ENDBRANCH  28  35
ENDBRANCH  27  28
ENDBRANCH  26  27
ENDBRANCH  25  26
ENDBRANCH   1  25
TORSDOF 7
