REMARK  Name = ZINC27697368
REMARK  9 active torsions:
REMARK  status: ('A' for Active; 'I' for Inactive)
REMARK    1  A    between atoms: C_4  and  C_7
REMARK    2  A    between atoms: C_7  and  C_9
REMARK    3  A    between atoms: C_7  and  S_29
REMARK    4  A    between atoms: N_17  and  C_18
REMARK    5  A    between atoms: C_18  and  C_19
REMARK    6  A    between atoms: C_19  and  C_21
REMARK    7  A    between atoms: C_19  and  O_28
REMARK    8  A    between atoms: C_21  and  N_22
REMARK    9  A    between atoms: S_29  and  C_30
REMARK                            x       y       z     vdW  Elec       q    Type
REMARK                         _______ _______ _______ _____ _____    ______ ____
ROOT
ATOM      1  C   UNL     1      -5.375   1.509   0.160  0.00  0.00    +0.129 A 
ATOM      2  N   UNL     1      -5.778   0.472  -0.515  0.00  0.00    -0.231 NA
ATOM      3  C   UNL     1      -7.049   0.159  -0.155  0.00  0.00    +0.089 A 
ATOM      4  C   UNL     1      -7.945  -0.837  -0.551  0.00  0.00    +0.030 A 
ATOM      5  C   UNL     1      -9.191  -0.893   0.006  0.00  0.00    +0.002 A 
ATOM      6  C   UNL     1      -9.580   0.032   0.965  0.00  0.00    +0.002 A 
ATOM      7  C   UNL     1      -8.712   1.023   1.371  0.00  0.00    +0.028 A 
ATOM      8  C   UNL     1      -7.442   1.095   0.816  0.00  0.00    +0.069 A 
ATOM      9  N   UNL     1      -6.361   1.936   0.994  0.00  0.00    -0.324 N 
ENDROOT
BRANCH   1  10
ATOM     10  C   UNL     1      -4.016   2.147   0.033  0.00  0.00    +0.147 C 
BRANCH  10  14
ATOM     11  C   UNL     1      -3.823   4.375  -3.607  0.00  0.00    +0.000 A 
ATOM     12  C   UNL     1      -3.640   5.014  -2.395  0.00  0.00    +0.000 A 
ATOM     13  C   UNL     1      -3.702   4.293  -1.217  0.00  0.00    +0.005 A 
ATOM     14  C   UNL     1      -3.948   2.933  -1.251  0.00  0.00    -0.027 A 
ATOM     15  C   UNL     1      -4.126   2.293  -2.463  0.00  0.00    +0.005 A 
ATOM     16  C   UNL     1      -4.068   3.014  -3.641  0.00  0.00    +0.000 A 
ENDBRANCH  10  14
BRANCH  10  17
ATOM     17  S   UNL     1      -2.741   0.857   0.020  0.00  0.00    -0.109 S 
BRANCH  17  18
ATOM     18  C   UNL     1      -1.225   1.755   0.017  0.00  0.00    +0.009 A 
ATOM     19  C   UNL     1      -0.013   1.076   0.008  0.00  0.00    +0.015 A 
ATOM     20  C   UNL     1       1.173   1.783   0.000  0.00  0.00    +0.001 A 
ATOM     21  C   UNL     1       1.155   3.166   0.007  0.00  0.00    +0.000 A 
ATOM     22  C   UNL     1      -0.049   3.845   0.021  0.00  0.00    +0.001 A 
ATOM     23  C   UNL     1      -1.239   3.145   0.029  0.00  0.00    +0.015 A 
ENDBRANCH  17  18
ENDBRANCH  10  17
ENDBRANCH   1  10
BRANCH   9  24
ATOM     24  C   UNL     1      -6.291   3.077   1.910  0.00  0.00    +0.153 C 
BRANCH  24  25
ATOM     25  C   UNL     1      -6.769   4.339   1.190  0.00  0.00    +0.118 C 
BRANCH  25  26
ATOM     26  O   UNL     1      -8.153   4.204   0.861  0.00  0.00    -0.392 OA
ATOM     27  H   UNL     1      -8.675   5.018   0.336  0.00  0.00    +0.210 HD
ENDBRANCH  25  26
BRANCH  25  28
ATOM     28  C   UNL     1      -6.578   5.551   2.105  0.00  0.00    -0.045 C 
BRANCH  28  29
ATOM     29  N   UNL     1      -7.038   6.763   1.413  0.00  0.00    +0.381 N 
ATOM     30  C   UNL     1      -6.191   7.059   0.251  0.00  0.00    -0.079 C 
ATOM     31  C   UNL     1      -6.782   8.238  -0.526  0.00  0.00    -0.019 C 
ATOM     32  C   UNL     1      -6.863   9.460   0.394  0.00  0.00    -0.004 C 
ATOM     33  C   UNL     1      -7.711   9.109   1.620  0.00  0.00    -0.019 C 
ATOM     34  C   UNL     1      -7.093   7.905   2.335  0.00  0.00    -0.079 C 
ATOM     35  H   UNL     1      -8.058   6.579   1.046  0.00  0.00    -0.082 HD
ENDBRANCH  28  29
ENDBRANCH  25  28
ENDBRANCH  24  25
ENDBRANCH   9  24
TORSDOF 9
