REMARK  Name = ZINC38836864
REMARK  7 active torsions:
REMARK  status: ('A' for Active; 'I' for Inactive)
REMARK    1  A    between atoms: C_6  and  C_7
REMARK    2  A    between atoms: C_7  and  N_8
REMARK    3  A    between atoms: C_12  and  C_15
REMARK    4  A    between atoms: N_17  and  C_18
REMARK    5  A    between atoms: C_18  and  C_19
REMARK    6  A    between atoms: C_19  and  S_20
REMARK    7  A    between atoms: S_20  and  C_21
REMARK                            x       y       z     vdW  Elec       q    Type
REMARK                         _______ _______ _______ _____ _____    ______ ____
ROOT
ATOM      1  N   UNL     1      -1.727  -1.018  -1.372  0.00  0.00    +0.383 N 
ATOM      2  C   UNL     1      -0.752  -1.886  -2.044  0.00  0.00    -0.078 C 
ATOM      3  C   UNL     1      -1.157  -2.077  -3.507  0.00  0.00    -0.018 C 
ATOM      4  C   UNL     1      -2.545  -2.722  -3.567  0.00  0.00    +0.009 C 
ATOM      5  C   UNL     1      -3.538  -1.845  -2.800  0.00  0.00    +0.058 C 
ATOM      6  C   UNL     1      -3.045  -1.663  -1.363  0.00  0.00    -0.066 C 
ATOM      7  H   UNL     1      -1.786  -0.139  -1.864  0.00  0.00    -0.081 HD
ENDROOT
BRANCH   5   8
ATOM      8  C   UNL     1      -4.891  -2.509  -2.789  0.00  0.00    +0.214 C 
ATOM      9  O   UNL     1      -5.413  -2.804  -1.735  0.00  0.00    -0.276 OA
ATOM     10  N   UNL     1      -5.521  -2.774  -3.950  0.00  0.00    -0.314 N 
ATOM     11  H   UNL     1      -5.104  -2.537  -4.794  0.00  0.00    +0.149 HD
BRANCH  10  12
ATOM     12  C   UNL     1      -6.836  -3.419  -3.940  0.00  0.00    +0.115 C 
BRANCH  12  13
ATOM     13  C   UNL     1      -7.325  -3.605  -5.378  0.00  0.00    +0.093 C 
BRANCH  13  14
ATOM     14  S   UNL     1      -8.954  -4.404  -5.364  0.00  0.00    -0.124 S 
BRANCH  14  15
ATOM     15  C   UNL     1      -9.373  -4.545  -7.070  0.00  0.00    +0.008 A 
ATOM     16  C   UNL     1      -8.495  -4.084  -8.043  0.00  0.00    +0.016 A 
ATOM     17  C   UNL     1      -8.827  -4.197  -9.379  0.00  0.00    +0.021 A 
ATOM     18  C   UNL     1     -10.032  -4.767  -9.748  0.00  0.00    +0.041 A 
ATOM     19  C   UNL     1     -10.909  -5.227  -8.781  0.00  0.00    +0.021 A 
ATOM     20  C   UNL     1     -10.580  -5.123  -7.444  0.00  0.00    +0.016 A 
ATOM     21 CL   UNL     1     -10.446  -4.906 -11.429  0.00  0.00    -0.084 Cl
ENDBRANCH  14  15
ENDBRANCH  13  14
ENDBRANCH  12  13
ENDBRANCH  10  12
ENDBRANCH   5   8
BRANCH   1  22
ATOM     22  C   UNL     1      -1.293  -0.775   0.010  0.00  0.00    -0.043 C 
BRANCH  22  28
ATOM     23  C   UNL     1      -0.017   1.378   0.010  0.00  0.00    +0.003 A 
ATOM     24  C   UNL     1       1.171   2.086   0.002  0.00  0.00    +0.015 A 
ATOM     25  C   UNL     1       2.378   1.411  -0.013  0.00  0.00    +0.018 A 
ATOM     26  C   UNL     1       2.396   0.027  -0.021  0.00  0.00    +0.015 A 
ATOM     27  C   UNL     1       1.208  -0.679  -0.013  0.00  0.00    +0.003 A 
ATOM     28  C   UNL     1       0.002  -0.004   0.002  0.00  0.00    -0.064 A 
ATOM     29 BR   UNL     1       4.003   2.378  -0.024  0.00  0.00    -0.050 Br
ENDBRANCH  22  28
ENDBRANCH   1  22
TORSDOF 7
