REMARK  Name = ZINC02211624
REMARK  3 active torsions:
REMARK  status: ('A' for Active; 'I' for Inactive)
REMARK    1  A    between atoms: C_3  and  N_8
REMARK    2  A    between atoms: N_16  and  C_19
REMARK    3  A    between atoms: C_19  and  C_20
REMARK                            x       y       z     vdW  Elec       q    Type
REMARK                         _______ _______ _______ _____ _____    ______ ____
ROOT
ATOM      1  N   UNL     1       1.136   1.911   0.002  0.00  0.00    -0.228 N 
ATOM      2  C   UNL     1       0.035   1.310  -0.485  0.00  0.00    +0.270 A 
ATOM      3  O   UNL     1       0.096   0.180  -0.933  0.00  0.00    -0.266 OA
ATOM      4  C   UNL     1      -1.248   2.044  -0.475  0.00  0.00    +0.074 A 
ATOM      5  C   UNL     1      -2.563   1.584  -0.949  0.00  0.00    -0.023 A 
ATOM      6  C   UNL     1      -3.573   2.459  -0.813  0.00  0.00    -0.004 A 
ATOM      7  S   UNL     1      -2.833   3.890  -0.064  0.00  0.00    -0.075 S 
ATOM      8  C   UNL     1      -1.211   3.327   0.063  0.00  0.00    +0.097 A 
ATOM      9  N   UNL     1      -0.045   3.866   0.539  0.00  0.00    -0.278 N 
ATOM     10  C   UNL     1       1.100   3.157   0.501  0.00  0.00    +0.338 A 
ATOM     11  O   UNL     1       2.123   3.656   0.929  0.00  0.00    -0.246 OA
ATOM     12  C   UNL     1      -4.875   1.903  -1.324  0.00  0.00    +0.043 C 
ATOM     13  C   UNL     1      -4.639   0.380  -1.414  0.00  0.00    +0.010 C 
ATOM     14  C   UNL     1      -3.109   0.309  -1.594  0.00  0.00    +0.037 C 
ENDROOT
BRANCH   1  17
ATOM     15  C   UNL     1       3.917  -0.256   1.052  0.00  0.00    +0.003 A 
ATOM     16  C   UNL     1       2.719   0.431   1.071  0.00  0.00    +0.026 A 
ATOM     17  C   UNL     1       2.353   1.217  -0.013  0.00  0.00    +0.056 A 
ATOM     18  C   UNL     1       3.199   1.320  -1.109  0.00  0.00    +0.046 A 
ATOM     19  C   UNL     1       4.399   0.634  -1.121  0.00  0.00    +0.043 A 
ATOM     20  C   UNL     1       4.758  -0.153  -0.040  0.00  0.00    +0.020 A 
ATOM     21 CL   UNL     1       5.458   0.761  -2.490  0.00  0.00    -0.083 Cl
ENDBRANCH   1  17
BRANCH   9  22
ATOM     22  C   UNL     1      -0.043   5.223   1.092  0.00  0.00    +0.222 C 
BRANCH  22  23
ATOM     23  C   UNL     1       0.241   6.213  -0.007  0.00  0.00    +0.230 C 
ATOM     24  O   UNL     1       0.424   5.824  -1.142  0.00  0.00    -0.274 OA
ATOM     25  N   UNL     1       0.292   7.531   0.270  0.00  0.00    -0.328 N 
ATOM     26  H   UNL     1       0.146   7.842   1.177  0.00  0.00    +0.145 HD
ATOM     27  H   UNL     1       0.475   8.169  -0.438  0.00  0.00    +0.145 HD
ENDBRANCH  22  23
ENDBRANCH   9  22
TORSDOF 3
