REMARK  Name = ZINC62495413
REMARK  5 active torsions:
REMARK  status: ('A' for Active; 'I' for Inactive)
REMARK    1  A    between atoms: C_1  and  C_2
REMARK    2  A    between atoms: C_5  and  C_9
REMARK    3  A    between atoms: C_6  and  C_8
REMARK    4  A    between atoms: C_9  and  C_10
REMARK    5  A    between atoms: C_18  and  O_22
REMARK                            x       y       z     vdW  Elec       q    Type
REMARK                         _______ _______ _______ _____ _____    ______ ____
ROOT
ATOM      1  C   UNL     1      -1.808  -4.514   0.582  0.00  0.00    +0.263 C 
ATOM      2  C   UNL     1      -1.982  -5.996   0.798  0.00  0.00    +0.258 C 
ATOM      3  O   UNL     1      -2.196  -6.728  -0.145  0.00  0.00    -0.271 OA
ATOM      4  N   UNL     1      -1.900  -6.504   2.046  0.00  0.00    -0.280 N 
ATOM      5  C   UNL     1      -1.779  -5.628   3.135  0.00  0.00    +0.076 A 
ATOM      6  C   UNL     1      -1.465  -6.111   4.395  0.00  0.00    +0.030 A 
ATOM      7  C   UNL     1      -1.335  -5.236   5.457  0.00  0.00    +0.047 A 
ATOM      8  C   UNL     1      -1.520  -3.875   5.264  0.00  0.00    +0.120 A 
ATOM      9  C   UNL     1      -1.839  -3.387   4.005  0.00  0.00    +0.093 A 
ATOM     10  C   UNL     1      -1.975  -4.262   2.942  0.00  0.00    +0.146 A 
ATOM     11  O   UNL     1      -2.319  -3.800   1.710  0.00  0.00    -0.477 OA
ATOM     12  H   UNL     1      -1.924  -7.463   2.188  0.00  0.00    +0.155 HD
ENDROOT
BRANCH   8  13
ATOM     13  O   UNL     1      -1.386  -3.017   6.310  0.00  0.00    -0.507 OA
ATOM     14  H   UNL     1      -0.488  -2.678   6.429  0.00  0.00    +0.292 HD
ENDBRANCH   8  13
BRANCH   1  15
ATOM     15  C   UNL     1      -0.322  -4.196   0.409  0.00  0.00    +0.089 C 
BRANCH  15  20
ATOM     16  C   UNL     1       0.313   1.387  -0.939  0.00  0.00    +0.044 C 
ATOM     17  C   UNL     1       0.147  -0.069  -0.588  0.00  0.00    -0.050 A 
ATOM     18  C   UNL     1       0.333  -0.490   0.716  0.00  0.00    +0.003 A 
ATOM     19  C   UNL     1       0.181  -1.826   1.038  0.00  0.00    +0.004 A 
ATOM     20  C   UNL     1      -0.157  -2.740   0.057  0.00  0.00    -0.040 A 
ATOM     21  C   UNL     1      -0.344  -2.318  -1.246  0.00  0.00    -0.047 A 
ATOM     22  C   UNL     1      -0.196  -0.981  -1.567  0.00  0.00    +0.007 A 
ATOM     23  C   UNL     1      -0.712  -3.314  -2.315  0.00  0.00    +0.044 C 
ENDBRANCH  15  20
ENDBRANCH   1  15
TORSDOF 3
