REMARK  Name = ZINC26511322
REMARK  4 active torsions:
REMARK  status: ('A' for Active; 'I' for Inactive)
REMARK    1  A    between atoms: C_4  and  C_7
REMARK    2  A    between atoms: C_10  and  S_18
REMARK    3  A    between atoms: N_11  and  C_12
REMARK    4  A    between atoms: S_18  and  C_19
REMARK                            x       y       z     vdW  Elec       q    Type
REMARK                         _______ _______ _______ _____ _____    ______ ____
ROOT
ATOM      1  C   UNL     1       1.704  -2.902  -1.023  0.00  0.00    +0.169 A 
ATOM      2  N   UNL     1       1.536  -4.140  -0.618  0.00  0.00    -0.128 NA
ATOM      3  N   UNL     1       1.004  -4.151   0.552  0.00  0.00    -0.121 NA
ATOM      4  C   UNL     1       0.804  -2.921   0.970  0.00  0.00    +0.203 A 
ATOM      5  N   UNL     1       1.237  -2.082  -0.020  0.00  0.00    -0.270 N 
ENDROOT
BRANCH   1   9
ATOM      6  C   UNL     1       3.373  -1.663  -4.727  0.00  0.00    +0.000 A 
ATOM      7  C   UNL     1       3.537  -2.969  -4.300  0.00  0.00    +0.001 A 
ATOM      8  C   UNL     1       2.998  -3.378  -3.098  0.00  0.00    +0.011 A 
ATOM      9  C   UNL     1       2.285  -2.471  -2.312  0.00  0.00    +0.020 A 
ATOM     10  C   UNL     1       2.118  -1.156  -2.751  0.00  0.00    +0.011 A 
ATOM     11  C   UNL     1       2.668  -0.759  -3.953  0.00  0.00    +0.001 A 
ENDBRANCH   1   9
BRANCH   5  12
ATOM     12  C   UNL     1       1.214  -0.680  -0.013  0.00  0.00    +0.051 A 
ATOM     13  C   UNL     1       0.002  -0.004   0.002  0.00  0.00    +0.026 A 
ATOM     14  C   UNL     1      -0.017   1.377   0.010  0.00  0.00    +0.002 A 
ATOM     15  C   UNL     1       1.171   2.086   0.002  0.00  0.00    +0.000 A 
ATOM     16  C   UNL     1       2.380   1.415  -0.013  0.00  0.00    +0.002 A 
ATOM     17  C   UNL     1       2.405   0.034  -0.021  0.00  0.00    +0.026 A 
ENDBRANCH   5  12
BRANCH   4  18
ATOM     18  S   UNL     1       0.106  -2.443   2.515  0.00  0.00    -0.028 S 
BRANCH  18  19
ATOM     19  C   UNL     1      -0.190  -4.029   3.222  0.00  0.00    +0.127 A 
ATOM     20  C   UNL     1      -0.752  -4.136   4.494  0.00  0.00    +0.040 A 
ATOM     21  C   UNL     1      -0.968  -5.406   5.003  0.00  0.00    +0.044 A 
ATOM     22  C   UNL     1      -0.603  -6.494   4.220  0.00  0.00    +0.152 A 
ATOM     23  N   UNL     1      -0.072  -6.301   3.029  0.00  0.00    -0.137 NA
ATOM     24  N   UNL     1       0.127  -5.126   2.550  0.00  0.00    -0.141 NA
ATOM     25 CL   UNL     1      -0.845  -8.109   4.811  0.00  0.00    -0.060 Cl
ENDBRANCH  18  19
ENDBRANCH   4  18
TORSDOF 4
