REMARK  Name = ZINC08708141
REMARK  8 active torsions:
REMARK  status: ('A' for Active; 'I' for Inactive)
REMARK    1  A    between atoms: C_1  and  C_2
REMARK    2  A    between atoms: C_2  and  N_3
REMARK    3  A    between atoms: C_7  and  S_26
REMARK    4  A    between atoms: C_11  and  S_12
REMARK    5  A    between atoms: S_12  and  C_13
REMARK    6  A    between atoms: C_13  and  C_14
REMARK    7  A    between atoms: C_17  and  C_19
REMARK    8  A    between atoms: S_26  and  N_29
REMARK                            x       y       z     vdW  Elec       q    Type
REMARK                         _______ _______ _______ _____ _____    ______ ____
ROOT
ATOM      1  N   UNL     1      -2.103   1.072   1.277  0.00  0.00    -0.319 N 
ATOM      2  C   UNL     1      -2.535  -0.121   1.833  0.00  0.00    +0.070 A 
ATOM      3  C   UNL     1      -1.899  -1.154   2.504  0.00  0.00    +0.030 A 
ATOM      4  C   UNL     1      -2.628  -2.239   2.946  0.00  0.00    +0.030 A 
ATOM      5  C   UNL     1      -3.996  -2.304   2.721  0.00  0.00    +0.107 A 
ATOM      6  C   UNL     1      -4.644  -1.287   2.057  0.00  0.00    +0.058 A 
ATOM      7  C   UNL     1      -3.919  -0.181   1.603  0.00  0.00    +0.092 A 
ATOM      8  N   UNL     1      -4.264   0.950   0.935  0.00  0.00    -0.222 NA
ATOM      9  C   UNL     1      -3.200   1.691   0.746  0.00  0.00    +0.170 A 
ENDROOT
BRANCH   5  10
ATOM     10  S   UNL     1      -4.910  -3.697   3.292  0.00  0.00    +0.056 S 
ATOM     11  O   UNL     1      -6.075  -3.778   2.482  0.00  0.00    -0.153 OA
ATOM     12  O   UNL     1      -3.986  -4.770   3.407  0.00  0.00    -0.153 OA
BRANCH  10  13
ATOM     13  N   UNL     1      -5.425  -3.350   4.828  0.00  0.00    -0.204 NA
ATOM     14  H   UNL     1      -6.253  -3.730   5.160  0.00  0.00    +0.144 HD
ATOM     15  H   UNL     1      -4.898  -2.766   5.395  0.00  0.00    +0.144 HD
ENDBRANCH  10  13
ENDBRANCH   5  10
BRANCH   1  17
ATOM     16  C   UNL     1      -0.013   1.086   0.008  0.00  0.00    +0.027 C 
ATOM     17  C   UNL     1      -0.729   1.579   1.267  0.00  0.00    +0.121 C 
ENDBRANCH   1  17
BRANCH   9  18
ATOM     18  S   UNL     1      -3.184   3.251  -0.073  0.00  0.00    -0.081 S 
BRANCH  18  19
ATOM     19  C   UNL     1      -4.940   3.408  -0.484  0.00  0.00    +0.133 C 
BRANCH  19  20
ATOM     20  C   UNL     1      -5.171   4.707  -1.212  0.00  0.00    +0.059 A 
ATOM     21  C   UNL     1      -5.084   4.752  -2.568  0.00  0.00    +0.071 A 
ATOM     22  S   UNL     1      -5.441   6.480  -2.863  0.00  0.00    -0.075 S 
ATOM     23  C   UNL     1      -5.667   6.951  -1.153  0.00  0.00    +0.110 A 
ATOM     24  N   UNL     1      -5.463   5.795  -0.538  0.00  0.00    -0.243 NA
BRANCH  23  25
ATOM     25  C   UNL     1      -5.998   8.273  -0.580  0.00  0.00    +0.025 A 
ATOM     26  C   UNL     1      -6.179   9.375  -1.418  0.00  0.00    +0.012 A 
ATOM     27  C   UNL     1      -6.487  10.606  -0.877  0.00  0.00    +0.001 A 
ATOM     28  C   UNL     1      -6.618  10.750   0.493  0.00  0.00    +0.001 A 
ATOM     29  C   UNL     1      -6.441   9.664   1.329  0.00  0.00    +0.020 A 
ATOM     30  C   UNL     1      -6.136   8.424   0.801  0.00  0.00    +0.051 A 
ATOM     31 CL   UNL     1      -5.920   7.059   1.852  0.00  0.00    -0.083 Cl
ENDBRANCH  23  25
ENDBRANCH  19  20
ENDBRANCH  18  19
ENDBRANCH   9  18
TORSDOF 7
