REMARK  Name = ZINC20927424
REMARK  8 active torsions:
REMARK  status: ('A' for Active; 'I' for Inactive)
REMARK    1  A    between atoms: C_1  and  C_2
REMARK    2  A    between atoms: C_2  and  N_3
REMARK    3  A    between atoms: C_9  and  N_24
REMARK    4  A    between atoms: C_10  and  C_11
REMARK    5  A    between atoms: C_11  and  N_12
REMARK    6  A    between atoms: N_15  and  C_16
REMARK    7  A    between atoms: C_21  and  O_22
REMARK    8  A    between atoms: O_22  and  C_23
REMARK                            x       y       z     vdW  Elec       q    Type
REMARK                         _______ _______ _______ _____ _____    ______ ____
ROOT
ATOM      1  N   UNL     1      -4.948   0.397   3.111  0.00  0.00    +0.383 N 
ATOM      2  C   UNL     1      -4.628   1.810   2.866  0.00  0.00    -0.074 C 
ATOM      3  C   UNL     1      -3.369   1.926   2.004  0.00  0.00    +0.018 C 
ATOM      4  C   UNL     1      -3.558   1.056   0.764  0.00  0.00    -0.034 A 
ATOM      5  C   UNL     1      -4.519   0.091   0.765  0.00  0.00    -0.021 A 
ATOM      6  S   UNL     1      -4.384  -0.644  -0.841  0.00  0.00    -0.077 S 
ATOM      7  C   UNL     1      -3.047   0.369  -1.458  0.00  0.00    +0.089 A 
ATOM      8  C   UNL     1      -2.800   1.183  -0.397  0.00  0.00    +0.004 A 
ATOM      9  C   UNL     1      -5.453  -0.243   1.881  0.00  0.00    -0.035 C 
ATOM     10  H   UNL     1      -4.022  -0.114   3.414  0.00  0.00    -0.081 HD
ENDROOT
BRANCH   7  11
ATOM     11  N   UNL     1      -2.417   0.332  -2.707  0.00  0.00    -0.317 N 
ATOM     12  C   UNL     1      -3.048   0.287  -3.916  0.00  0.00    +0.092 A 
ATOM     13  C   UNL     1      -2.107   0.265  -4.883  0.00  0.00    +0.019 A 
ATOM     14  C   UNL     1      -0.849   0.287  -4.248  0.00  0.00    +0.019 A 
ATOM     15  C   UNL     1      -1.068   0.328  -2.917  0.00  0.00    +0.092 A 
ENDBRANCH   7  11
BRANCH   1  17
ATOM     16  C   UNL     1      -6.031  -1.216   4.603  0.00  0.00    -0.017 C 
ATOM     17  C   UNL     1      -5.912   0.259   4.211  0.00  0.00    -0.082 C 
ENDBRANCH   1  17
BRANCH   8  18
ATOM     18  C   UNL     1      -1.715   2.225  -0.481  0.00  0.00    +0.144 C 
BRANCH  18  19
ATOM     19  N   UNL     1      -0.447   1.646  -0.029  0.00  0.00    -0.295 N 
ATOM     20  C   UNL     1       0.672   2.397  -0.022  0.00  0.00    +0.304 C 
ATOM     21  O   UNL     1       0.629   3.556  -0.386  0.00  0.00    -0.252 OA
ATOM     22  N   UNL     1       1.840   1.863   0.388  0.00  0.00    -0.266 N 
ATOM     23  H   UNL     1      -0.408   0.599   0.305  0.00  0.00    +0.151 HD
ATOM     24  H   UNL     1       1.863   0.845   0.804  0.00  0.00    +0.156 HD
BRANCH  22  25
ATOM     25  C   UNL     1       3.025   2.604   0.284  0.00  0.00    +0.077 A 
ATOM     26  C   UNL     1       3.092   3.691  -0.575  0.00  0.00    +0.027 A 
ATOM     27  C   UNL     1       4.260   4.423  -0.673  0.00  0.00    +0.002 A 
ATOM     28  C   UNL     1       5.366   4.070   0.078  0.00  0.00    +0.004 A 
ATOM     29  C   UNL     1       5.308   2.985   0.933  0.00  0.00    +0.047 A 
ATOM     30  C   UNL     1       4.139   2.249   1.040  0.00  0.00    +0.141 A 
BRANCH  30  31
ATOM     31  O   UNL     1       4.081   1.181   1.880  0.00  0.00    -0.493 OA
ATOM     32  C   UNL     1       5.262   0.875   2.624  0.00  0.00    +0.277 C 
ENDBRANCH  30  31
ENDBRANCH  22  25
ENDBRANCH  18  19
ENDBRANCH   8  18
TORSDOF 6
