REMARK  Name = ZINC39934921
REMARK  11 active torsions:
REMARK  status: ('A' for Active; 'I' for Inactive)
REMARK    1  A    between atoms: C_1  and  C_2
REMARK    2  A    between atoms: C_2  and  O_3
REMARK    3  A    between atoms: O_3  and  C_4
REMARK    4  A    between atoms: C_4  and  C_6
REMARK    5  A    between atoms: C_6  and  O_7
REMARK    6  A    between atoms: O_7  and  C_8
REMARK    7  A    between atoms: C_11  and  C_15
REMARK    8  A    between atoms: C_16  and  C_17
REMARK    9  A    between atoms: C_16  and  C_19
REMARK   10  A    between atoms: C_25  and  O_29
REMARK   11  A    between atoms: O_29  and  C_30
REMARK                            x       y       z     vdW  Elec       q    Type
REMARK                         _______ _______ _______ _____ _____    ______ ____
ROOT
ATOM      1  C   UNL     1       3.874  -6.525  -6.732  0.00  0.00    +0.026 C 
ATOM      2  C   UNL     1       5.202  -6.761  -6.712  0.00  0.00    +0.072 C 
ENDROOT
BRANCH   2   3
ATOM      3  C   UNL     1       5.873  -7.399  -7.902  0.00  0.00    +0.216 C 
ATOM      4  N   UNL     1       6.549  -8.636  -7.495  0.00  0.00    -0.359 N 
ATOM      5  C   UNL     1       7.818  -8.492  -7.749  0.00  0.00    +0.061 A 
ATOM      6  C   UNL     1       8.972  -9.384  -7.560  0.00  0.00    +0.031 A 
ATOM      7  C   UNL     1      10.202  -8.971  -7.919  0.00  0.00    +0.048 A 
ATOM      8  C   UNL     1      10.433  -7.654  -8.497  0.00  0.00    +0.122 A 
ATOM      9  C   UNL     1       9.422  -6.776  -8.704  0.00  0.00    +0.073 A 
ATOM     10  C   UNL     1       8.053  -7.147  -8.339  0.00  0.00    +0.064 A 
ATOM     11  N   UNL     1       6.916  -6.510  -8.428  0.00  0.00    -0.359 N 
ATOM     12  H   UNL     1       6.127  -9.419  -7.107  0.00  0.00    +0.162 HD
ATOM     13  H   UNL     1       6.784  -5.614  -8.778  0.00  0.00    +0.162 HD
BRANCH   8  14
ATOM     14  O   UNL     1      11.696  -7.296  -8.839  0.00  0.00    -0.495 OA
ATOM     15  C   UNL     1      12.729  -8.256  -8.602  0.00  0.00    +0.277 C 
ENDBRANCH   8  14
ENDBRANCH   2   3
BRANCH   1  19
ATOM     16  C   UNL     1       2.059  -4.330  -3.587  0.00  0.00    +0.158 A 
ATOM     17  C   UNL     1       3.373  -4.059  -3.953  0.00  0.00    +0.085 A 
ATOM     18  C   UNL     1       3.967  -4.769  -4.974  0.00  0.00    +0.031 A 
ATOM     19  C   UNL     1       3.245  -5.765  -5.642  0.00  0.00    -0.021 A 
ATOM     20  C   UNL     1       1.923  -6.034  -5.270  0.00  0.00    +0.031 A 
ATOM     21  C   UNL     1       1.340  -5.322  -4.244  0.00  0.00    +0.085 A 
ATOM     22 CL   UNL     1      -0.297  -5.659  -3.777  0.00  0.00    -0.080 Cl
ATOM     23 CL   UNL     1       4.267  -2.823  -3.123  0.00  0.00    -0.080 Cl
BRANCH  16  24
ATOM     24  O   UNL     1       1.479  -3.627  -2.580  0.00  0.00    -0.478 OA
BRANCH  24  25
ATOM     25  C   UNL     1       1.619  -4.152  -1.258  0.00  0.00    +0.349 C 
BRANCH  25  26
ATOM     26  C   UNL     1       0.916  -3.246  -0.281  0.00  0.00    +0.345 C 
ATOM     27  O   UNL     1       0.352  -2.252  -0.676  0.00  0.00    -0.247 OA
BRANCH  26  28
ATOM     28  O   UNL     1       0.915  -3.542   1.028  0.00  0.00    -0.463 OA
BRANCH  28  30
ATOM     29  C   UNL     1       0.336  -3.138   3.340  0.00  0.00    +0.048 C 
ATOM     30  C   UNL     1       0.229  -2.639   1.898  0.00  0.00    +0.229 C 
ENDBRANCH  28  30
ENDBRANCH  26  28
ENDBRANCH  25  26
ENDBRANCH  24  25
ENDBRANCH  16  24
ENDBRANCH   1  19
BRANCH   2  31
ATOM     31  C   UNL     1       5.975  -6.406  -5.560  0.00  0.00    +0.099 C 
ATOM     32  N   UNL     1       6.588  -6.123  -4.646  0.00  0.00    -0.191 NA
ENDBRANCH   2  31
TORSDOF 9
