REMARK  Name = ZINC49779714
REMARK  7 active torsions:
REMARK  status: ('A' for Active; 'I' for Inactive)
REMARK    1  A    between atoms: C_1  and  N_2
REMARK    2  A    between atoms: N_2  and  C_3
REMARK    3  A    between atoms: N_2  and  C_4
REMARK    4  A    between atoms: C_4  and  C_6
REMARK    5  A    between atoms: C_4  and  C_21
REMARK    6  A    between atoms: C_6  and  N_7
REMARK    7  A    between atoms: N_10  and  N_11
REMARK                            x       y       z     vdW  Elec       q    Type
REMARK                         _______ _______ _______ _____ _____    ______ ____
ROOT
ATOM      1  N   UNL     1      -1.702   1.302  -1.405  0.00  0.00    -0.299 N 
ATOM      2  C   UNL     1      -2.076   1.923  -2.541  0.00  0.00    +0.316 C 
ATOM      3  O   UNL     1      -2.647   1.300  -3.415  0.00  0.00    -0.251 OA
ATOM      4  N   UNL     1      -1.817   3.235  -2.708  0.00  0.00    -0.219 N 
ATOM      5  H   UNL     1      -1.246   1.799  -0.708  0.00  0.00    +0.150 HD
ATOM      6  H   UNL     1      -2.087   3.683  -3.525  0.00  0.00    +0.174 HD
ENDROOT
BRANCH   4   7
ATOM      7  N   UNL     1      -1.160   3.953  -1.700  0.00  0.00    -0.246 N 
ATOM      8  C   UNL     1      -0.893   5.308  -1.872  0.00  0.00    +0.155 A 
ATOM      9  C   UNL     1      -0.234   6.013  -0.870  0.00  0.00    +0.083 A 
ATOM     10  C   UNL     1       0.026   7.361  -1.054  0.00  0.00    +0.046 A 
ATOM     11  C   UNL     1      -0.383   7.959  -2.239  0.00  0.00    +0.079 A 
ATOM     12  C   UNL     1      -1.033   7.197  -3.192  0.00  0.00    +0.150 A 
ATOM     13  N   UNL     1      -1.263   5.912  -2.990  0.00  0.00    -0.216 NA
ATOM     14 CL   UNL     1      -1.548   7.938  -4.675  0.00  0.00    -0.060 Cl
ATOM     15 CL   UNL     1      -0.083   9.646  -2.519  0.00  0.00    -0.080 Cl
ATOM     16 CL   UNL     1       0.255   5.215   0.592  0.00  0.00    -0.080 Cl
ATOM     17  H   UNL     1      -0.890   3.506  -0.883  0.00  0.00    +0.172 HD
ENDBRANCH   4   7
BRANCH   1  18
ATOM     18  C   UNL     1      -1.983  -0.125  -1.224  0.00  0.00    +0.098 C 
BRANCH  18  19
ATOM     19  C   UNL     1      -1.371  -0.601   0.095  0.00  0.00    +0.016 C 
BRANCH  19  20
ATOM     20  C   UNL     1       0.130  -0.488   0.023  0.00  0.00    +0.093 A 
ATOM     21  C   UNL     1       0.983  -1.497  -0.231  0.00  0.00    +0.043 A 
ATOM     22  C   UNL     1       2.285  -0.948  -0.204  0.00  0.00    +0.041 A 
ATOM     23  C   UNL     1       2.150   0.363   0.065  0.00  0.00    +0.195 A 
ATOM     24  O   UNL     1       0.842   0.637   0.196  0.00  0.00    -0.469 OA
ENDBRANCH  19  20
BRANCH  19  26
ATOM     25  C   UNL     1      -3.338   0.143   1.249  0.00  0.00    -0.096 C 
ATOM     26  N   UNL     1      -1.873   0.232   1.196  0.00  0.00    +0.384 N 
ATOM     27  C   UNL     1      -1.308  -0.244   2.466  0.00  0.00    -0.096 C 
ATOM     28  H   UNL     1      -1.599   1.191   1.044  0.00  0.00    -0.082 HD
ENDBRANCH  19  26
ENDBRANCH  18  19
ENDBRANCH   1  18
TORSDOF 5
