REMARK  Name = ZINC04577668
REMARK  19 active torsions:
REMARK  status: ('A' for Active; 'I' for Inactive)
REMARK    1  A    between atoms: C_1  and  C_2
REMARK    2  A    between atoms: C_2  and  C_3
REMARK    3  A    between atoms: C_2  and  C_4
REMARK    4  A    between atoms: C_8  and  C_34
REMARK    5  A    between atoms: C_9  and  N_10
REMARK    6  A    between atoms: C_11  and  C_13
REMARK    7  A    between atoms: C_13  and  C_15
REMARK    8  A    between atoms: C_13  and  N_18
REMARK    9  A    between atoms: C_15  and  C_16
REMARK   10  A    between atoms: C_15  and  C_17
REMARK   11  A    between atoms: N_21  and  C_22
REMARK   12  A    between atoms: C_23  and  C_31
REMARK   13  A    between atoms: C_27  and  C_28
REMARK   14  A    between atoms: C_28  and  C_29
REMARK   15  A    between atoms: C_28  and  C_30
REMARK   16  A    between atoms: C_31  and  C_32
REMARK   17  A    between atoms: C_31  and  C_33
REMARK   18  A    between atoms: C_34  and  C_35
REMARK   19  A    between atoms: C_34  and  C_36
REMARK                            x       y       z     vdW  Elec       q    Type
REMARK                         _______ _______ _______ _____ _____    ______ ____
ROOT
ATOM      1  C   UNL     1      -1.485   2.633  -1.835  0.00  0.00    +0.163 C 
ENDROOT
BRANCH   1   2
ATOM      2  N   UNL     1      -2.873   2.863  -1.426  0.00  0.00    -0.288 N 
ATOM      3  C   UNL     1      -3.872   2.715  -2.318  0.00  0.00    +0.304 C 
ATOM      4  O   UNL     1      -3.621   2.391  -3.463  0.00  0.00    -0.252 OA
ATOM      5  N   UNL     1      -5.148   2.927  -1.942  0.00  0.00    -0.269 N 
ATOM      6  H   UNL     1      -3.073   3.122  -0.513  0.00  0.00    +0.151 HD
ATOM      7  H   UNL     1      -5.877   2.654  -2.522  0.00  0.00    +0.156 HD
BRANCH   5   8
ATOM      8  C   UNL     1      -5.423   3.542  -0.716  0.00  0.00    +0.042 A 
ATOM      9  C   UNL     1      -4.923   4.809  -0.445  0.00  0.00    -0.023 A 
ATOM     10  C   UNL     1      -5.200   5.415   0.765  0.00  0.00    +0.006 A 
ATOM     11  C   UNL     1      -5.967   4.758   1.710  0.00  0.00    +0.001 A 
ATOM     12  C   UNL     1      -6.463   3.495   1.445  0.00  0.00    +0.006 A 
ATOM     13  C   UNL     1      -6.193   2.885   0.235  0.00  0.00    -0.023 A 
BRANCH  13  14
ATOM     14  C   UNL     1      -6.734   1.508  -0.053  0.00  0.00    +0.015 C 
ATOM     15  C   UNL     1      -6.196   0.522   0.986  0.00  0.00    +0.012 C 
ATOM     16  C   UNL     1      -8.262   1.536   0.014  0.00  0.00    +0.012 C 
ENDBRANCH  13  14
BRANCH   9  17
ATOM     17  C   UNL     1      -4.082   5.523  -1.471  0.00  0.00    +0.015 C 
ATOM     18  C   UNL     1      -4.987   6.101  -2.560  0.00  0.00    +0.012 C 
ATOM     19  C   UNL     1      -3.308   6.657  -0.796  0.00  0.00    +0.012 C 
ENDBRANCH   9  17
ENDBRANCH   5   8
ENDBRANCH   1   2
BRANCH   1  21
ATOM     20  N   UNL     1       0.773   3.348  -1.122  0.00  0.00    -0.283 N 
ATOM     21  C   UNL     1      -0.560   3.412  -0.935  0.00  0.00    +0.238 C 
ATOM     22  O   UNL     1      -1.016   4.093  -0.041  0.00  0.00    -0.273 OA
ATOM     23  H   UNL     1       1.139   2.771  -1.810  0.00  0.00    +0.155 HD
BRANCH  20  29
ATOM     24  C   UNL     1       1.595   3.979   1.060  0.00  0.00    -0.023 A 
ATOM     25  C   UNL     1       2.445   4.732   1.846  0.00  0.00    +0.006 A 
ATOM     26  C   UNL     1       3.321   5.627   1.260  0.00  0.00    +0.001 A 
ATOM     27  C   UNL     1       3.353   5.768  -0.116  0.00  0.00    +0.006 A 
ATOM     28  C   UNL     1       2.509   5.013  -0.908  0.00  0.00    -0.023 A 
ATOM     29  C   UNL     1       1.629   4.114  -0.322  0.00  0.00    +0.040 A 
BRANCH  24  31
ATOM     30  C   UNL     1       1.374   1.713   2.041  0.00  0.00    +0.012 C 
ATOM     31  C   UNL     1       0.636   3.009   1.700  0.00  0.00    +0.015 C 
ATOM     32  C   UNL     1       0.068   3.624   2.981  0.00  0.00    +0.012 C 
ENDBRANCH  24  31
BRANCH  28  33
ATOM     33  C   UNL     1       2.545   5.167  -2.407  0.00  0.00    +0.015 C 
ATOM     34  C   UNL     1       2.207   6.612  -2.779  0.00  0.00    +0.012 C 
ATOM     35  C   UNL     1       3.943   4.821  -2.922  0.00  0.00    +0.012 C 
ENDBRANCH  28  33
ENDBRANCH  20  29
ENDBRANCH   1  21
BRANCH   1  36
ATOM     36  C   UNL     1      -1.163   1.141  -1.728  0.00  0.00    +0.012 C 
ATOM     37  C   UNL     1      -1.470   0.653  -0.311  0.00  0.00    +0.009 C 
ATOM     38  C   UNL     1      -2.015   0.362  -2.732  0.00  0.00    +0.009 C 
ENDBRANCH   1  36
TORSDOF 9
