REMARK  Name = ZINC11842020
REMARK  8 active torsions:
REMARK  status: ('A' for Active; 'I' for Inactive)
REMARK    1  A    between atoms: C_1  and  C_2
REMARK    2  A    between atoms: C_2  and  C_19
REMARK    3  A    between atoms: N_5  and  C_9
REMARK    4  A    between atoms: C_9  and  C_10
REMARK    5  A    between atoms: C_10  and  C_11
REMARK    6  A    between atoms: C_14  and  O_17
REMARK    7  A    between atoms: O_17  and  C_18
REMARK    8  A    between atoms: C_24  and  N_60
REMARK                            x       y       z     vdW  Elec       q    Type
REMARK                         _______ _______ _______ _____ _____    ______ ____
ROOT
ATOM      1  C   UNL     1      -0.365   5.978  -0.427  0.00  0.00    +0.042 C 
ATOM      2  C   UNL     1       0.549   5.636   0.751  0.00  0.00    +0.112 C 
ATOM      3  C   UNL     1       0.018   6.240   2.036  0.00  0.00    +0.247 C 
ATOM      4  O   UNL     1      -1.046   6.010   2.569  0.00  0.00    -0.273 OA
ATOM      5  N   UNL     1       0.974   7.089   2.462  0.00  0.00    -0.224 N 
ATOM      6  C   UNL     1       2.025   7.104   1.634  0.00  0.00    +0.309 C 
ATOM      7  O   UNL     1       3.012   7.792   1.807  0.00  0.00    -0.252 OA
ATOM      8  N   UNL     1       1.867   6.274   0.587  0.00  0.00    -0.285 N 
ATOM      9  H   UNL     1       2.497   6.124  -0.134  0.00  0.00    +0.151 HD
ENDROOT
BRANCH   2  10
ATOM     10  C   UNL     1       0.699   4.120   0.891  0.00  0.00    +0.018 C 
ATOM     11  C   UNL     1       1.221   3.533  -0.423  0.00  0.00    -0.013 C 
ATOM     12  C   UNL     1       1.310   2.011  -0.297  0.00  0.00    -0.078 C 
ATOM     13  C   UNL     1      -0.520   1.977   1.292  0.00  0.00    -0.078 C 
ATOM     14  C   UNL     1      -0.664   3.499   1.213  0.00  0.00    -0.013 C 
ATOM     15  N   UNL     1      -0.037   1.473  -0.012  0.00  0.00    +0.382 N 
ATOM     16  H   UNL     1      -0.682   1.782  -0.748  0.00  0.00    -0.081 HD
BRANCH  15  17
ATOM     17  C   UNL     1       0.002  -0.004   0.002  0.00  0.00    -0.058 C 
ATOM     18  C   UNL     1       0.847  -0.485   1.172  0.00  0.00    -0.004 C 
ATOM     19  C   UNL     1       0.084  -1.393   2.163  0.00  0.00    +0.067 C 
ATOM     20  S   UNL     1      -1.290  -2.014   1.098  0.00  0.00    -0.162 S 
ATOM     21  C   UNL     1      -1.455  -0.517   0.030  0.00  0.00    +0.054 C 
ENDBRANCH  15  17
ENDBRANCH   2  10
BRANCH   5  22
ATOM     22  C   UNL     1       0.876   7.895   3.681  0.00  0.00    +0.122 C 
BRANCH  22  23
ATOM     23  C   UNL     1       0.231   9.243   3.350  0.00  0.00    +0.054 C 
BRANCH  23  24
ATOM     24  C   UNL     1       0.129  10.073   4.604  0.00  0.00    -0.046 A 
ATOM     25  C   UNL     1      -1.002   9.993   5.395  0.00  0.00    +0.007 A 
ATOM     26  C   UNL     1      -1.095  10.748   6.548  0.00  0.00    +0.046 A 
ATOM     27  C   UNL     1      -0.057  11.596   6.906  0.00  0.00    +0.120 A 
ATOM     28  C   UNL     1       1.075  11.678   6.108  0.00  0.00    +0.046 A 
ATOM     29  C   UNL     1       1.165  10.917   4.959  0.00  0.00    +0.007 A 
BRANCH  27  30
ATOM     30  O   UNL     1      -0.148  12.343   8.037  0.00  0.00    -0.495 OA
ATOM     31  C   UNL     1      -1.343  12.207   8.810  0.00  0.00    +0.277 C 
ENDBRANCH  27  30
ENDBRANCH  23  24
ENDBRANCH  22  23
ENDBRANCH   5  22
TORSDOF 6
