REMARK  Name = ZINC34774503
REMARK  7 active torsions:
REMARK  status: ('A' for Active; 'I' for Inactive)
REMARK    1  A    between atoms: C_4  and  C_7
REMARK    2  A    between atoms: C_12  and  N_25
REMARK    3  A    between atoms: C_14  and  S_16
REMARK    4  A    between atoms: S_16  and  C_17
REMARK    5  A    between atoms: C_17  and  C_18
REMARK    6  A    between atoms: N_28  and  C_31
REMARK    7  A    between atoms: C_31  and  C_32
REMARK                            x       y       z     vdW  Elec       q    Type
REMARK                         _______ _______ _______ _____ _____    ______ ____
ROOT
ATOM      1  C   UNL     1       3.888  -0.371   0.274  0.00  0.00    +0.002 A 
ATOM      2  C   UNL     1       4.881   0.011  -0.562  0.00  0.00    +0.056 A 
ATOM      3  S   UNL     1       6.167  -1.185  -0.253  0.00  0.00    -0.076 S 
ATOM      4  C   UNL     1       5.350  -2.163   0.981  0.00  0.00    +0.115 A 
ATOM      5  C   UNL     1       4.097  -1.535   1.130  0.00  0.00    +0.055 A 
ATOM      6  C   UNL     1       3.225  -2.126   2.083  0.00  0.00    +0.134 A 
ATOM      7  N   UNL     1       3.625  -3.192   2.756  0.00  0.00    -0.206 NA
ATOM      8  C   UNL     1       4.824  -3.732   2.570  0.00  0.00    +0.191 A 
ATOM      9  N   UNL     1       5.675  -3.229   1.687  0.00  0.00    -0.214 NA
ENDROOT
BRANCH   6  10
ATOM     10  N   UNL     1       1.968  -1.591   2.305  0.00  0.00    -0.318 N 
ATOM     11  C   UNL     1       0.761  -2.262   1.799  0.00  0.00    +0.088 C 
ATOM     12  C   UNL     1      -0.241  -2.394   2.951  0.00  0.00    -0.059 C 
ATOM     13  N   UNL     1      -0.484  -1.071   3.541  0.00  0.00    +0.387 N 
ATOM     14  C   UNL     1       0.751  -0.559   4.147  0.00  0.00    -0.059 C 
ATOM     15  C   UNL     1       1.801  -0.339   3.059  0.00  0.00    +0.088 C 
ATOM     16  H   UNL     1      -0.792  -0.435   2.821  0.00  0.00    -0.081 HD
BRANCH  13  17
ATOM     17  C   UNL     1      -1.525  -1.180   4.571  0.00  0.00    +0.018 C 
BRANCH  17  18
ATOM     18  C   UNL     1      -1.863   0.193   5.091  0.00  0.00    +0.194 C 
ATOM     19  O   UNL     1      -1.293   1.167   4.646  0.00  0.00    -0.278 OA
ATOM     20  N   UNL     1      -2.799   0.339   6.050  0.00  0.00    -0.331 N 
ATOM     21  H   UNL     1      -3.255  -0.440   6.405  0.00  0.00    +0.145 HD
ATOM     22  H   UNL     1      -3.017   1.223   6.384  0.00  0.00    +0.145 HD
ENDBRANCH  17  18
ENDBRANCH  13  17
ENDBRANCH   6  10
BRANCH   1  26
ATOM     23  C   UNL     1       0.230   1.791   0.415  0.00  0.00    +0.000 A 
ATOM     24  C   UNL     1       1.419   2.428   0.720  0.00  0.00    +0.001 A 
ATOM     25  C   UNL     1       2.610   1.732   0.676  0.00  0.00    +0.008 A 
ATOM     26  C   UNL     1       2.612   0.383   0.323  0.00  0.00    -0.017 A 
ATOM     27  C   UNL     1       1.411  -0.255   0.017  0.00  0.00    +0.008 A 
ATOM     28  C   UNL     1       0.226   0.452   0.064  0.00  0.00    +0.001 A 
ENDBRANCH   1  26
BRANCH   8  29
ATOM     29  S   UNL     1       5.286  -5.153   3.505  0.00  0.00    -0.081 S 
BRANCH  29  30
ATOM     30  C   UNL     1       6.964  -5.530   2.929  0.00  0.00    +0.112 C 
BRANCH  30  31
ATOM     31  C   UNL     1       7.485  -6.741   3.659  0.00  0.00    -0.037 A 
ATOM     32  C   UNL     1       8.171  -6.588   4.850  0.00  0.00    +0.006 A 
ATOM     33  C   UNL     1       8.649  -7.699   5.519  0.00  0.00    +0.020 A 
ATOM     34  C   UNL     1       8.441  -8.963   4.998  0.00  0.00    +0.041 A 
ATOM     35  C   UNL     1       7.755  -9.116   3.807  0.00  0.00    +0.020 A 
ATOM     36  C   UNL     1       7.272  -8.005   3.140  0.00  0.00    +0.006 A 
ATOM     37 CL   UNL     1       9.042 -10.359   5.838  0.00  0.00    -0.084 Cl
ENDBRANCH  30  31
ENDBRANCH  29  30
ENDBRANCH   8  29
TORSDOF 7
