REMARK  Name = ZINC02096390
REMARK  10 active torsions:
REMARK  status: ('A' for Active; 'I' for Inactive)
REMARK    1  A    between atoms: C_1  and  N_2
REMARK    2  A    between atoms: C_6  and  C_7
REMARK    3  A    between atoms: N_8  and  N_9
REMARK    4  A    between atoms: C_10  and  C_12
REMARK    5  A    between atoms: C_12  and  N_23
REMARK    6  A    between atoms: C_13  and  C_14
REMARK    7  A    between atoms: C_17  and  N_20
REMARK    8  A    between atoms: N_20  and  C_21
REMARK    9  A    between atoms: N_20  and  C_22
REMARK   10  A    between atoms: C_24  and  C_26
REMARK                            x       y       z     vdW  Elec       q    Type
REMARK                         _______ _______ _______ _____ _____    ______ ____
ROOT
ATOM      1  C   UNL     1       0.847   1.604   0.858  0.00  0.00    +0.098 C 
ATOM      2  C   UNL     1       0.921   2.956   0.789  0.00  0.00    +0.036 C 
ENDROOT
BRANCH   2   3
ATOM      3  C   UNL     1      -0.306   3.752   0.647  0.00  0.00    -0.023 A 
ATOM      4  C   UNL     1      -1.502   3.135   0.261  0.00  0.00    +0.010 A 
ATOM      5  C   UNL     1      -2.650   3.884   0.134  0.00  0.00    +0.023 A 
ATOM      6  C   UNL     1      -2.620   5.254   0.378  0.00  0.00    +0.029 A 
ATOM      7  C   UNL     1      -1.432   5.872   0.756  0.00  0.00    +0.023 A 
ATOM      8  C   UNL     1      -0.280   5.130   0.891  0.00  0.00    +0.010 A 
BRANCH   6   9
ATOM      9  N   UNL     1      -3.783   6.009   0.242  0.00  0.00    -0.336 N 
ATOM     10  C   UNL     1      -3.783   7.426   0.613  0.00  0.00    +0.129 C 
ATOM     11  C   UNL     1      -5.005   5.386  -0.272  0.00  0.00    +0.129 C 
ENDBRANCH   6   9
ENDBRANCH   2   3
BRANCH   1  13
ATOM     12  N   UNL     1       2.001  -0.544   0.895  0.00  0.00    -0.202 N 
ATOM     13  C   UNL     1       2.074   0.800   0.826  0.00  0.00    +0.277 C 
ATOM     14  O   UNL     1       3.158   1.347   0.738  0.00  0.00    -0.267 OA
ATOM     15  H   UNL     1       1.137  -0.980   0.965  0.00  0.00    +0.178 HD
BRANCH  12  17
ATOM     16  C   UNL     1       3.102  -2.609   0.930  0.00  0.00    +0.156 C 
ATOM     17  N   UNL     1       3.172  -1.312   0.864  0.00  0.00    -0.186 NA
BRANCH  16  23
ATOM     18  C   UNL     1       3.262  -5.697   1.069  0.00  0.00    +0.149 C 
ATOM     19  N   UNL     1       4.402  -4.784   0.960  0.00  0.00    -0.349 N 
ATOM     20  C   UNL     1       5.713  -5.152   0.902  0.00  0.00    +0.086 A 
ATOM     21  C   UNL     1       6.474  -4.039   0.805  0.00  0.00    +0.020 A 
ATOM     22  C   UNL     1       5.615  -2.931   0.796  0.00  0.00    +0.029 A 
ATOM     23  C   UNL     1       4.328  -3.413   0.899  0.00  0.00    +0.061 A 
ENDBRANCH  16  23
ENDBRANCH  12  17
ENDBRANCH   1  13
BRANCH   1  24
ATOM     24  N   UNL     1      -0.399   0.976   0.960  0.00  0.00    -0.277 N 
ATOM     25  C   UNL     1      -0.770   0.063   0.040  0.00  0.00    +0.250 C 
ATOM     26  O   UNL     1       0.017  -0.291  -0.817  0.00  0.00    -0.270 OA
ATOM     27  H   UNL     1      -0.994   1.194   1.694  0.00  0.00    +0.155 HD
BRANCH  25  28
ATOM     28  C   UNL     1      -2.132  -0.507   0.073  0.00  0.00    +0.055 A 
ATOM     29  C   UNL     1      -3.078  -0.013   0.974  0.00  0.00    +0.014 A 
ATOM     30  C   UNL     1      -4.349  -0.547   0.998  0.00  0.00    +0.001 A 
ATOM     31  C   UNL     1      -4.687  -1.578   0.137  0.00  0.00    +0.001 A 
ATOM     32  C   UNL     1      -3.755  -2.077  -0.754  0.00  0.00    +0.021 A 
ATOM     33  C   UNL     1      -2.479  -1.548  -0.792  0.00  0.00    +0.053 A 
ATOM     34 CL   UNL     1      -1.309  -2.176  -1.911  0.00  0.00    -0.083 Cl
ENDBRANCH  25  28
ENDBRANCH   1  24
TORSDOF 7
