REMARK  Name = ZINC38639795
REMARK  10 active torsions:
REMARK  status: ('A' for Active; 'I' for Inactive)
REMARK    1  A    between atoms: C_1  and  C_2
REMARK    2  A    between atoms: C_5  and  N_9
REMARK    3  A    between atoms: C_6  and  C_8
REMARK    4  A    between atoms: C_10  and  C_12
REMARK    5  A    between atoms: C_14  and  C_36
REMARK    6  A    between atoms: C_18  and  C_22
REMARK    7  A    between atoms: C_22  and  O_23
REMARK    8  A    between atoms: O_23  and  C_24
REMARK    9  A    between atoms: C_24  and  C_26
REMARK   10  A    between atoms: C_27  and  C_28
REMARK                            x       y       z     vdW  Elec       q    Type
REMARK                         _______ _______ _______ _____ _____    ______ ____
ROOT
ATOM      1  C   UNL     1      -0.134  -6.343  -1.187  0.00  0.00    +0.165 C 
ATOM      2  C   UNL     1      -0.865  -6.839  -2.413  0.00  0.00    -0.036 C 
ATOM      3  C   UNL     1      -0.193  -7.628  -3.264  0.00  0.00    +0.071 C 
ATOM      4  C   UNL     1       1.212  -7.951  -2.937  0.00  0.00    +0.112 C 
ATOM      5  N   UNL     1       1.923  -8.718  -3.729  0.00  0.00    -0.224 NA
ATOM      6  C   UNL     1       1.409  -9.225  -4.839  0.00  0.00    +0.161 C 
ATOM      7  N   UNL     1       0.176  -9.007  -5.230  0.00  0.00    -0.158 NA
ATOM      8  C   UNL     1      -0.679  -8.248  -4.538  0.00  0.00    +0.271 C 
ATOM      9  O   UNL     1      -1.819  -8.066  -4.931  0.00  0.00    -0.268 OA
ATOM     10  S   UNL     1       1.525  -7.106  -1.406  0.00  0.00    -0.088 S 
ATOM     11  C   UNL     1      -2.301  -6.462  -2.671  0.00  0.00    +0.041 C 
ENDROOT
BRANCH   1  13
ATOM     12  N   UNL     1       0.059  -4.170  -0.021  0.00  0.00    -0.284 N 
ATOM     13  C   UNL     1      -0.040  -4.839  -1.187  0.00  0.00    +0.235 C 
ATOM     14  O   UNL     1      -0.054  -4.230  -2.236  0.00  0.00    -0.274 OA
ATOM     15  H   UNL     1       0.135  -4.658   0.814  0.00  0.00    +0.155 HD
BRANCH  12  20
ATOM     16  C   UNL     1       0.025   1.503   0.005  0.00  0.00    +0.044 C 
ATOM     17  C   UNL     1       0.034  -0.004  -0.002  0.00  0.00    -0.050 A 
ATOM     18  C   UNL     1       0.632  -0.685  -1.046  0.00  0.00    +0.005 A 
ATOM     19  C   UNL     1       0.641  -2.066  -1.055  0.00  0.00    +0.024 A 
ATOM     20  C   UNL     1       0.051  -2.771  -0.014  0.00  0.00    +0.036 A 
ATOM     21  C   UNL     1      -0.548  -2.083   1.033  0.00  0.00    -0.029 A 
ATOM     22  C   UNL     1      -0.550  -0.702   1.039  0.00  0.00    +0.008 A 
ATOM     23  C   UNL     1      -1.190  -2.843   2.165  0.00  0.00    +0.045 C 
ENDBRANCH  12  20
ENDBRANCH   1  13
BRANCH   6  24
ATOM     24  C   UNL     1       2.287 -10.097  -5.699  0.00  0.00    +0.305 C 
BRANCH  24  25
ATOM     25  O   UNL     1       1.549 -10.539  -6.840  0.00  0.00    -0.454 OA
BRANCH  25  26
ATOM     26  C   UNL     1       2.195 -11.335  -7.717  0.00  0.00    +0.332 C 
ATOM     27  O   UNL     1       3.354 -11.645  -7.517  0.00  0.00    -0.246 OA
BRANCH  26  28
ATOM     28  C   UNL     1       1.502 -11.825  -8.908  0.00  0.00    +0.092 C 
ATOM     29  C   UNL     1       2.148 -12.621  -9.785  0.00  0.00    +0.015 C 
BRANCH  29  30
ATOM     30  C   UNL     1       1.450 -13.114 -10.983  0.00  0.00    -0.022 A 
ATOM     31  C   UNL     1       0.119 -12.755 -11.219  0.00  0.00    +0.008 A 
ATOM     32  C   UNL     1      -0.529 -13.220 -12.344  0.00  0.00    +0.003 A 
ATOM     33  C   UNL     1       0.134 -14.041 -13.239  0.00  0.00    +0.038 A 
ATOM     34  C   UNL     1       1.453 -14.402 -13.013  0.00  0.00    +0.124 A 
ATOM     35  C   UNL     1       2.117 -13.939 -11.894  0.00  0.00    +0.046 A 
ATOM     36  F   UNL     1       2.092 -15.204 -13.893  0.00  0.00    -0.205 F 
ENDBRANCH  29  30
ENDBRANCH  26  28
ENDBRANCH  25  26
ENDBRANCH  24  25
ENDBRANCH   6  24
TORSDOF 7
