REMARK  Name = ZINC64219440
REMARK  7 active torsions:
REMARK  status: ('A' for Active; 'I' for Inactive)
REMARK    1  A    between atoms: C_1  and  C_2
REMARK    2  A    between atoms: C_2  and  C_3
REMARK    3  A    between atoms: C_2  and  C_4
REMARK    4  A    between atoms: C_2  and  C_5
REMARK    5  A    between atoms: C_5  and  C_6
REMARK    6  A    between atoms: N_13  and  C_14
REMARK    7  A    between atoms: C_20  and  C_22
REMARK                            x       y       z     vdW  Elec       q    Type
REMARK                         _______ _______ _______ _____ _____    ______ ____
ROOT
ATOM      1  C   UNL     1       2.340   0.688  -0.904  0.00  0.00    +0.078 C 
ATOM      2  C   UNL     1       3.203  -0.117  -1.897  0.00  0.00    +0.024 C 
ATOM      3  C   UNL     1       3.895   0.991  -2.735  0.00  0.00    +0.021 C 
ATOM      4  C   UNL     1       2.780   2.064  -2.811  0.00  0.00    +0.109 C 
ATOM      5  N   UNL     1       2.119   2.017  -1.494  0.00  0.00    -0.283 N 
ATOM      6  C   UNL     1       1.428   3.024  -0.926  0.00  0.00    +0.303 C 
ATOM      7  O   UNL     1       1.003   2.906   0.207  0.00  0.00    -0.253 OA
ATOM      8  N   UNL     1       1.207   4.162  -1.614  0.00  0.00    -0.296 N 
ATOM      9  H   UNL     1       1.545   4.256  -2.518  0.00  0.00    +0.151 HD
ENDROOT
BRANCH   8  10
ATOM     10  C   UNL     1       0.455   5.257  -0.996  0.00  0.00    +0.077 C 
ATOM     11  C   UNL     1      -1.045   5.019  -1.190  0.00  0.00    +0.041 C 
ATOM     12  C   UNL     1      -1.829   6.148  -0.513  0.00  0.00    +0.110 C 
ATOM     13  N   UNL     1      -1.349   7.435  -1.034  0.00  0.00    -0.297 N 
ATOM     14  C   UNL     1       0.090   7.728  -0.979  0.00  0.00    +0.110 C 
ATOM     15  C   UNL     1       0.852   6.582  -1.651  0.00  0.00    +0.041 C 
ATOM     16  C   UNL     1      -2.213   8.331  -1.553  0.00  0.00    +0.250 C 
ATOM     17  O   UNL     1      -1.795   9.350  -2.068  0.00  0.00    -0.270 OA
BRANCH  16  18
ATOM     18  C   UNL     1      -3.663   8.074  -1.496  0.00  0.00    +0.074 A 
ATOM     19  C   UNL     1      -4.392   7.315  -0.469  0.00  0.00    +0.054 A 
ATOM     20  C   UNL     1      -5.683   7.349  -0.833  0.00  0.00    +0.195 A 
ATOM     21  O   UNL     1      -5.801   8.049  -1.972  0.00  0.00    -0.470 OA
ATOM     22  C   UNL     1      -4.610   8.496  -2.383  0.00  0.00    +0.207 A 
ENDBRANCH  16  18
ENDBRANCH   8  10
BRANCH   1  23
ATOM     23  C   UNL     1       0.998  -0.015  -0.691  0.00  0.00    +0.028 C 
BRANCH  23  25
ATOM     24  C   UNL     1       2.016  -1.054   1.341  0.00  0.00    +0.010 C 
ATOM     25  C   UNL     1       1.224  -1.329   0.061  0.00  0.00    -0.036 C 
ATOM     26  C   UNL     1       2.010  -2.296  -0.828  0.00  0.00    +0.010 C 
ATOM     27  C   UNL     1      -0.127  -1.950   0.420  0.00  0.00    +0.010 C 
ENDBRANCH  23  25
ENDBRANCH   1  23
TORSDOF 4
