REMARK  Name = ZINC64245521
REMARK  6 active torsions:
REMARK  status: ('A' for Active; 'I' for Inactive)
REMARK    1  A    between atoms: C_1  and  C_2
REMARK    2  A    between atoms: C_2  and  C_4
REMARK    3  A    between atoms: C_2  and  N_10
REMARK    4  A    between atoms: N_13  and  C_14
REMARK    5  A    between atoms: C_14  and  C_15
REMARK    6  A    between atoms: C_15  and  C_16
REMARK                            x       y       z     vdW  Elec       q    Type
REMARK                         _______ _______ _______ _____ _____    ______ ____
ROOT
ATOM      1  N   UNL     1       0.688  -0.476  -1.203  0.00  0.00    -0.294 N 
ATOM      2  C   UNL     1       0.006  -0.608  -2.358  0.00  0.00    +0.300 C 
ATOM      3  O   UNL     1      -1.178  -0.335  -2.400  0.00  0.00    -0.253 OA
ATOM      4  N   UNL     1       0.637  -1.043  -3.467  0.00  0.00    -0.299 N 
ATOM      5  H   UNL     1       1.632  -0.695  -1.170  0.00  0.00    +0.151 HD
ATOM      6  H   UNL     1       1.582  -1.261  -3.434  0.00  0.00    +0.150 HD
ENDROOT
BRANCH   1   8
ATOM      7  C   UNL     1      -0.019   1.526   0.010  0.00  0.00    +0.030 C 
ATOM      8  C   UNL     1       0.002  -0.004   0.002  0.00  0.00    +0.100 C 
BRANCH   8   9
ATOM      9  C   UNL     1       0.742  -0.511   1.242  0.00  0.00    +0.138 C 
ATOM     10  C   UNL     1      -0.040  -0.120   2.514  0.00  0.00    +0.035 C 
ATOM     11  C   UNL     1       1.101   0.265   3.496  0.00  0.00    +0.031 C 
ATOM     12  C   UNL     1       2.131   0.888   2.521  0.00  0.00    +0.160 C 
ATOM     13  O   UNL     1       2.034   0.102   1.320  0.00  0.00    -0.375 OA
ENDBRANCH   8   9
ENDBRANCH   1   8
BRANCH   4  14
ATOM     14  C   UNL     1      -0.104  -1.186  -4.723  0.00  0.00    +0.110 C 
BRANCH  14  15
ATOM     15  C   UNL     1       0.839  -1.692  -5.817  0.00  0.00    +0.052 C 
BRANCH  15  16
ATOM     16  C   UNL     1       0.077  -1.839  -7.109  0.00  0.00    -0.040 C 
ATOM     17  C   UNL     1      -0.008  -0.934  -8.110  0.00  0.00    -0.001 A 
ATOM     18  C   UNL     1       0.562   0.407  -8.290  0.00  0.00    +0.010 A 
ATOM     19  C   UNL     1       0.292   1.087  -9.428  0.00  0.00    +0.001 A 
ATOM     20  C   UNL     1      -0.515   0.545 -10.437  0.00  0.00    +0.002 A 
ATOM     21  C   UNL     1      -1.074  -0.680 -10.344  0.00  0.00    +0.026 A 
ATOM     22  C   UNL     1      -0.857  -1.484  -9.191  0.00  0.00    +0.043 A 
ATOM     23  N   UNL     1      -1.281  -2.682  -8.870  0.00  0.00    -0.380 N 
ATOM     24  C   UNL     1      -0.743  -3.031  -7.550  0.00  0.00    +0.144 C 
ATOM     25  H   UNL     1      -1.851  -3.246  -9.415  0.00  0.00    +0.160 HD
ENDBRANCH  15  16
ENDBRANCH  14  15
ENDBRANCH   4  14
TORSDOF 5
