REMARK  Name = ZINC39480611
REMARK  11 active torsions:
REMARK  status: ('A' for Active; 'I' for Inactive)
REMARK    1  A    between atoms: C_1  and  C_2
REMARK    2  A    between atoms: C_2  and  C_3
REMARK    3  A    between atoms: C_2  and  S_4
REMARK    4  A    between atoms: S_4  and  C_7
REMARK    5  A    between atoms: C_11  and  S_13
REMARK    6  A    between atoms: S_13  and  C_16
REMARK    7  A    between atoms: C_16  and  C_17
REMARK    8  A    between atoms: C_16  and  C_18
REMARK    9  A    between atoms: N_19  and  C_32
REMARK   10  A    between atoms: C_28  and  S_30
REMARK   11  A    between atoms: S_30  and  C_31
REMARK                            x       y       z     vdW  Elec       q    Type
REMARK                         _______ _______ _______ _____ _____    ______ ____
ROOT
ATOM      1  C   UNL     1      -2.489  -3.089   0.601  0.00  0.00    +0.091 A 
ATOM      2  C   UNL     1      -2.312  -3.677  -0.648  0.00  0.00    +0.033 A 
ATOM      3  C   UNL     1      -1.726  -4.894  -0.698  0.00  0.00    -0.016 A 
ATOM      4  C   UNL     1      -1.477  -5.619   0.458  0.00  0.00    +0.064 A 
ATOM      5  C   UNL     1      -1.471  -4.995   1.679  0.00  0.00    +0.112 A 
ATOM      6  C   UNL     1      -2.002  -3.710   1.740  0.00  0.00    +0.055 A 
ATOM      7  N   UNL     1      -1.754  -6.967   0.280  0.00  0.00    -0.285 N 
ATOM      8  C   UNL     1      -1.245  -8.072   0.892  0.00  0.00    +0.156 A 
ATOM      9  C   UNL     1      -0.526  -8.712  -0.224  0.00  0.00    +0.142 A 
ATOM     10  C   UNL     1       0.148  -9.861   0.036  0.00  0.00    +0.160 A 
ATOM     11  N   UNL     1       0.115 -10.357   1.275  0.00  0.00    -0.222 NA
ATOM     12  C   UNL     1      -0.555  -9.759   2.240  0.00  0.00    +0.225 A 
ATOM     13  N   UNL     1      -1.228  -8.629   2.045  0.00  0.00    -0.218 NA
ATOM     14 CL   UNL     1       1.037 -10.669  -1.218  0.00  0.00    -0.060 Cl
ATOM     15  N   UNL     1      -0.730  -7.964  -1.344  0.00  0.00    -0.239 NA
ATOM     16  C   UNL     1      -0.350  -6.728  -1.330  0.00  0.00    +0.079 C 
ATOM     17  C   UNL     1      -1.061  -5.527  -1.937  0.00  0.00    +0.099 C 
ATOM     18  C   UNL     1      -2.767  -7.249  -0.740  0.00  0.00    +0.137 C 
ENDROOT
BRANCH   1  19
ATOM     19  S   UNL     1      -3.330  -1.546   0.734  0.00  0.00    -0.001 S 
ATOM     20  O   UNL     1      -3.864  -1.536   2.050  0.00  0.00    -0.169 OA
ATOM     21  O   UNL     1      -4.189  -1.503  -0.397  0.00  0.00    -0.169 OA
BRANCH  19  23
ATOM     22  C   UNL     1      -2.629   1.097   0.803  0.00  0.00    +0.032 C 
ATOM     23  C   UNL     1      -2.029  -0.292   0.578  0.00  0.00    +0.130 C 
ATOM     24  C   UNL     1      -0.941  -0.553   1.622  0.00  0.00    +0.032 C 
ENDBRANCH  19  23
ENDBRANCH   1  19
BRANCH   5  25
ATOM     25  S   UNL     1      -0.813  -5.783   3.111  0.00  0.00    +0.001 S 
ATOM     26  O   UNL     1      -0.694  -4.745   4.074  0.00  0.00    -0.169 OA
ATOM     27  O   UNL     1      -1.673  -6.891   3.342  0.00  0.00    -0.169 OA
BRANCH  25  28
ATOM     28  C   UNL     1       0.831  -6.362   2.610  0.00  0.00    +0.130 C 
ATOM     29  C   UNL     1       1.728  -5.158   2.313  0.00  0.00    +0.032 C 
ATOM     30  C   UNL     1       1.447  -7.191   3.739  0.00  0.00    +0.032 C 
ENDBRANCH  25  28
ENDBRANCH   5  25
BRANCH  16  31
ATOM     31  S   UNL     1       1.174  -6.394  -0.511  0.00  0.00    -0.113 S 
ATOM     32  C   UNL     1       1.479  -4.638  -0.849  0.00  0.00    +0.091 C 
ENDBRANCH  16  31
TORSDOF 5
