REMARK  Name = ZINC38776630
REMARK  10 active torsions:
REMARK  status: ('A' for Active; 'I' for Inactive)
REMARK    1  A    between atoms: C_1  and  C_2
REMARK    2  A    between atoms: C_2  and  C_3
REMARK    3  A    between atoms: C_5  and  C_20
REMARK    4  A    between atoms: C_6  and  O_19
REMARK    5  A    between atoms: C_8  and  O_9
REMARK    6  A    between atoms: O_9  and  C_10
REMARK    7  A    between atoms: C_10  and  C_11
REMARK    8  A    between atoms: C_14  and  O_17
REMARK    9  A    between atoms: O_17  and  C_18
REMARK   10  A    between atoms: C_22  and  C_26
REMARK                            x       y       z     vdW  Elec       q    Type
REMARK                         _______ _______ _______ _____ _____    ______ ____
ROOT
ATOM      1  C   UNL     1       0.731  -0.503   1.223  0.00  0.00    -0.005 A 
ATOM      2  C   UNL     1       2.077  -0.808   1.147  0.00  0.00    +0.016 A 
ATOM      3  C   UNL     1       2.748  -1.266   2.265  0.00  0.00    +0.023 A 
ATOM      4  C   UNL     1       2.071  -1.421   3.466  0.00  0.00    +0.126 A 
ATOM      5  C   UNL     1       0.721  -1.116   3.545  0.00  0.00    +0.091 A 
ATOM      6  C   UNL     1       0.051  -0.651   2.424  0.00  0.00    +0.128 A 
ENDROOT
BRANCH   3   7
ATOM      7  C   UNL     1       4.215  -1.597   2.178  0.00  0.00    +0.164 C 
ATOM      8  C   UNL     1       4.416  -3.068   1.854  0.00  0.00    +0.008 C 
ATOM      9  C   UNL     1       5.068  -3.046   0.666  0.00  0.00    +0.139 C 
ATOM     10  N   UNL     1       5.269  -1.786   0.263  0.00  0.00    -0.185 NA
ATOM     11  N   UNL     1       4.837  -0.916   1.030  0.00  0.00    -0.297 N 
ATOM     12  H   UNL     1       4.896   0.043   0.899  0.00  0.00    +0.183 HD
BRANCH   8  13
ATOM     13  C   UNL     1       4.002  -4.238   2.643  0.00  0.00    -0.014 A 
ATOM     14  C   UNL     1       2.643  -4.504   2.841  0.00  0.00    +0.012 A 
ATOM     15  C   UNL     1       2.255  -5.602   3.580  0.00  0.00    +0.050 A 
ATOM     16  C   UNL     1       3.215  -6.442   4.127  0.00  0.00    +0.162 A 
ATOM     17  C   UNL     1       4.567  -6.184   3.934  0.00  0.00    +0.162 A 
ATOM     18  C   UNL     1       4.967  -5.091   3.192  0.00  0.00    +0.057 A 
ATOM     19  O   UNL     1       5.497  -7.022   4.478  0.00  0.00    -0.488 OA
ATOM     20  C   UNL     1       5.591  -7.011   5.904  0.00  0.00    +0.232 C 
ATOM     21  C   UNL     1       4.557  -7.941   6.519  0.00  0.00    +0.082 C 
ATOM     22  C   UNL     1       3.133  -7.479   6.254  0.00  0.00    +0.232 C 
ATOM     23  O   UNL     1       2.835  -7.530   4.857  0.00  0.00    -0.488 OA
ENDBRANCH   8  13
ENDBRANCH   3   7
BRANCH   1  25
ATOM     24  C   UNL     1      -0.019   1.526   0.010  0.00  0.00    +0.009 C 
ATOM     25  C   UNL     1       0.002  -0.004   0.002  0.00  0.00    +0.035 C 
ENDBRANCH   1  25
BRANCH   4  26
ATOM     26  O   UNL     1       2.732  -1.872   4.565  0.00  0.00    -0.506 OA
ATOM     27  H   UNL     1       3.124  -1.171   5.104  0.00  0.00    +0.292 HD
ENDBRANCH   4  26
BRANCH   6  28
ATOM     28  O   UNL     1      -1.271  -0.346   2.499  0.00  0.00    -0.487 OA
BRANCH  28  29
ATOM     29  C   UNL     1      -1.906  -0.523   3.767  0.00  0.00    +0.264 C 
BRANCH  29  30
ATOM     30  C   UNL     1      -3.359  -0.137   3.659  0.00  0.00    -0.010 A 
ATOM     31  C   UNL     1      -3.746   1.168   3.900  0.00  0.00    +0.010 A 
ATOM     32  C   UNL     1      -5.077   1.524   3.802  0.00  0.00    +0.046 A 
ATOM     33  C   UNL     1      -6.026   0.571   3.461  0.00  0.00    +0.120 A 
ATOM     34  C   UNL     1      -5.634  -0.738   3.219  0.00  0.00    +0.046 A 
ATOM     35  C   UNL     1      -4.301  -1.088   3.313  0.00  0.00    +0.010 A 
BRANCH  33  36
ATOM     36  O   UNL     1      -7.336   0.918   3.364  0.00  0.00    -0.495 OA
ATOM     37  C   UNL     1      -8.257  -0.115   3.009  0.00  0.00    +0.277 C 
ENDBRANCH  33  36
ENDBRANCH  29  30
ENDBRANCH  28  29
ENDBRANCH   6  28
TORSDOF 8
