REMARK  Name = ZINC48242286
REMARK  8 active torsions:
REMARK  status: ('A' for Active; 'I' for Inactive)
REMARK    1  A    between atoms: C_1  and  C_2
REMARK    2  A    between atoms: C_2  and  C_3
REMARK    3  A    between atoms: C_3  and  C_5
REMARK    4  A    between atoms: C_3  and  C_19
REMARK    5  A    between atoms: C_5  and  N_6
REMARK    6  A    between atoms: C_7  and  C_9
REMARK    7  A    between atoms: C_9  and  N_10
REMARK    8  A    between atoms: C_11  and  C_13
REMARK                            x       y       z     vdW  Elec       q    Type
REMARK                         _______ _______ _______ _____ _____    ______ ____
ROOT
ATOM      1  N   UNL     1      -2.173   1.101  -1.559  0.00  0.00    -0.313 N 
ATOM      2  C   UNL     1      -2.637   1.599  -2.722  0.00  0.00    +0.230 C 
ATOM      3  O   UNL     1      -2.954   0.849  -3.620  0.00  0.00    -0.274 OA
ATOM      4  H   UNL     1      -1.920   1.701  -0.840  0.00  0.00    +0.149 HD
ENDROOT
BRANCH   1   5
ATOM      5  C   UNL     1      -2.050  -0.348  -1.381  0.00  0.00    +0.112 C 
BRANCH   5   6
ATOM      6  C   UNL     1      -1.418  -0.643  -0.019  0.00  0.00    +0.036 C 
BRANCH   6   7
ATOM      7  C   UNL     1      -1.420  -2.130   0.225  0.00  0.00    -0.043 A 
ATOM      8  C   UNL     1      -0.747  -2.973  -0.640  0.00  0.00    +0.004 A 
ATOM      9  C   UNL     1      -0.748  -4.337  -0.416  0.00  0.00    +0.000 A 
ATOM     10  C   UNL     1      -1.422  -4.858   0.672  0.00  0.00    +0.000 A 
ATOM     11  C   UNL     1      -2.095  -4.015   1.537  0.00  0.00    +0.000 A 
ATOM     12  C   UNL     1      -2.090  -2.651   1.316  0.00  0.00    +0.004 A 
ENDBRANCH   6   7
BRANCH   6  14
ATOM     13  C   UNL     1       0.610  -0.300   1.399  0.00  0.00    +0.004 C 
ATOM     14  C   UNL     1       0.021  -0.125  -0.002  0.00  0.00    +0.006 C 
ENDBRANCH   6  14
ENDBRANCH   5   6
ENDBRANCH   1   5
BRANCH   2  15
ATOM     15  C   UNL     1      -2.764   3.090  -2.905  0.00  0.00    +0.200 C 
BRANCH  15  16
ATOM     16  N   UNL     1      -3.287   3.374  -4.244  0.00  0.00    -0.302 N 
ATOM     17  C   UNL     1      -3.484   4.650  -4.633  0.00  0.00    +0.251 C 
ATOM     18  O   UNL     1      -3.228   5.565  -3.873  0.00  0.00    -0.270 OA
ATOM     19  H   UNL     1      -3.492   2.645  -4.849  0.00  0.00    +0.150 HD
BRANCH  17  20
ATOM     20  C   UNL     1      -4.008   4.934  -5.971  0.00  0.00    +0.075 A 
ATOM     21  C   UNL     1      -4.275   6.160  -6.563  0.00  0.00    +0.022 A 
ATOM     22  C   UNL     1      -4.766   6.110  -7.845  0.00  0.00    +0.024 A 
ATOM     23  C   UNL     1      -4.953   4.900  -8.432  0.00  0.00    +0.056 A 
ATOM     24  S   UNL     1      -4.461   3.796  -7.266  0.00  0.00    -0.077 S 
ATOM     25 BR   UNL     1      -5.609   4.541 -10.169  0.00  0.00    -0.043 Br
ENDBRANCH  17  20
ENDBRANCH  15  16
ENDBRANCH   2  15
TORSDOF 7
