REMARK  Name = ZINC08846379
REMARK  10 active torsions:
REMARK  status: ('A' for Active; 'I' for Inactive)
REMARK    1  A    between atoms: C_1  and  C_2
REMARK    2  A    between atoms: C_2  and  O_3
REMARK    3  A    between atoms: O_3  and  C_4
REMARK    4  A    between atoms: C_7  and  C_10
REMARK    5  A    between atoms: C_17  and  N_39
REMARK    6  A    between atoms: C_18  and  C_37
REMARK    7  A    between atoms: C_19  and  C_21
REMARK    8  A    between atoms: C_24  and  O_27
REMARK    9  A    between atoms: O_27  and  C_28
REMARK   10  A    between atoms: C_28  and  C_29
REMARK                            x       y       z     vdW  Elec       q    Type
REMARK                         _______ _______ _______ _____ _____    ______ ____
ROOT
ATOM      1  C   UNL     1      -1.998  -6.073  -0.011  0.00  0.00    +0.100 A 
ATOM      2  C   UNL     1      -3.014  -6.784   0.634  0.00  0.00    +0.054 A 
ATOM      3  C   UNL     1      -2.825  -8.112   0.384  0.00  0.00    +0.223 A 
ATOM      4  N   UNL     1      -1.727  -8.232  -0.390  0.00  0.00    -0.246 N 
ATOM      5  H   UNL     1      -1.352  -9.062  -0.724  0.00  0.00    +0.192 HD
ATOM      6  N   UNL     1      -1.225  -6.943  -0.632  0.00  0.00    -0.171 NA
ATOM      7  O   UNL     1      -3.650  -9.073   0.870  0.00  0.00    -0.423 OA
ATOM      8  C   UNL     1      -4.831  -8.680   1.387  0.00  0.00    +0.200 C 
ATOM      9  C   UNL     1      -5.131  -7.397   1.688  0.00  0.00    +0.098 C 
ATOM     10  C   UNL     1      -4.154  -6.268   1.475  0.00  0.00    +0.102 C 
ENDROOT
BRANCH   1  14
ATOM     11  C   UNL     1      -1.498  -1.848   0.006  0.00  0.00    +0.121 A 
ATOM     12  C   UNL     1      -0.385  -2.677  -0.003  0.00  0.00    +0.046 A 
ATOM     13  C   UNL     1      -0.544  -4.048  -0.009  0.00  0.00    +0.013 A 
ATOM     14  C   UNL     1      -1.824  -4.599  -0.005  0.00  0.00    +0.003 A 
ATOM     15  C   UNL     1      -2.940  -3.764   0.005  0.00  0.00    +0.013 A 
ATOM     16  C   UNL     1      -2.774  -2.395   0.016  0.00  0.00    +0.046 A 
BRANCH  11  17
ATOM     17  O   UNL     1      -1.339  -0.499   0.012  0.00  0.00    -0.492 OA
BRANCH  17  19
ATOM     18  C   UNL     1      -0.019   1.526   0.010  0.00  0.00    +0.048 C 
ATOM     19  C   UNL     1       0.002  -0.004   0.002  0.00  0.00    +0.225 C 
ENDBRANCH  17  19
ENDBRANCH  11  17
ENDBRANCH   1  14
BRANCH  10  20
ATOM     20  C   UNL     1      -3.629  -5.791   2.805  0.00  0.00    -0.034 A 
ATOM     21  C   UNL     1      -2.966  -6.671   3.640  0.00  0.00    +0.008 A 
ATOM     22  C   UNL     1      -2.485  -6.237   4.860  0.00  0.00    +0.046 A 
ATOM     23  C   UNL     1      -2.666  -4.917   5.246  0.00  0.00    +0.121 A 
ATOM     24  C   UNL     1      -3.330  -4.036   4.405  0.00  0.00    +0.046 A 
ATOM     25  C   UNL     1      -3.805  -4.473   3.184  0.00  0.00    +0.008 A 
BRANCH  23  26
ATOM     26  O   UNL     1      -2.193  -4.487   6.446  0.00  0.00    -0.487 OA
BRANCH  26  27
ATOM     27  C   UNL     1      -2.416  -3.115   6.777  0.00  0.00    +0.268 C 
BRANCH  27  28
ATOM     28  C   UNL     1      -1.827  -2.824   8.133  0.00  0.00    +0.043 A 
ATOM     29  C   UNL     1      -2.596  -2.989   9.273  0.00  0.00    +0.131 A 
ATOM     30  C   UNL     1      -2.054  -2.721  10.518  0.00  0.00    +0.039 A 
ATOM     31  C   UNL     1      -0.745  -2.289  10.624  0.00  0.00    +0.004 A 
ATOM     32  C   UNL     1       0.023  -2.124   9.486  0.00  0.00    +0.020 A 
ATOM     33  C   UNL     1      -0.516  -2.397   8.241  0.00  0.00    +0.050 A 
ATOM     34 CL   UNL     1       0.452  -2.197   6.814  0.00  0.00    -0.083 Cl
ATOM     35  F   UNL     1      -3.875  -3.411   9.169  0.00  0.00    -0.205 F 
ENDBRANCH  27  28
ENDBRANCH  26  27
ENDBRANCH  23  26
ENDBRANCH  10  20
BRANCH   8  36
ATOM     36  N   UNL     1      -5.786  -9.639   1.621  0.00  0.00    -0.328 N 
ATOM     37  H   UNL     1      -5.600 -10.568   1.415  0.00  0.00    +0.145 HD
ATOM     38  H   UNL     1      -6.646  -9.386   1.992  0.00  0.00    +0.145 HD
ENDBRANCH   8  36
BRANCH   9  39
ATOM     39  C   UNL     1      -6.423  -7.098   2.228  0.00  0.00    +0.101 C 
ATOM     40  N   UNL     1      -7.448  -6.862   2.657  0.00  0.00    -0.191 NA
ENDBRANCH   9  39
TORSDOF 9
