REMARK  Name = ZINC20714336
REMARK  6 active torsions:
REMARK  status: ('A' for Active; 'I' for Inactive)
REMARK    1  A    between atoms: C_1  and  C_2
REMARK    2  A    between atoms: C_7  and  C_8
REMARK    3  A    between atoms: C_19  and  S_24
REMARK    4  A    between atoms: S_24  and  N_27
REMARK    5  A    between atoms: N_27  and  C_28
REMARK    6  A    between atoms: C_28  and  C_29
REMARK                            x       y       z     vdW  Elec       q    Type
REMARK                         _______ _______ _______ _____ _____    ______ ____
ROOT
ATOM      1  C   UNL     1      -1.361   2.061   0.001  0.00  0.00    +0.105 C 
ATOM      2  C   UNL     1      -1.769   2.410   1.421  0.00  0.00    +0.029 C 
ATOM      3  C   UNL     1      -0.759   3.197   2.266  0.00  0.00    +0.033 C 
ATOM      4  C   UNL     1      -1.104   2.722   3.679  0.00  0.00    -0.030 C 
ATOM      5  C   UNL     1      -1.658   1.516   3.630  0.00  0.00    -0.023 C 
ATOM      6  C   UNL     1      -1.700   1.071   2.214  0.00  0.00    +0.049 C 
ATOM      7  C   UNL     1      -2.772   0.188   1.704  0.00  0.00    -0.018 A 
ATOM      8  C   UNL     1      -3.462  -0.684   2.518  0.00  0.00    +0.034 A 
ATOM      9  C   UNL     1      -4.447  -1.499   1.992  0.00  0.00    +0.106 A 
ATOM     10  C   UNL     1      -4.741  -1.443   0.641  0.00  0.00    +0.030 A 
ATOM     11  C   UNL     1      -4.059  -0.571  -0.181  0.00  0.00    +0.025 A 
ATOM     12  C   UNL     1      -3.073   0.259   0.339  0.00  0.00    +0.031 A 
ATOM     13  N   UNL     1      -2.419   1.161  -0.508  0.00  0.00    -0.336 N 
ATOM     14  H   UNL     1      -2.705   1.193  -1.570  0.00  0.00    +0.147 HD
ENDROOT
BRANCH   1  21
ATOM     15  C   UNL     1       1.089   3.589  -0.106  0.00  0.00    +0.044 C 
ATOM     16  C   UNL     1       1.141   2.084  -0.053  0.00  0.00    -0.045 A 
ATOM     17  C   UNL     1       2.362   1.434  -0.061  0.00  0.00    +0.004 A 
ATOM     18  C   UNL     1       2.410   0.054  -0.012  0.00  0.00    +0.000 A 
ATOM     19  C   UNL     1       1.238  -0.677   0.042  0.00  0.00    +0.000 A 
ATOM     20  C   UNL     1       0.018  -0.028   0.048  0.00  0.00    +0.006 A 
ATOM     21  C   UNL     1      -0.031   1.353   0.000  0.00  0.00    -0.024 A 
ENDBRANCH   1  21
BRANCH   9  22
ATOM     22  S   UNL     1      -5.325  -2.610   3.040  0.00  0.00    +0.059 S 
ATOM     23  O   UNL     1      -5.817  -3.651   2.207  0.00  0.00    -0.153 OA
ATOM     24  O   UNL     1      -4.487  -2.861   4.159  0.00  0.00    -0.153 OA
BRANCH  22  25
ATOM     25  N   UNL     1      -6.649  -1.797   3.614  0.00  0.00    -0.186 NA
ATOM     26  H   UNL     1      -6.653  -1.442   4.655  0.00  0.00    +0.148 HD
BRANCH  25  27
ATOM     27  C   UNL     1      -7.702  -1.367   2.690  0.00  0.00    +0.141 C 
BRANCH  27  28
ATOM     28  C   UNL     1      -8.935  -0.995   3.472  0.00  0.00    -0.032 A 
ATOM     29  C   UNL     1      -9.895  -1.951   3.747  0.00  0.00    +0.005 A 
ATOM     30  C   UNL     1     -11.024  -1.610   4.468  0.00  0.00    +0.000 A 
ATOM     31  C   UNL     1     -11.198  -0.311   4.907  0.00  0.00    +0.000 A 
ATOM     32  C   UNL     1     -10.240   0.647   4.628  0.00  0.00    +0.000 A 
ATOM     33  C   UNL     1      -9.109   0.305   3.910  0.00  0.00    +0.005 A 
ENDBRANCH  27  28
ENDBRANCH  25  27
ENDBRANCH  22  25
ENDBRANCH   9  22
TORSDOF 5
