REMARK  Name = ZINC13562951
REMARK  4 active torsions:
REMARK  status: ('A' for Active; 'I' for Inactive)
REMARK    1  A    between atoms: C_1  and  C_2
REMARK    2  A    between atoms: N_4  and  C_25
REMARK    3  A    between atoms: C_8  and  N_9
REMARK    4  A    between atoms: N_9  and  N_10
REMARK                            x       y       z     vdW  Elec       q    Type
REMARK                         _______ _______ _______ _____ _____    ______ ____
ROOT
ATOM      1  N   UNL     1       0.055  -1.436   3.484  0.00  0.00    -0.261 N 
ATOM      2  H   UNL     1       0.065  -2.377   3.248  0.00  0.00    +0.170 HD
ENDROOT
BRANCH   1   3
ATOM      3  N   UNL     1       0.064  -1.051   4.831  0.00  0.00    -0.150 N 
ATOM      4  C   UNL     1       1.201  -0.559   5.358  0.00  0.00    +0.270 C 
ATOM      5  O   UNL     1       2.194  -0.458   4.664  0.00  0.00    -0.268 OA
ATOM      6  C   UNL     1       1.248  -0.144   6.767  0.00  0.00    +0.047 A 
ATOM      7  C   UNL     1       2.398   0.368   7.350  0.00  0.00    +0.014 A 
ATOM      8  C   UNL     1       2.394   0.746   8.688  0.00  0.00    +0.001 A 
ATOM      9  C   UNL     1       1.274   0.629   9.461  0.00  0.00    +0.008 A 
ATOM     10  C   UNL     1       0.088   0.115   8.908  0.00  0.00    -0.016 A 
ATOM     11  C   UNL     1       0.080  -0.272   7.552  0.00  0.00    +0.006 A 
ATOM     12  C   UNL     1      -1.097  -0.793   6.967  0.00  0.00    +0.047 A 
ATOM     13  C   UNL     1      -2.239  -0.915   7.745  0.00  0.00    +0.014 A 
ATOM     14  C   UNL     1      -2.218  -0.528   9.080  0.00  0.00    +0.001 A 
ATOM     15  C   UNL     1      -1.090  -0.025   9.662  0.00  0.00    +0.008 A 
ATOM     16  C   UNL     1      -1.068  -1.182   5.550  0.00  0.00    +0.270 C 
ATOM     17  O   UNL     1      -2.070  -1.628   5.024  0.00  0.00    -0.268 OA
ENDBRANCH   1   3
BRANCH   1  25
ATOM     18  C   UNL     1      -0.018   1.503   0.010  0.00  0.00    +0.068 C 
ATOM     19  C   UNL     1       0.002  -0.004   0.002  0.00  0.00    +0.070 C 
ATOM     20  N   UNL     1       0.008  -0.765  -1.049  0.00  0.00    -0.176 NA
ATOM     21  N   UNL     1       0.028  -2.115  -0.698  0.00  0.00    -0.156 N 
ATOM     22  C   UNL     1       0.035  -2.244   0.644  0.00  0.00    +0.273 C 
ATOM     23  O   UNL     1       0.052  -3.285   1.280  0.00  0.00    -0.268 OA
ATOM     24  C   UNL     1       0.025  -0.879   1.184  0.00  0.00    +0.076 C 
ATOM     25  C   UNL     1       0.033  -0.499   2.515  0.00  0.00    +0.103 C 
BRANCH  21  26
ATOM     26  C   UNL     1       0.038  -3.180  -1.608  0.00  0.00    +0.060 A 
ATOM     27  C   UNL     1       0.052  -4.489  -1.145  0.00  0.00    +0.026 A 
ATOM     28  C   UNL     1       0.061  -5.538  -2.044  0.00  0.00    +0.017 A 
ATOM     29  C   UNL     1       0.058  -5.285  -3.404  0.00  0.00    +0.018 A 
ATOM     30  C   UNL     1       0.044  -3.982  -3.868  0.00  0.00    +0.017 A 
ATOM     31  C   UNL     1       0.029  -2.929  -2.974  0.00  0.00    +0.026 A 
ATOM     32 BR   UNL     1       0.072  -6.723  -4.631  0.00  0.00    -0.050 Br
ENDBRANCH  21  26
ENDBRANCH   1  25
TORSDOF 3
