REMARK  Name = ZINC67220426
REMARK  13 active torsions:
REMARK  status: ('A' for Active; 'I' for Inactive)
REMARK    1  A    between atoms: C_1  and  C_2
REMARK    2  A    between atoms: C_2  and  C_4
REMARK    3  A    between atoms: C_2  and  N_16
REMARK    4  A    between atoms: C_7  and  S_10
REMARK    5  A    between atoms: S_10  and  N_13
REMARK    6  A    between atoms: N_13  and  C_14
REMARK    7  A    between atoms: N_13  and  C_15
REMARK    8  A    between atoms: N_16  and  C_17
REMARK    9  A    between atoms: C_17  and  C_18
REMARK   10  A    between atoms: C_23  and  C_24
REMARK   11  A    between atoms: C_24  and  C_25
REMARK   12  A    between atoms: C_24  and  C_26
REMARK   13  A    between atoms: C_24  and  C_27
REMARK                            x       y       z     vdW  Elec       q    Type
REMARK                         _______ _______ _______ _____ _____    ______ ____
ROOT
ATOM      1  C   UNL     1      -1.620   2.493  -3.110  0.00  0.00    -0.009 C 
ATOM      2  C   UNL     1      -1.071   1.065  -3.123  0.00  0.00    -0.044 C 
ENDROOT
BRANCH   2   3
ATOM      3  C   UNL     1       0.391   1.085  -2.756  0.00  0.00    -0.062 A 
ATOM      4  C   UNL     1       0.769   1.175  -1.430  0.00  0.00    +0.004 A 
ATOM      5  C   UNL     1       2.109   1.193  -1.093  0.00  0.00    +0.029 A 
ATOM      6  C   UNL     1       3.072   1.121  -2.083  0.00  0.00    +0.105 A 
ATOM      7  C   UNL     1       2.693   1.030  -3.409  0.00  0.00    +0.029 A 
ATOM      8  C   UNL     1       1.353   1.008  -3.746  0.00  0.00    +0.004 A 
BRANCH   6   9
ATOM      9  S   UNL     1       4.780   1.146  -1.653  0.00  0.00    +0.060 S 
ATOM     10  O   UNL     1       5.480   1.616  -2.798  0.00  0.00    -0.153 OA
ATOM     11  O   UNL     1       4.872   1.786  -0.388  0.00  0.00    -0.153 OA
BRANCH   9  12
ATOM     12  N   UNL     1       5.250  -0.426  -1.424  0.00  0.00    -0.183 NA
ATOM     13  C   UNL     1       5.767  -1.207  -2.550  0.00  0.00    +0.131 C 
ATOM     14  C   UNL     1       5.148  -1.034  -0.095  0.00  0.00    +0.131 C 
ENDBRANCH   9  12
ENDBRANCH   6   9
ENDBRANCH   2   3
BRANCH   2  15
ATOM     15  N   UNL     1      -1.809   0.248  -2.151  0.00  0.00    +0.386 N 
ATOM     16  H   UNL     1      -1.394  -0.671  -2.101  0.00  0.00    -0.085 HD
ATOM     17  H   UNL     1      -1.768   0.686  -1.243  0.00  0.00    -0.085 HD
BRANCH  15  18
ATOM     18  C   UNL     1      -3.211   0.129  -2.575  0.00  0.00    -0.043 C 
BRANCH  18  19
ATOM     19  C   UNL     1      -3.953  -0.762  -1.613  0.00  0.00    -0.023 A 
ATOM     20  C   UNL     1      -4.104  -2.102  -1.724  0.00  0.00    +0.106 A 
ATOM     21  N   UNL     1      -4.828  -2.523  -0.666  0.00  0.00    -0.284 N 
ATOM     22  H   UNL     1      -5.091  -3.439  -0.483  0.00  0.00    +0.188 HD
ATOM     23  N   UNL     1      -5.132  -1.405   0.121  0.00  0.00    -0.178 NA
ATOM     24  C   UNL     1      -4.602  -0.351  -0.444  0.00  0.00    +0.069 A 
BRANCH  24  25
ATOM     25  C   UNL     1      -4.681   1.062   0.073  0.00  0.00    +0.006 C 
ATOM     26  C   UNL     1      -5.322   1.958  -0.989  0.00  0.00    +0.017 C 
ATOM     27  C   UNL     1      -5.528   1.093   1.346  0.00  0.00    +0.017 C 
ATOM     28  C   UNL     1      -3.272   1.571   0.385  0.00  0.00    +0.017 C 
ENDBRANCH  24  25
ENDBRANCH  18  19
ENDBRANCH  15  18
ENDBRANCH   2  15
TORSDOF 7
