REMARK  Name = ZINC45008289
REMARK  2 active torsions:
REMARK  status: ('A' for Active; 'I' for Inactive)
REMARK    1  A    between atoms: C_8  and  C_10
REMARK    2  A    between atoms: C_17  and  O_21
REMARK                            x       y       z     vdW  Elec       q    Type
REMARK                         _______ _______ _______ _____ _____    ______ ____
ROOT
ATOM      1  C   UNL     1       3.726  -3.286  -0.051  0.00  0.00    +0.096 C 
ATOM      2  C   UNL     1       5.081  -3.211  -0.167  0.00  0.00    +0.179 C 
ATOM      3  C   UNL     1       5.884  -1.982  -0.178  0.00  0.00    +0.232 C 
ATOM      4  O   UNL     1       5.489  -0.832  -0.086  0.00  0.00    -0.283 OA
ATOM      5  C   UNL     1       7.275  -2.449  -0.323  0.00  0.00    +0.068 A 
ATOM      6  C   UNL     1       8.501  -1.787  -0.398  0.00  0.00    +0.019 A 
ATOM      7  C   UNL     1       9.655  -2.506  -0.535  0.00  0.00    +0.046 A 
ATOM      8  C   UNL     1       9.610  -3.896  -0.600  0.00  0.00    +0.120 A 
ATOM      9  C   UNL     1       8.399  -4.566  -0.526  0.00  0.00    +0.092 A 
ATOM     10  C   UNL     1       7.216  -3.850  -0.387  0.00  0.00    +0.143 A 
ATOM     11  O   UNL     1       5.932  -4.256  -0.288  0.00  0.00    -0.451 OA
ENDROOT
BRANCH   1  19
ATOM     12  C   UNL     1       0.084   1.295   1.115  0.00  0.00    +0.001 A 
ATOM     13  C   UNL     1       1.285   1.964   1.303  0.00  0.00    +0.004 A 
ATOM     14  C   UNL     1       2.488   1.309   1.143  0.00  0.00    +0.047 A 
ATOM     15  C   UNL     1       2.502  -0.035   0.790  0.00  0.00    +0.136 A 
ATOM     16  C   UNL     1       1.282  -0.710   0.600  0.00  0.00    +0.021 A 
ATOM     17  C   UNL     1       0.073  -0.026   0.767  0.00  0.00    +0.011 A 
ATOM     18  C   UNL     1       1.614  -2.044   0.253  0.00  0.00    +0.058 A 
ATOM     19  C   UNL     1       2.976  -2.123   0.246  0.00  0.00    +0.133 A 
ATOM     20  O   UNL     1       3.497  -0.919   0.568  0.00  0.00    -0.455 OA
ENDBRANCH   1  19
BRANCH   8  21
ATOM     21  O   UNL     1      10.761  -4.601  -0.737  0.00  0.00    -0.507 OA
ATOM     22  H   UNL     1      11.173  -4.848   0.102  0.00  0.00    +0.292 HD
ENDBRANCH   8  21
TORSDOF 2
