REMARK  Name = ZINC15565852
REMARK  7 active torsions:
REMARK  status: ('A' for Active; 'I' for Inactive)
REMARK    1  A    between atoms: C_1  and  C_2
REMARK    2  A    between atoms: C_2  and  C_4
REMARK    3  A    between atoms: C_2  and  N_15
REMARK    4  A    between atoms: C_7  and  N_10
REMARK    5  A    between atoms: C_16  and  C_18
REMARK    6  A    between atoms: C_18  and  C_19
REMARK    7  A    between atoms: C_19  and  C_20
REMARK                            x       y       z     vdW  Elec       q    Type
REMARK                         _______ _______ _______ _____ _____    ______ ____
ROOT
ATOM      1  N   UNL     1       2.470  -6.525  -0.941  0.00  0.00    -0.309 N 
ATOM      2  C   UNL     1       2.985  -7.633  -1.511  0.00  0.00    +0.214 C 
ATOM      3  O   UNL     1       4.136  -7.948  -1.292  0.00  0.00    -0.276 OA
ATOM      4  H   UNL     1       1.550  -6.273  -1.117  0.00  0.00    +0.149 HD
ENDROOT
BRANCH   1   6
ATOM      5  C   UNL     1       3.256  -6.275   1.361  0.00  0.00    +0.033 C 
ATOM      6  C   UNL     1       3.300  -5.702  -0.057  0.00  0.00    +0.100 C 
BRANCH   6   7
ATOM      7  C   UNL     1       2.774  -4.290  -0.046  0.00  0.00    -0.027 A 
ATOM      8  C   UNL     1       3.656  -3.225  -0.049  0.00  0.00    +0.007 A 
ATOM      9  C   UNL     1       3.177  -1.930  -0.038  0.00  0.00    +0.026 A 
ATOM     10  C   UNL     1       1.809  -1.697  -0.024  0.00  0.00    +0.047 A 
ATOM     11  C   UNL     1       0.925  -2.768  -0.015  0.00  0.00    +0.026 A 
ATOM     12  C   UNL     1       1.410  -4.062  -0.031  0.00  0.00    +0.007 A 
BRANCH  10  13
ATOM     13  N   UNL     1       1.320  -0.383  -0.013  0.00  0.00    -0.306 N 
ATOM     14  C   UNL     1       0.002  -0.004   0.002  0.00  0.00    +0.112 A 
ATOM     15  C   UNL     1      -0.016   1.342   0.009  0.00  0.00    +0.130 A 
ATOM     16  N   UNL     1       1.252   1.778  -0.000  0.00  0.00    -0.244 NA
ATOM     17  C   UNL     1       2.062   0.755  -0.014  0.00  0.00    +0.204 A 
ENDBRANCH  10  13
ENDBRANCH   6   7
ENDBRANCH   1   6
BRANCH   2  18
ATOM     18  C   UNL     1       2.132  -8.479  -2.421  0.00  0.00    +0.103 C 
BRANCH  18  19
ATOM     19  C   UNL     1       2.951  -9.666  -2.930  0.00  0.00    +0.083 C 
BRANCH  19  20
ATOM     20  C   UNL     1       2.098 -10.512  -3.839  0.00  0.00    +0.111 A 
ATOM     21  N   UNL     1       2.630 -11.626  -4.407  0.00  0.00    -0.310 N 
ATOM     22  H   UNL     1       3.552 -11.861  -4.219  0.00  0.00    +0.170 HD
ATOM     23  C   UNL     1       1.903 -12.409  -5.225  0.00  0.00    +0.260 A 
ATOM     24  O   UNL     1       2.394 -13.406  -5.727  0.00  0.00    -0.267 OA
ATOM     25  C   UNL     1       0.541 -12.053  -5.496  0.00  0.00    +0.075 A 
ATOM     26  C   UNL     1      -0.428 -12.747  -6.343  0.00  0.00    -0.023 A 
ATOM     27  C   UNL     1      -1.660 -12.204  -6.436  0.00  0.00    -0.004 A 
ATOM     28  S   UNL     1      -1.602 -10.757  -5.413  0.00  0.00    -0.073 S 
ATOM     29  C   UNL     1       0.081 -10.887  -4.864  0.00  0.00    +0.116 A 
ATOM     30  N   UNL     1       0.859 -10.165  -4.063  0.00  0.00    -0.227 NA
ATOM     31  C   UNL     1      -2.821 -12.717  -7.232  0.00  0.00    +0.043 C 
ATOM     32  C   UNL     1      -2.299 -13.758  -8.232  0.00  0.00    +0.005 C 
ATOM     33  C   UNL     1      -1.380 -14.734  -7.492  0.00  0.00    +0.005 C 
ATOM     34  C   UNL     1      -0.082 -14.028  -7.098  0.00  0.00    +0.037 C 
ENDBRANCH  19  20
ENDBRANCH  18  19
ENDBRANCH   2  18
TORSDOF 6
