REMARK  Name = ZINC13646930
REMARK  6 active torsions:
REMARK  status: ('A' for Active; 'I' for Inactive)
REMARK    1  A    between atoms: C_1  and  C_2
REMARK    2  A    between atoms: C_2  and  C_23
REMARK    3  A    between atoms: N_3  and  N_4
REMARK    4  A    between atoms: C_5  and  C_7
REMARK    5  A    between atoms: C_9  and  C_13
REMARK    6  A    between atoms: C_28  and  O_29
REMARK                            x       y       z     vdW  Elec       q    Type
REMARK                         _______ _______ _______ _____ _____    ______ ____
ROOT
ATOM      1  C   UNL     1      -0.520  -4.230   2.202  0.00  0.00    +0.122 A 
ATOM      2  C   UNL     1      -0.650  -5.075   3.288  0.00  0.00    +0.062 A 
ATOM      3  C   UNL     1      -0.918  -6.344   2.741  0.00  0.00    +0.094 A 
ATOM      4  N   UNL     1      -0.938  -6.216   1.430  0.00  0.00    -0.173 NA
ATOM      5  N   UNL     1      -0.715  -4.999   1.088  0.00  0.00    -0.272 N 
ATOM      6  H   UNL     1      -0.686  -4.673   0.175  0.00  0.00    +0.189 HD
ENDROOT
BRANCH   3   7
ATOM      7  C   UNL     1      -1.139  -7.596   3.502  0.00  0.00    +0.010 A 
ATOM      8  C   UNL     1      -2.007  -7.616   4.579  0.00  0.00    +0.011 A 
ATOM      9  C   UNL     1      -2.220  -8.787   5.298  0.00  0.00    +0.001 A 
ATOM     10  C   UNL     1      -1.582  -9.944   4.965  0.00  0.00    +0.008 A 
ATOM     11  C   UNL     1      -0.691  -9.969   3.878  0.00  0.00    -0.017 A 
ATOM     12  C   UNL     1      -0.468  -8.786   3.132  0.00  0.00    -0.009 A 
ATOM     13  C   UNL     1       0.417  -8.813   2.044  0.00  0.00    +0.009 A 
ATOM     14  C   UNL     1       1.046  -9.976   1.716  0.00  0.00    +0.001 A 
ATOM     15  C   UNL     1       0.823 -11.142   2.445  0.00  0.00    +0.001 A 
ATOM     16  C   UNL     1      -0.020 -11.149   3.514  0.00  0.00    +0.008 A 
ENDBRANCH   3   7
BRANCH   1  18
ATOM     17  N   UNL     1      -0.143  -2.090   1.088  0.00  0.00    -0.201 N 
ATOM     18  C   UNL     1      -0.236  -2.787   2.237  0.00  0.00    +0.281 C 
ATOM     19  O   UNL     1      -0.084  -2.223   3.305  0.00  0.00    -0.267 OA
ATOM     20  H   UNL     1      -0.264  -2.540   0.237  0.00  0.00    +0.178 HD
BRANCH  17  23
ATOM     21  C   UNL     1       0.332   1.466   0.068  0.00  0.00    +0.068 C 
ATOM     22  C   UNL     1       0.119  -0.025   0.022  0.00  0.00    +0.067 C 
ATOM     23  N   UNL     1       0.128  -0.716   1.121  0.00  0.00    -0.184 NA
BRANCH  22  24
ATOM     24  C   UNL     1      -0.100  -0.699  -1.270  0.00  0.00    +0.039 A 
ATOM     25  C   UNL     1      -1.328  -1.306  -1.547  0.00  0.00    +0.013 A 
ATOM     26  C   UNL     1      -1.526  -1.935  -2.757  0.00  0.00    +0.001 A 
ATOM     27  C   UNL     1      -0.513  -1.968  -3.701  0.00  0.00    +0.004 A 
ATOM     28  C   UNL     1       0.706  -1.372  -3.439  0.00  0.00    +0.046 A 
ATOM     29  C   UNL     1       0.920  -0.731  -2.230  0.00  0.00    +0.126 A 
BRANCH  29  30
ATOM     30  O   UNL     1       2.116  -0.139  -1.974  0.00  0.00    -0.506 OA
ATOM     31  H   UNL     1       2.787  -0.743  -1.627  0.00  0.00    +0.292 HD
ENDBRANCH  29  30
ENDBRANCH  22  24
ENDBRANCH  17  23
ENDBRANCH   1  18
TORSDOF 5
