REMARK  Name = ZINC08868972
REMARK  11 active torsions:
REMARK  status: ('A' for Active; 'I' for Inactive)
REMARK    1  A    between atoms: C_1  and  C_2
REMARK    2  A    between atoms: C_2  and  N_63
REMARK    3  A    between atoms: C_8  and  N_14
REMARK    4  A    between atoms: C_9  and  C_10
REMARK    5  A    between atoms: C_10  and  O_12
REMARK    6  A    between atoms: O_12  and  C_13
REMARK    7  A    between atoms: C_15  and  C_17
REMARK    8  A    between atoms: N_22  and  S_23
REMARK    9  A    between atoms: S_23  and  C_26
REMARK   10  A    between atoms: C_29  and  O_32
REMARK   11  A    between atoms: O_32  and  C_33
REMARK                            x       y       z     vdW  Elec       q    Type
REMARK                         _______ _______ _______ _____ _____    ______ ____
ROOT
ATOM      1  N   UNL     1       0.894  -6.462  -6.295  0.00  0.00    -0.278 N 
ATOM      2  C   UNL     1       1.467  -5.253  -6.136  0.00  0.00    +0.236 C 
ATOM      3  O   UNL     1       2.673  -5.139  -6.203  0.00  0.00    -0.274 OA
ATOM      4  H   UNL     1      -0.070  -6.553  -6.242  0.00  0.00    +0.155 HD
ENDROOT
BRANCH   1  10
ATOM      5  C   UNL     1       3.318 -11.973  -7.825  0.00  0.00    -0.074 C 
ATOM      6  C   UNL     1       2.064 -11.366  -7.190  0.00  0.00    +0.018 C 
ATOM      7  C   UNL     1       2.319  -9.881  -6.960  0.00  0.00    -0.025 A 
ATOM      8  C   UNL     1       3.583  -9.400  -6.970  0.00  0.00    -0.021 A 
ATOM      9  S   UNL     1       3.408  -7.664  -6.679  0.00  0.00    -0.079 S 
ATOM     10  C   UNL     1       1.683  -7.577  -6.535  0.00  0.00    +0.086 A 
ATOM     11  C   UNL     1       1.282  -8.894  -6.724  0.00  0.00    +0.091 A 
ATOM     12  C   UNL     1       4.833 -10.193  -7.187  0.00  0.00    -0.035 C 
ATOM     13  N   UNL     1       4.499 -11.626  -7.007  0.00  0.00    +0.383 N 
ATOM     14  H   UNL     1       4.281 -11.797  -6.018  0.00  0.00    -0.081 HD
BRANCH  13  16
ATOM     15  C   UNL     1       6.784 -12.252  -6.395  0.00  0.00    -0.017 C 
ATOM     16  C   UNL     1       5.650 -12.468  -7.398  0.00  0.00    -0.082 C 
ENDBRANCH  13  16
BRANCH  11  17
ATOM     17  C   UNL     1      -0.133  -9.271  -6.685  0.00  0.00    +0.342 C 
ATOM     18  O   UNL     1      -0.794  -9.257  -7.706  0.00  0.00    -0.245 OA
BRANCH  17  19
ATOM     19  O   UNL     1      -0.702  -9.634  -5.518  0.00  0.00    -0.464 OA
ATOM     20  C   UNL     1      -2.108  -9.996  -5.554  0.00  0.00    +0.280 C 
ENDBRANCH  17  19
ENDBRANCH  11  17
ENDBRANCH   1  10
BRANCH   2  21
ATOM     21  C   UNL     1       0.609  -4.041  -5.876  0.00  0.00    +0.166 C 
ATOM     22  C   UNL     1      -0.335  -3.797  -7.072  0.00  0.00    +0.031 C 
ATOM     23  C   UNL     1      -0.348  -2.250  -7.197  0.00  0.00    +0.019 C 
ATOM     24  C   UNL     1       1.109  -1.895  -6.809  0.00  0.00    +0.110 C 
ATOM     25  N   UNL     1       1.458  -2.848  -5.739  0.00  0.00    -0.165 NA
BRANCH  25  26
ATOM     26  S   UNL     1       2.618  -2.616  -4.580  0.00  0.00    +0.062 S 
ATOM     27  O   UNL     1       3.541  -1.676  -5.112  0.00  0.00    -0.153 OA
ATOM     28  O   UNL     1       3.015  -3.908  -4.139  0.00  0.00    -0.153 OA
BRANCH  26  29
ATOM     29  C   UNL     1       1.835  -1.835  -3.209  0.00  0.00    +0.106 A 
ATOM     30  C   UNL     1       1.275  -2.602  -2.204  0.00  0.00    +0.032 A 
ATOM     31  C   UNL     1       0.661  -1.992  -1.128  0.00  0.00    +0.047 A 
ATOM     32  C   UNL     1       0.606  -0.607  -1.056  0.00  0.00    +0.120 A 
ATOM     33  C   UNL     1       1.163   0.161  -2.068  0.00  0.00    +0.047 A 
ATOM     34  C   UNL     1       1.782  -0.455  -3.139  0.00  0.00    +0.032 A 
BRANCH  32  35
ATOM     35  O   UNL     1       0.002  -0.004   0.002  0.00  0.00    -0.495 OA
ATOM     36  C   UNL     1      -0.017   1.425   0.010  0.00  0.00    +0.277 C 
ENDBRANCH  32  35
ENDBRANCH  26  29
ENDBRANCH  25  26
ENDBRANCH   2  21
TORSDOF 8
