REMARK  Name = ZINC36571020
REMARK  12 active torsions:
REMARK  status: ('A' for Active; 'I' for Inactive)
REMARK    1  A    between atoms: C_1  and  C_2
REMARK    2  A    between atoms: C_2  and  C_3
REMARK    3  A    between atoms: C_3  and  N_4
REMARK    4  A    between atoms: N_4  and  C_5
REMARK    5  A    between atoms: C_5  and  C_7
REMARK    6  A    between atoms: C_5  and  C_16
REMARK    7  A    between atoms: C_7  and  C_9
REMARK    8  A    between atoms: C_7  and  C_10
REMARK    9  A    between atoms: N_18  and  C_19
REMARK   10  A    between atoms: C_25  and  C_27
REMARK   11  A    between atoms: C_28  and  O_34
REMARK   12  A    between atoms: C_32  and  O_33
REMARK                            x       y       z     vdW  Elec       q    Type
REMARK                         _______ _______ _______ _____ _____    ______ ____
ROOT
ATOM      1  C   UNL     1      -1.286  -3.164   1.357  0.00  0.00    +0.169 C 
ENDROOT
BRANCH   1   2
ATOM      2  C   UNL     1      -2.566  -3.093   2.150  0.00  0.00    +0.234 C 
ATOM      3  O   UNL     1      -3.455  -2.345   1.801  0.00  0.00    -0.274 OA
ATOM      4  N   UNL     1      -2.723  -3.861   3.247  0.00  0.00    -0.311 N 
ATOM      5  H   UNL     1      -1.987  -4.405   3.567  0.00  0.00    +0.149 HD
BRANCH   4   6
ATOM      6  C   UNL     1      -4.006  -3.872   3.955  0.00  0.00    +0.073 C 
ATOM      7  C   UNL     1      -4.053  -2.706   4.944  0.00  0.00    +0.022 C 
ATOM      8  C   UNL     1      -5.392  -2.719   5.684  0.00  0.00    +0.002 C 
ATOM      9  C   UNL     1      -5.543  -4.038   6.444  0.00  0.00    +0.000 C 
ATOM     10  C   UNL     1      -5.496  -5.204   5.454  0.00  0.00    +0.002 C 
ATOM     11  C   UNL     1      -4.157  -5.192   4.714  0.00  0.00    +0.022 C 
ENDBRANCH   4   6
ENDBRANCH   1   2
BRANCH   1  12
ATOM     12  N   UNL     1      -1.496  -2.566   0.037  0.00  0.00    -0.285 N 
ATOM     13  C   UNL     1      -1.782  -1.253  -0.071  0.00  0.00    +0.254 C 
ATOM     14  O   UNL     1      -1.865  -0.565   0.929  0.00  0.00    -0.270 OA
BRANCH  13  15
ATOM     15  C   UNL     1      -1.992  -0.651  -1.398  0.00  0.00    +0.119 A 
ATOM     16  C   UNL     1      -3.277  -0.609  -1.958  0.00  0.00    +0.133 A 
ATOM     17  C   UNL     1      -3.464  -0.040  -3.208  0.00  0.00    +0.046 A 
ATOM     18  C   UNL     1      -2.390   0.484  -3.902  0.00  0.00    +0.007 A 
ATOM     19  C   UNL     1      -1.119   0.447  -3.359  0.00  0.00    +0.046 A 
ATOM     20  C   UNL     1      -0.910  -0.112  -2.109  0.00  0.00    +0.133 A 
BRANCH  20  21
ATOM     21  O   UNL     1       0.337  -0.141  -1.576  0.00  0.00    -0.506 OA
ATOM     22  H   UNL     1       0.842  -0.935  -1.800  0.00  0.00    +0.292 HD
ENDBRANCH  20  21
BRANCH  16  23
ATOM     23  O   UNL     1      -4.333  -1.123  -1.279  0.00  0.00    -0.506 OA
ATOM     24  H   UNL     1      -4.779  -0.486  -0.704  0.00  0.00    +0.292 HD
ENDBRANCH  16  23
ENDBRANCH  13  15
BRANCH  12  25
ATOM     25  C   UNL     1      -1.395  -3.394  -1.167  0.00  0.00    +0.108 C 
BRANCH  25  27
ATOM     26  C   UNL     1      -2.635  -4.961  -2.667  0.00  0.00    +0.005 C 
ATOM     27  C   UNL     1      -2.767  -3.989  -1.493  0.00  0.00    +0.016 C 
ENDBRANCH  25  27
ENDBRANCH  12  25
ENDBRANCH   1  12
BRANCH   1  28
ATOM     28  C   UNL     1      -0.186  -2.398   2.095  0.00  0.00    +0.045 C 
ATOM     29  C   UNL     1       1.098  -2.423   1.264  0.00  0.00    +0.015 C 
BRANCH  28  30
ATOM     30  C   UNL     1       0.067  -3.047   3.432  0.00  0.00    -0.042 A 
ATOM     31  C   UNL     1       0.486  -4.363   3.493  0.00  0.00    +0.004 A 
ATOM     32  C   UNL     1       0.719  -4.958   4.719  0.00  0.00    +0.000 A 
ATOM     33  C   UNL     1       0.533  -4.237   5.883  0.00  0.00    +0.000 A 
ATOM     34  C   UNL     1       0.115  -2.920   5.822  0.00  0.00    +0.000 A 
ATOM     35  C   UNL     1      -0.113  -2.324   4.596  0.00  0.00    +0.004 A 
ENDBRANCH  28  30
ENDBRANCH   1  28
TORSDOF 10
