REMARK  Name = ZINC65844590
REMARK  3 active torsions:
REMARK  status: ('A' for Active; 'I' for Inactive)
REMARK    1  A    between atoms: N_9  and  C_13
REMARK    2  A    between atoms: C_13  and  C_14
REMARK    3  A    between atoms: C_14  and  C_16
REMARK                            x       y       z     vdW  Elec       q    Type
REMARK                         _______ _______ _______ _____ _____    ______ ____
ROOT
ATOM      1  C   UNL     1      -0.017   1.375   0.010  0.00  0.00    +0.002 A 
ATOM      2  C   UNL     1       1.164   2.096   0.002  0.00  0.00    +0.002 A 
ATOM      3  C   UNL     1       2.381   1.433  -0.013  0.00  0.00    +0.031 A 
ATOM      4  C   UNL     1       2.407   0.063  -0.021  0.00  0.00    +0.134 A 
ATOM      5  C   UNL     1       1.223  -0.684  -0.013  0.00  0.00    +0.092 A 
ATOM      6  C   UNL     1       0.002  -0.004   0.002  0.00  0.00    +0.030 A 
ATOM      7  N   UNL     1       1.257  -2.046  -0.018  0.00  0.00    -0.237 NA
ATOM      8  C   UNL     1       2.264  -2.801   0.244  0.00  0.00    +0.206 C 
ATOM      9  N   UNL     1       3.509  -2.328   0.577  0.00  0.00    -0.185 N 
ATOM     10  S   UNL     1       3.931  -0.834  -0.042  0.00  0.00    +0.078 S 
ATOM     11  O   UNL     1       4.795  -0.217   0.902  0.00  0.00    -0.150 OA
ATOM     12  O   UNL     1       4.286  -1.029  -1.405  0.00  0.00    -0.150 OA
ENDROOT
BRANCH   9  13
ATOM     13  C   UNL     1       4.420  -3.092   1.433  0.00  0.00    +0.212 C 
BRANCH  13  14
ATOM     14  C   UNL     1       5.194  -4.074   0.591  0.00  0.00    +0.182 C 
ATOM     15  O   UNL     1       5.003  -4.130  -0.605  0.00  0.00    -0.290 OA
BRANCH  14  16
ATOM     16  C   UNL     1       6.181  -4.965   1.220  0.00  0.00    +0.019 A 
ATOM     17  C   UNL     1       6.399  -4.908   2.601  0.00  0.00    +0.012 A 
ATOM     18  C   UNL     1       7.325  -5.747   3.184  0.00  0.00    +0.016 A 
ATOM     19  C   UNL     1       8.039  -6.644   2.406  0.00  0.00    +0.018 A 
ATOM     20  C   UNL     1       7.828  -6.706   1.038  0.00  0.00    +0.016 A 
ATOM     21  C   UNL     1       6.901  -5.878   0.442  0.00  0.00    +0.012 A 
ATOM     22 BR   UNL     1       9.308  -7.789   3.215  0.00  0.00    -0.050 Br
ENDBRANCH  14  16
ENDBRANCH  13  14
ENDBRANCH   9  13
TORSDOF 3
