REMARK  Name = ZINC02815469
REMARK  6 active torsions:
REMARK  status: ('A' for Active; 'I' for Inactive)
REMARK    1  A    between atoms: C_1  and  C_2
REMARK    2  A    between atoms: C_4  and  N_10
REMARK    3  A    between atoms: C_5  and  C_9
REMARK    4  A    between atoms: C_7  and  O_8
REMARK    5  A    between atoms: N_10  and  S_11
REMARK    6  A    between atoms: S_11  and  C_14
REMARK                            x       y       z     vdW  Elec       q    Type
REMARK                         _______ _______ _______ _____ _____    ______ ____
ROOT
ATOM      1  N   UNL     1       0.002  -0.004   0.002  0.00  0.00    -0.216 N 
ATOM      2  H   UNL     1       0.664  -0.473   0.534  0.00  0.00    +0.174 HD
ENDROOT
BRANCH   1   6
ATOM      3  C   UNL     1      -2.232   4.352  -0.443  0.00  0.00    +0.047 C 
ATOM      4  C   UNL     1      -0.978   3.519  -0.380  0.00  0.00    -0.007 A 
ATOM      5  C   UNL     1      -1.066   2.150  -0.225  0.00  0.00    +0.031 A 
ATOM      6  C   UNL     1       0.090   1.383  -0.160  0.00  0.00    +0.051 A 
ATOM      7  C   UNL     1       1.333   1.993  -0.263  0.00  0.00    -0.025 A 
ATOM      8  C   UNL     1       1.419   3.362  -0.424  0.00  0.00    +0.051 A 
ATOM      9  C   UNL     1       0.264   4.128  -0.483  0.00  0.00    +0.120 A 
ATOM     10  C   UNL     1       2.589   1.162  -0.199  0.00  0.00    +0.046 C 
BRANCH   9  11
ATOM     11  O   UNL     1       0.349   5.476  -0.641  0.00  0.00    -0.506 OA
ATOM     12  H   UNL     1       0.351   5.764  -1.564  0.00  0.00    +0.292 HD
ENDBRANCH   9  11
ENDBRANCH   1   6
BRANCH   1  13
ATOM     13  S   UNL     1      -1.232  -0.845  -0.714  0.00  0.00    +0.072 S 
ATOM     14  O   UNL     1      -0.974  -2.223  -0.479  0.00  0.00    -0.150 OA
ATOM     15  O   UNL     1      -2.440  -0.216  -0.309  0.00  0.00    -0.150 OA
BRANCH  13  16
ATOM     16  C   UNL     1      -1.093  -0.595  -2.453  0.00  0.00    +0.109 A 
ATOM     17  C   UNL     1      -1.747   0.464  -3.053  0.00  0.00    +0.030 A 
ATOM     18  C   UNL     1      -1.634   0.663  -4.416  0.00  0.00    +0.017 A 
ATOM     19  C   UNL     1      -0.875  -0.204  -5.181  0.00  0.00    +0.018 A 
ATOM     20  C   UNL     1      -0.224  -1.267  -4.580  0.00  0.00    +0.017 A 
ATOM     21  C   UNL     1      -0.333  -1.462  -3.216  0.00  0.00    +0.030 A 
ATOM     22 BR   UNL     1      -0.725   0.064  -7.047  0.00  0.00    -0.050 Br
ENDBRANCH  13  16
ENDBRANCH   1  13
TORSDOF 4
