REMARK  Name = ZINC67352903
REMARK  7 active torsions:
REMARK  status: ('A' for Active; 'I' for Inactive)
REMARK    1  A    between atoms: C_1  and  C_2
REMARK    2  A    between atoms: C_2  and  C_3
REMARK    3  A    between atoms: C_3  and  C_5
REMARK    4  A    between atoms: C_3  and  N_10
REMARK    5  A    between atoms: N_13  and  C_14
REMARK    6  A    between atoms: C_17  and  S_21
REMARK    7  A    between atoms: S_21  and  C_24
REMARK                            x       y       z     vdW  Elec       q    Type
REMARK                         _______ _______ _______ _____ _____    ______ ____
ROOT
ATOM      1  N   UNL     1      -0.051  -0.116  -2.444  0.00  0.00    -0.292 N 
ATOM      2  C   UNL     1       0.106   1.109  -2.983  0.00  0.00    +0.304 C 
ATOM      3  O   UNL     1       0.888   1.897  -2.486  0.00  0.00    -0.252 OA
ATOM      4  N   UNL     1      -0.604   1.462  -4.073  0.00  0.00    -0.269 N 
ATOM      5  H   UNL     1      -0.674  -0.744  -2.841  0.00  0.00    +0.151 HD
ATOM      6  H   UNL     1      -1.177   0.812  -4.510  0.00  0.00    +0.156 HD
ENDROOT
BRANCH   4   7
ATOM      7  C   UNL     1      -0.515   2.765  -4.575  0.00  0.00    +0.040 A 
ATOM      8  C   UNL     1       0.692   3.450  -4.520  0.00  0.00    +0.063 A 
ATOM      9  C   UNL     1       0.778   4.738  -5.017  0.00  0.00    +0.153 A 
ATOM     10  C   UNL     1      -0.337   5.344  -5.569  0.00  0.00    +0.158 A 
ATOM     11  C   UNL     1      -1.541   4.663  -5.625  0.00  0.00    +0.153 A 
ATOM     12  C   UNL     1      -1.631   3.372  -5.135  0.00  0.00    +0.063 A 
ATOM     13  F   UNL     1      -2.629   5.257  -6.165  0.00  0.00    -0.203 F 
ATOM     14  F   UNL     1       1.952   5.405  -4.963  0.00  0.00    -0.203 F 
BRANCH  10  15
ATOM     15  S   UNL     1      -0.225   6.985  -6.201  0.00  0.00    -0.000 S 
ATOM     16  O   UNL     1      -1.544   7.503  -6.103  0.00  0.00    -0.169 OA
ATOM     17  O   UNL     1       0.843   7.580  -5.476  0.00  0.00    -0.169 OA
ATOM     18  C   UNL     1       0.239   6.784  -7.943  0.00  0.00    +0.200 C 
ENDBRANCH  10  15
ENDBRANCH   4   7
BRANCH   1  19
ATOM     19  C   UNL     1       0.721  -0.499  -1.260  0.00  0.00    +0.111 C 
BRANCH  19  20
ATOM     20  C   UNL     1       0.859  -1.999  -1.213  0.00  0.00    +0.010 A 
ATOM     21  C   UNL     1       1.932  -2.748  -0.858  0.00  0.00    +0.013 A 
ATOM     22  C   UNL     1       1.828  -4.126  -0.890  0.00  0.00    +0.008 A 
ATOM     23  C   UNL     1       0.657  -4.688  -1.276  0.00  0.00    +0.045 A 
ATOM     24  S   UNL     1      -0.352  -3.252  -1.604  0.00  0.00    -0.100 S 
ENDBRANCH  19  20
BRANCH  19  26
ATOM     25  C   UNL     1      -0.031   1.516   0.012  0.00  0.00    +0.006 C 
ATOM     26  C   UNL     1      -0.001  -0.014  -0.001  0.00  0.00    +0.024 C 
ENDBRANCH  19  26
ENDBRANCH   1  19
TORSDOF 5
