REMARK  Name = ZINC36304957
REMARK  15 active torsions:
REMARK  status: ('A' for Active; 'I' for Inactive)
REMARK    1  A    between atoms: C_1  and  N_2
REMARK    2  A    between atoms: C_3  and  O_30
REMARK    3  A    between atoms: C_4  and  C_13
REMARK    4  A    between atoms: C_5  and  C_7
REMARK    5  A    between atoms: C_13  and  N_14
REMARK    6  A    between atoms: N_14  and  C_15
REMARK    7  A    between atoms: N_14  and  C_19
REMARK    8  A    between atoms: C_15  and  C_16
REMARK    9  A    between atoms: C_16  and  O_17
REMARK   10  A    between atoms: O_17  and  C_18
REMARK   11  A    between atoms: C_19  and  C_20
REMARK   12  A    between atoms: C_20  and  C_22
REMARK   13  A    between atoms: C_20  and  O_29
REMARK   14  A    between atoms: C_22  and  C_23
REMARK   15  A    between atoms: O_30  and  C_31
REMARK                            x       y       z     vdW  Elec       q    Type
REMARK                         _______ _______ _______ _____ _____    ______ ____
ROOT
ATOM      1  C   UNL     1       2.201   1.183   0.119  0.00  0.00    +0.176 C 
ATOM      2  N   UNL     1       1.333   0.002   0.120  0.00  0.00    -0.235 N 
ATOM      3  C   UNL     1       0.843  -0.628  -0.979  0.00  0.00    +0.221 A 
ATOM      4  C   UNL     1       0.086  -1.672  -0.553  0.00  0.00    +0.025 A 
ATOM      5  C   UNL     1       0.116  -1.679   0.854  0.00  0.00    +0.098 A 
ATOM      6  N   UNL     1       0.870  -0.677   1.253  0.00  0.00    -0.168 NA
ENDROOT
BRANCH   5   7
ATOM      7  C   UNL     1      -0.578  -2.652   1.734  0.00  0.00    +0.002 A 
ATOM      8  C   UNL     1      -1.887  -3.038   1.455  0.00  0.00    +0.010 A 
ATOM      9  C   UNL     1      -2.527  -3.944   2.277  0.00  0.00    +0.001 A 
ATOM     10  C   UNL     1      -1.871  -4.467   3.376  0.00  0.00    +0.000 A 
ATOM     11  C   UNL     1      -0.572  -4.087   3.659  0.00  0.00    +0.001 A 
ATOM     12  C   UNL     1       0.080  -3.187   2.840  0.00  0.00    +0.010 A 
ENDBRANCH   5   7
BRANCH   4  13
ATOM     13  C   UNL     1      -0.654  -2.648  -1.431  0.00  0.00    -0.035 C 
BRANCH  13  14
ATOM     14  N   UNL     1       0.269  -3.699  -1.882  0.00  0.00    +0.386 N 
ATOM     15  H   UNL     1       1.062  -3.276  -2.341  0.00  0.00    -0.081 HD
BRANCH  14  16
ATOM     16  C   UNL     1      -0.425  -4.589  -2.822  0.00  0.00    -0.050 C 
BRANCH  16  17
ATOM     17  C   UNL     1      -0.778  -3.814  -4.092  0.00  0.00    +0.141 C 
BRANCH  17  18
ATOM     18  O   UNL     1       0.422  -3.403  -4.749  0.00  0.00    -0.385 OA
ATOM     19  C   UNL     1       0.203  -2.667  -5.954  0.00  0.00    +0.193 C 
ENDBRANCH  17  18
ENDBRANCH  16  17
ENDBRANCH  14  16
BRANCH  14  20
ATOM     20  C   UNL     1       0.731  -4.474  -0.723  0.00  0.00    -0.046 C 
BRANCH  20  21
ATOM     21  C   UNL     1       1.785  -5.486  -1.174  0.00  0.00    +0.102 C 
BRANCH  21  22
ATOM     22  O   UNL     1       2.940  -4.791  -1.649  0.00  0.00    -0.393 OA
ATOM     23  H   UNL     1       3.356  -4.222  -0.987  0.00  0.00    +0.210 HD
ENDBRANCH  21  22
BRANCH  21  24
ATOM     24  C   UNL     1       2.176  -6.377   0.007  0.00  0.00    +0.064 C 
BRANCH  24  25
ATOM     25  C   UNL     1       3.121  -7.451  -0.465  0.00  0.00    -0.045 A 
ATOM     26  C   UNL     1       2.625  -8.659  -0.919  0.00  0.00    +0.004 A 
ATOM     27  C   UNL     1       3.492  -9.644  -1.352  0.00  0.00    +0.000 A 
ATOM     28  C   UNL     1       4.856  -9.422  -1.331  0.00  0.00    +0.000 A 
ATOM     29  C   UNL     1       5.353  -8.214  -0.877  0.00  0.00    +0.000 A 
ATOM     30  C   UNL     1       4.485  -7.227  -0.448  0.00  0.00    +0.004 A 
ENDBRANCH  24  25
ENDBRANCH  21  24
ENDBRANCH  20  21
ENDBRANCH  14  20
ENDBRANCH  13  14
ENDBRANCH   4  13
BRANCH   3  31
ATOM     31  O   UNL     1       1.068  -0.277  -2.270  0.00  0.00    -0.437 OA
BRANCH  31  32
ATOM     32  C   UNL     1       0.234   0.633  -2.839  0.00  0.00    +0.149 A 
ATOM     33  C   UNL     1      -0.781   1.210  -2.089  0.00  0.00    +0.048 A 
ATOM     34  C   UNL     1      -1.628   2.134  -2.669  0.00  0.00    +0.004 A 
ATOM     35  C   UNL     1      -1.465   2.486  -3.996  0.00  0.00    +0.002 A 
ATOM     36  C   UNL     1      -0.455   1.914  -4.747  0.00  0.00    +0.024 A 
ATOM     37  C   UNL     1       0.399   0.992  -4.170  0.00  0.00    +0.083 A 
ATOM     38 CL   UNL     1       1.671   0.278  -5.111  0.00  0.00    -0.080 Cl
ENDBRANCH  31  32
ENDBRANCH   3  31
TORSDOF 13
