REMARK  Name = ZINC38620719
REMARK  7 active torsions:
REMARK  status: ('A' for Active; 'I' for Inactive)
REMARK    1  A    between atoms: C_5  and  N_7
REMARK    2  A    between atoms: N_10  and  C_13
REMARK    3  A    between atoms: C_13  and  C_15
REMARK    4  A    between atoms: C_13  and  C_29
REMARK    5  A    between atoms: C_15  and  N_16
REMARK    6  A    between atoms: C_17  and  C_19
REMARK    7  A    between atoms: C_19  and  C_24
REMARK                            x       y       z     vdW  Elec       q    Type
REMARK                         _______ _______ _______ _____ _____    ______ ____
ROOT
ATOM      1  C   UNL     1       3.207  -5.744  -0.116  0.00  0.00    +0.104 C 
ENDROOT
BRANCH   1   2
ATOM      2  C   UNL     1       2.937  -6.527   1.143  0.00  0.00    -0.025 A 
ATOM      3  C   UNL     1       1.636  -6.729   1.565  0.00  0.00    +0.009 A 
ATOM      4  C   UNL     1       1.383  -7.447   2.719  0.00  0.00    +0.050 A 
ATOM      5  C   UNL     1       2.435  -7.966   3.456  0.00  0.00    +0.166 A 
ATOM      6  C   UNL     1       3.746  -7.764   3.032  0.00  0.00    +0.167 A 
ATOM      7  C   UNL     1       3.991  -7.048   1.871  0.00  0.00    +0.054 A 
ATOM      8  O   UNL     1       4.590  -8.367   3.918  0.00  0.00    -0.453 OA
ATOM      9  C   UNL     1       3.805  -8.591   5.105  0.00  0.00    +0.466 C 
ATOM     10  O   UNL     1       2.458  -8.697   4.609  0.00  0.00    -0.453 OA
ENDBRANCH   1   2
BRANCH   1  14
ATOM     11  N   UNL     1       1.414  -1.953  -0.282  0.00  0.00    -0.325 N 
ATOM     12  C   UNL     1       1.326  -2.678   0.994  0.00  0.00    +0.120 C 
ATOM     13  C   UNL     1       2.414  -3.757   1.018  0.00  0.00    +0.104 C 
ATOM     14  N   UNL     1       2.294  -4.595  -0.182  0.00  0.00    -0.291 NA
ATOM     15  C   UNL     1       2.522  -3.812  -1.404  0.00  0.00    +0.104 C 
ATOM     16  C   UNL     1       1.432  -2.736  -1.528  0.00  0.00    +0.120 C 
BRANCH  11  21
ATOM     17  C   UNL     1       0.366   1.569  -0.405  0.00  0.00    +0.002 A 
ATOM     18  C   UNL     1       1.591   2.209  -0.371  0.00  0.00    +0.003 A 
ATOM     19  C   UNL     1       2.759   1.471  -0.307  0.00  0.00    +0.040 A 
ATOM     20  C   UNL     1       2.705   0.090  -0.278  0.00  0.00    +0.144 A 
ATOM     21  C   UNL     1       1.474  -0.556  -0.312  0.00  0.00    +0.065 A 
ATOM     22  C   UNL     1       0.304   0.189  -0.376  0.00  0.00    +0.026 A 
ATOM     23  F   UNL     1       3.846  -0.631  -0.216  0.00  0.00    -0.204 F 
ENDBRANCH  11  21
ENDBRANCH   1  14
BRANCH   1  24
ATOM     24  C   UNL     1       2.985  -6.644  -1.333  0.00  0.00    +0.127 C 
BRANCH  24  25
ATOM     25  N   UNL     1       3.959  -7.738  -1.316  0.00  0.00    -0.313 N 
ATOM     26  C   UNL     1       4.017  -8.605  -2.346  0.00  0.00    +0.224 C 
ATOM     27  O   UNL     1       3.204  -8.535  -3.244  0.00  0.00    -0.275 OA
ATOM     28  H   UNL     1       4.562  -7.838  -0.563  0.00  0.00    +0.149 HD
BRANCH  26  29
ATOM     29  C   UNL     1       5.091  -9.661  -2.383  0.00  0.00    +0.078 C 
ATOM     30  C   UNL     1       4.874 -10.676  -1.241  0.00  0.00    +0.021 C 
ATOM     31  C   UNL     1       4.090 -11.834  -1.906  0.00  0.00    +0.001 C 
ATOM     32  C   UNL     1       4.739 -11.924  -3.310  0.00  0.00    +0.001 C 
ATOM     33  C   UNL     1       5.005 -10.455  -3.698  0.00  0.00    +0.021 C 
BRANCH  29  34
ATOM     34  C   UNL     1       6.449  -9.021  -2.254  0.00  0.00    +0.005 A 
ATOM     35  C   UNL     1       6.982  -8.354  -1.201  0.00  0.00    +0.012 A 
ATOM     36  C   UNL     1       8.263  -7.845  -1.308  0.00  0.00    +0.008 A 
ATOM     37  C   UNL     1       8.948  -8.028  -2.463  0.00  0.00    +0.045 A 
ATOM     38  S   UNL     1       7.776  -8.950  -3.446  0.00  0.00    -0.101 S 
ENDBRANCH  29  34
ENDBRANCH  26  29
ENDBRANCH  24  25
ENDBRANCH   1  24
TORSDOF 7
