REMARK  Name = ZINC32124813
REMARK  10 active torsions:
REMARK  status: ('A' for Active; 'I' for Inactive)
REMARK    1  A    between atoms: C_1  and  C_2
REMARK    2  A    between atoms: C_3  and  C_31
REMARK    3  A    between atoms: N_10  and  C_11
REMARK    4  A    between atoms: C_11  and  C_12
REMARK    5  A    between atoms: N_14  and  C_15
REMARK    6  A    between atoms: C_16  and  C_29
REMARK    7  A    between atoms: C_21  and  C_25
REMARK    8  A    between atoms: C_25  and  C_26
REMARK    9  A    between atoms: C_25  and  C_27
REMARK   10  A    between atoms: C_25  and  C_28
REMARK                            x       y       z     vdW  Elec       q    Type
REMARK                         _______ _______ _______ _____ _____    ______ ____
ROOT
ATOM      1  C   UNL     1      -1.341   1.991   8.411  0.00  0.00    +0.237 C 
ATOM      2  O   UNL     1      -0.203   1.727   8.085  0.00  0.00    -0.273 OA
ATOM      3  N   UNL     1      -2.287   2.173   7.469  0.00  0.00    -0.277 N 
ATOM      4  H   UNL     1      -3.319   2.413   7.766  0.00  0.00    +0.155 HD
ENDROOT
BRANCH   3   5
ATOM      5  C   UNL     1      -1.960   2.058   6.125  0.00  0.00    +0.090 A 
ATOM      6  C   UNL     1      -2.786   2.208   5.022  0.00  0.00    +0.084 A 
ATOM      7  C   UNL     1      -2.191   2.033   3.708  0.00  0.00    -0.018 A 
ATOM      8  C   UNL     1      -0.872   1.738   3.709  0.00  0.00    -0.004 A 
ATOM      9  S   UNL     1      -0.420   1.691   5.420  0.00  0.00    -0.077 S 
ATOM     10  C   UNL     1       0.002   1.506   2.515  0.00  0.00    +0.047 C 
ATOM     11  C   UNL     1      -0.735   2.019   1.269  0.00  0.00    -0.000 C 
ATOM     12  C   UNL     1      -2.170   1.485   1.286  0.00  0.00    +0.009 C 
ATOM     13  C   UNL     1      -2.965   2.163   2.402  0.00  0.00    +0.037 C 
BRANCH  11  14
ATOM     14  C   UNL     1      -0.019   1.526   0.010  0.00  0.00    -0.035 C 
ATOM     15  C   UNL     1       0.002  -0.004   0.002  0.00  0.00    +0.011 C 
ATOM     16  C   UNL     1       1.417   2.055  -0.000  0.00  0.00    +0.011 C 
ATOM     17  C   UNL     1      -0.759   2.033  -1.229  0.00  0.00    +0.011 C 
ENDBRANCH  11  14
BRANCH   6  18
ATOM     18  C   UNL     1      -4.175   2.523   5.171  0.00  0.00    +0.102 C 
ATOM     19  N   UNL     1      -5.277   2.773   5.290  0.00  0.00    -0.191 NA
ENDBRANCH   6  18
ENDBRANCH   3   5
BRANCH   1  20
ATOM     20  C   UNL     1      -1.696   2.116   9.870  0.00  0.00    +0.218 C 
BRANCH  20  30
ATOM     21  C   UNL     1      -0.859  -0.624  10.911  0.00  0.00    +0.064 C 
ATOM     22  C   UNL     1      -0.124   0.670  11.151  0.00  0.00    +0.027 A 
ATOM     23  C   UNL     1       1.041   0.799  11.876  0.00  0.00    +0.042 A 
ATOM     24  C   UNL     1       1.387   2.234  11.848  0.00  0.00    +0.010 A 
ATOM     25  C   UNL     1       2.424   2.989  12.387  0.00  0.00    +0.011 A 
ATOM     26  C   UNL     1       2.461   4.349  12.171  0.00  0.00    +0.001 A 
ATOM     27  C   UNL     1       1.470   4.965  11.420  0.00  0.00    +0.002 A 
ATOM     28  C   UNL     1       0.438   4.229  10.881  0.00  0.00    +0.026 A 
ATOM     29  C   UNL     1       0.384   2.854  11.088  0.00  0.00    +0.050 A 
ATOM     30  N   UNL     1      -0.503   1.876  10.686  0.00  0.00    -0.335 N 
BRANCH  23  31
ATOM     31  C   UNL     1       1.759  -0.237  12.525  0.00  0.00    +0.261 C 
ATOM     32  O   UNL     1       2.775   0.020  13.138  0.00  0.00    -0.296 OA
ENDBRANCH  23  31
ENDBRANCH  20  30
ENDBRANCH   1  20
TORSDOF 6
