REMARK  Name = ZINC14704172
REMARK  6 active torsions:
REMARK  status: ('A' for Active; 'I' for Inactive)
REMARK    1  A    between atoms: C_1  and  C_2
REMARK    2  A    between atoms: C_2  and  C_4
REMARK    3  A    between atoms: C_2  and  O_21
REMARK    4  A    between atoms: C_14  and  C_16
REMARK    5  A    between atoms: O_21  and  C_22
REMARK    6  A    between atoms: C_25  and  C_28
REMARK                            x       y       z     vdW  Elec       q    Type
REMARK                         _______ _______ _______ _____ _____    ______ ____
ROOT
ATOM      1  C   UNL     1       0.564  -0.509  -1.266  0.00  0.00    +0.257 C 
ATOM      2  O   UNL     1      -0.126  -1.037  -2.112  0.00  0.00    -0.272 OA
ATOM      3  N   UNL     1       1.885  -0.346  -1.479  0.00  0.00    -0.287 N 
ATOM      4  C   UNL     1       2.713   0.383  -0.506  0.00  0.00    +0.114 C 
ATOM      5  C   UNL     1       3.728  -0.601   0.096  0.00  0.00    +0.062 C 
ATOM      6  C   UNL     1       4.287  -1.445  -1.002  0.00  0.00    -0.003 A 
ATOM      7  C   UNL     1       3.792  -1.620  -2.258  0.00  0.00    -0.012 A 
ATOM      8  C   UNL     1       4.504  -2.474  -3.098  0.00  0.00    +0.013 A 
ATOM      9  C   UNL     1       5.631  -3.077  -2.653  0.00  0.00    +0.046 A 
ATOM     10  S   UNL     1       5.747  -2.453  -0.983  0.00  0.00    -0.101 S 
ATOM     11  C   UNL     1       2.519  -0.899  -2.684  0.00  0.00    +0.144 C 
ENDROOT
BRANCH  11  12
ATOM     12  C   UNL     1       2.865   0.216  -3.637  0.00  0.00    +0.015 A 
ATOM     13  C   UNL     1       2.751   0.251  -4.987  0.00  0.00    +0.013 A 
ATOM     14  C   UNL     1       3.132   1.394  -5.663  0.00  0.00    +0.008 A 
ATOM     15  C   UNL     1       3.609   2.448  -4.955  0.00  0.00    +0.045 A 
ATOM     16  S   UNL     1       3.522   1.837  -3.280  0.00  0.00    -0.099 S 
ENDBRANCH  11  12
BRANCH   1  18
ATOM     17  C   UNL     1      -0.175   1.491  -0.000  0.00  0.00    +0.062 C 
ATOM     18  C   UNL     1      -0.055  -0.034   0.023  0.00  0.00    +0.256 C 
BRANCH  18  19
ATOM     19  O   UNL     1      -1.354  -0.613   0.168  0.00  0.00    -0.480 OA
BRANCH  19  20
ATOM     20  C   UNL     1      -1.835  -0.736   1.432  0.00  0.00    +0.122 A 
ATOM     21  C   UNL     1      -3.038  -1.396   1.653  0.00  0.00    +0.047 A 
ATOM     22  C   UNL     1      -3.530  -1.524   2.933  0.00  0.00    +0.022 A 
ATOM     23  C   UNL     1      -2.818  -0.989   4.010  0.00  0.00    +0.052 A 
ATOM     24  C   UNL     1      -1.609  -0.326   3.783  0.00  0.00    +0.022 A 
ATOM     25  C   UNL     1      -1.122  -0.207   2.500  0.00  0.00    +0.047 A 
BRANCH  23  26
ATOM     26  C   UNL     1      -3.326  -1.119   5.343  0.00  0.00    +0.099 C 
ATOM     27  N   UNL     1      -3.729  -1.222   6.400  0.00  0.00    -0.191 NA
ENDBRANCH  23  26
ENDBRANCH  19  20
ENDBRANCH  18  19
ENDBRANCH   1  18
TORSDOF 5
