REMARK  Name = ZINC36579839
REMARK  9 active torsions:
REMARK  status: ('A' for Active; 'I' for Inactive)
REMARK    1  A    between atoms: C_1  and  C_2
REMARK    2  A    between atoms: C_2  and  C_3
REMARK    3  A    between atoms: C_2  and  C_4
REMARK    4  A    between atoms: C_4  and  C_5
REMARK    5  A    between atoms: C_5  and  C_7
REMARK    6  A    between atoms: C_5  and  N_11
REMARK    7  A    between atoms: C_7  and  O_9
REMARK    8  A    between atoms: O_9  and  C_10
REMARK    9  A    between atoms: C_23  and  C_25
REMARK                            x       y       z     vdW  Elec       q    Type
REMARK                         _______ _______ _______ _____ _____    ______ ____
ROOT
ATOM      1  N   UNL     1       0.142  -4.865  -0.486  0.00  0.00    -0.286 N 
ATOM      2  C   UNL     1       0.109  -4.239   0.707  0.00  0.00    +0.304 C 
ATOM      3  O   UNL     1      -0.419  -3.149   0.808  0.00  0.00    -0.253 OA
ATOM      4  N   UNL     1       0.663  -4.822   1.789  0.00  0.00    -0.273 N 
ATOM      5  C   UNL     1       0.543  -4.208   3.120  0.00  0.00    +0.116 C 
ATOM      6  C   UNL     1       1.938  -3.807   3.615  0.00  0.00    +0.074 C 
ATOM      7  C   UNL     1       2.892  -4.943   3.350  0.00  0.00    +0.040 A 
ATOM      8  C   UNL     1       2.664  -5.955   2.486  0.00  0.00    +0.062 A 
ATOM      9  N   UNL     1       3.724  -6.767   2.509  0.00  0.00    -0.348 N 
ATOM     10  C   UNL     1       4.602  -6.300   3.358  0.00  0.00    +0.171 A 
ATOM     11  N   UNL     1       4.117  -5.161   3.905  0.00  0.00    -0.349 N 
ATOM     12  H   UNL     1       4.558  -4.605   4.566  0.00  0.00    +0.166 HD
ATOM     13  C   UNL     1       1.398  -6.094   1.668  0.00  0.00    +0.159 C 
ATOM     14  H   UNL     1       0.623  -5.702  -0.582  0.00  0.00    +0.151 HD
ATOM     15  H   UNL     1       3.826  -7.574   1.981  0.00  0.00    +0.167 HD
ENDROOT
BRANCH  13  16
ATOM     16  C   UNL     1       0.558  -7.225   2.204  0.00  0.00    +0.014 A 
ATOM     17  C   UNL     1       1.133  -8.194   3.004  0.00  0.00    +0.011 A 
ATOM     18  C   UNL     1       0.364  -9.231   3.496  0.00  0.00    +0.039 A 
ATOM     19  C   UNL     1      -0.984  -9.301   3.188  0.00  0.00    +0.126 A 
ATOM     20  C   UNL     1      -1.561  -8.331   2.387  0.00  0.00    +0.077 A 
ATOM     21  C   UNL     1      -0.791  -7.289   1.899  0.00  0.00    +0.131 A 
ATOM     22  F   UNL     1      -1.355  -6.339   1.121  0.00  0.00    -0.205 F 
ATOM     23  F   UNL     1      -1.736 -10.315   3.669  0.00  0.00    -0.205 F 
ENDBRANCH  13  16
BRANCH   1  24
ATOM     24  C   UNL     1      -0.549  -4.280  -1.639  0.00  0.00    +0.183 C 
BRANCH  24  25
ATOM     25  C   UNL     1       0.351  -3.272  -2.305  0.00  0.00    +0.327 C 
ATOM     26  O   UNL     1       1.456  -3.063  -1.863  0.00  0.00    -0.249 OA
BRANCH  25  27
ATOM     27  O   UNL     1      -0.075  -2.606  -3.390  0.00  0.00    -0.467 OA
ATOM     28  C   UNL     1       0.830  -1.665  -3.971  0.00  0.00    +0.280 C 
ENDBRANCH  25  27
ENDBRANCH  24  25
BRANCH  24  29
ATOM     29  C   UNL     1      -0.903  -5.386  -2.635  0.00  0.00    +0.036 C 
BRANCH  29  31
ATOM     30  C   UNL     1      -3.228  -5.606  -1.749  0.00  0.00    +0.007 C 
ATOM     31  C   UNL     1      -1.911  -6.344  -1.998  0.00  0.00    -0.015 C 
ATOM     32  C   UNL     1      -2.159  -7.524  -2.939  0.00  0.00    +0.007 C 
ENDBRANCH  29  31
ENDBRANCH  24  29
ENDBRANCH   1  24
TORSDOF 6
