REMARK  Name = ZINC63614433
REMARK  7 active torsions:
REMARK  status: ('A' for Active; 'I' for Inactive)
REMARK    1  A    between atoms: C_7  and  C_10
REMARK    2  A    between atoms: C_10  and  C_11
REMARK    3  A    between atoms: C_11  and  N_12
REMARK    4  A    between atoms: C_13  and  C_15
REMARK    5  A    between atoms: C_15  and  C_30
REMARK    6  A    between atoms: C_16  and  C_17
REMARK    7  A    between atoms: C_20  and  C_22
REMARK                            x       y       z     vdW  Elec       q    Type
REMARK                         _______ _______ _______ _____ _____    ______ ____
ROOT
ATOM      1  C   UNL     1      -1.727  -6.527  -2.622  0.00  0.00    +0.117 C 
ATOM      2  C   UNL     1      -2.090  -7.127  -3.820  0.00  0.00    +0.070 C 
ENDROOT
BRANCH   2   3
ATOM      3  C   UNL     1      -2.967  -8.223  -3.818  0.00  0.00    +0.130 A 
ATOM      4  C   UNL     1      -3.405  -8.917  -4.938  0.00  0.00    +0.050 A 
ATOM      5  C   UNL     1      -4.255  -9.922  -4.481  0.00  0.00    +0.050 A 
ATOM      6  C   UNL     1      -4.310  -9.813  -3.107  0.00  0.00    +0.137 A 
ATOM      7  O   UNL     1      -3.525  -8.790  -2.727  0.00  0.00    -0.455 OA
BRANCH   6   8
ATOM      8  C   UNL     1      -5.094 -10.677  -2.205  0.00  0.00    +0.036 A 
ATOM      9  C   UNL     1      -6.445 -10.921  -2.466  0.00  0.00    +0.014 A 
ATOM     10  C   UNL     1      -7.172 -11.730  -1.619  0.00  0.00    +0.021 A 
ATOM     11  C   UNL     1      -6.566 -12.302  -0.512  0.00  0.00    +0.042 A 
ATOM     12  C   UNL     1      -5.228 -12.066  -0.247  0.00  0.00    +0.040 A 
ATOM     13  C   UNL     1      -4.487 -11.262  -1.089  0.00  0.00    +0.053 A 
ATOM     14 CL   UNL     1      -2.807 -10.972  -0.760  0.00  0.00    -0.083 Cl
ATOM     15 CL   UNL     1      -7.490 -13.319   0.549  0.00  0.00    -0.083 Cl
ENDBRANCH   6   8
ENDBRANCH   2   3
BRANCH   1  17
ATOM     16  N   UNL     1      -0.458  -4.798  -1.460  0.00  0.00    -0.310 N 
ATOM     17  C   UNL     1      -0.811  -5.380  -2.623  0.00  0.00    +0.254 C 
ATOM     18  O   UNL     1      -0.369  -4.956  -3.675  0.00  0.00    -0.269 OA
ATOM     19  H   UNL     1      -0.810  -5.136  -0.622  0.00  0.00    +0.149 HD
BRANCH  16  20
ATOM     20  C   UNL     1       0.457  -3.653  -1.462  0.00  0.00    +0.109 C 
BRANCH  20  21
ATOM     21  C   UNL     1       0.691  -3.186  -0.024  0.00  0.00    +0.052 C 
BRANCH  21  28
ATOM     22  C   UNL     1      -0.016   1.348   0.009  0.00  0.00    +0.001 A 
ATOM     23  C   UNL     1       1.166   2.101   0.002  0.00  0.00    +0.002 A 
ATOM     24  C   UNL     1       2.391   1.535  -0.013  0.00  0.00    +0.026 A 
ATOM     25  C   UNL     1       2.529   0.120  -0.022  0.00  0.00    +0.043 A 
ATOM     26  N   UNL     1       3.587  -0.654  -0.037  0.00  0.00    -0.380 N 
ATOM     27  C   UNL     1       3.143  -2.053  -0.041  0.00  0.00    +0.144 C 
ATOM     28  C   UNL     1       1.631  -2.008  -0.025  0.00  0.00    -0.040 C 
ATOM     29  C   UNL     1       1.295  -0.698  -0.014  0.00  0.00    -0.001 A 
ATOM     30  C   UNL     1       0.002  -0.004   0.002  0.00  0.00    +0.010 A 
ATOM     31  H   UNL     1       4.509  -0.353  -0.045  0.00  0.00    +0.160 HD
ENDBRANCH  21  28
ENDBRANCH  20  21
ENDBRANCH  16  20
ENDBRANCH   1  17
BRANCH   1  32
ATOM     32  C   UNL     1      -2.247  -7.026  -1.384  0.00  0.00    +0.104 C 
ATOM     33  N   UNL     1      -2.659  -7.422  -0.403  0.00  0.00    -0.191 NA
ENDBRANCH   1  32
TORSDOF 7
