REMARK  Name = ZINC20986181
REMARK  4 active torsions:
REMARK  status: ('A' for Active; 'I' for Inactive)
REMARK    1  A    between atoms: C_1  and  C_2
REMARK    2  A    between atoms: C_2  and  C_3
REMARK    3  A    between atoms: C_2  and  N_4
REMARK    4  A    between atoms: N_12  and  N_13
REMARK                            x       y       z     vdW  Elec       q    Type
REMARK                         _______ _______ _______ _____ _____    ______ ____
ROOT
ATOM      1  N   UNL     1      -1.112   1.989   0.018  0.00  0.00    -0.263 N 
ATOM      2  C   UNL     1      -0.779   3.339   0.028  0.00  0.00    +0.046 A 
ATOM      3  C   UNL     1      -1.567   4.485   0.041  0.00  0.00    +0.024 A 
ATOM      4  C   UNL     1      -0.976   5.732   0.043  0.00  0.00    +0.002 A 
ATOM      5  C   UNL     1       0.403   5.859   0.030  0.00  0.00    +0.001 A 
ATOM      6  C   UNL     1       1.201   4.732   0.017  0.00  0.00    +0.012 A 
ATOM      7  C   UNL     1       0.615   3.471   0.015  0.00  0.00    +0.028 A 
ATOM      8  C   UNL     1       1.165   2.096   0.002  0.00  0.00    +0.153 C 
ATOM      9  N   UNL     1       2.430   1.741  -0.012  0.00  0.00    -0.176 NA
ATOM     10  C   UNL     1      -0.014   1.213   0.009  0.00  0.00    +0.272 C 
ATOM     11  O   UNL     1       0.002  -0.004   0.002  0.00  0.00    -0.268 OA
ENDROOT
BRANCH   9  12
ATOM     12  N   UNL     1       2.749   0.491  -0.021  0.00  0.00    -0.220 N 
ATOM     13  C   UNL     1       4.086   0.116  -0.036  0.00  0.00    +0.139 A 
ATOM     14  C   UNL     1       4.414  -1.247  -0.046  0.00  0.00    +0.046 A 
ATOM     15  C   UNL     1       5.722  -1.630  -0.060  0.00  0.00    +0.013 A 
ATOM     16  C   UNL     1       6.712  -0.626  -0.065  0.00  0.00    +0.001 A 
ATOM     17  C   UNL     1       8.077  -0.950  -0.081  0.00  0.00    +0.010 A 
ATOM     18  C   UNL     1       9.006   0.046  -0.085  0.00  0.00    +0.001 A 
ATOM     19  C   UNL     1       8.618   1.384  -0.074  0.00  0.00    +0.002 A 
ATOM     20  C   UNL     1       7.303   1.734  -0.060  0.00  0.00    +0.028 A 
ATOM     21  C   UNL     1       6.315   0.733  -0.054  0.00  0.00    +0.073 A 
ATOM     22  N   UNL     1       5.016   1.049  -0.046  0.00  0.00    -0.231 NA
ATOM     23  H   UNL     1       1.962  -0.277  -0.017  0.00  0.00    +0.176 HD
ENDBRANCH   9  12
BRANCH   1  25
ATOM     24  C   UNL     1      -2.715   0.629  -1.232  0.00  0.00    +0.028 C 
ATOM     25  C   UNL     1      -2.484   1.477   0.020  0.00  0.00    +0.076 C 
ATOM     26  C   UNL     1      -2.705   0.617   1.266  0.00  0.00    +0.028 C 
ENDBRANCH   1  25
TORSDOF 2
