REMARK  Name = ZINC08440257
REMARK  11 active torsions:
REMARK  status: ('A' for Active; 'I' for Inactive)
REMARK    1  A    between atoms: C_1  and  C_2
REMARK    2  A    between atoms: C_5  and  N_9
REMARK    3  A    between atoms: C_7  and  C_8
REMARK    4  A    between atoms: C_13  and  N_14
REMARK    5  A    between atoms: N_14  and  C_15
REMARK    6  A    between atoms: C_18  and  S_23
REMARK    7  A    between atoms: C_20  and  O_21
REMARK    8  A    between atoms: O_21  and  C_22
REMARK    9  A    between atoms: S_23  and  N_26
REMARK   10  A    between atoms: N_26  and  C_27
REMARK   11  A    between atoms: C_33  and  C_35
REMARK                            x       y       z     vdW  Elec       q    Type
REMARK                         _______ _______ _______ _____ _____    ______ ____
ROOT
ATOM      1  C   UNL     1      -2.578  -7.765  -5.321  0.00  0.00    +0.073 A 
ATOM      2  C   UNL     1      -1.992  -8.478  -4.284  0.00  0.00    +0.029 A 
ATOM      3  C   UNL     1      -1.297  -9.641  -4.552  0.00  0.00    +0.031 A 
ATOM      4  C   UNL     1      -1.183 -10.099  -5.852  0.00  0.00    +0.112 A 
ATOM      5  C   UNL     1      -1.762  -9.394  -6.891  0.00  0.00    +0.076 A 
ATOM      6  C   UNL     1      -2.466  -8.229  -6.630  0.00  0.00    +0.143 A 
ENDROOT
BRANCH   4   7
ATOM      7  S   UNL     1      -0.295 -11.584  -6.186  0.00  0.00    +0.072 S 
ATOM      8  O   UNL     1       0.239 -11.451  -7.496  0.00  0.00    -0.150 OA
ATOM      9  O   UNL     1       0.524 -11.831  -5.051  0.00  0.00    -0.150 OA
BRANCH   7  10
ATOM     10  N   UNL     1      -1.402 -12.813  -6.248  0.00  0.00    -0.216 N 
ATOM     11  H   UNL     1      -1.529 -13.311  -7.071  0.00  0.00    +0.174 HD
BRANCH  10  12
ATOM     12  C   UNL     1      -2.155 -13.133  -5.116  0.00  0.00    +0.048 A 
ATOM     13  C   UNL     1      -1.567 -13.821  -4.062  0.00  0.00    +0.024 A 
ATOM     14  C   UNL     1      -2.314 -14.136  -2.943  0.00  0.00    +0.002 A 
ATOM     15  C   UNL     1      -3.645 -13.767  -2.872  0.00  0.00    +0.000 A 
ATOM     16  C   UNL     1      -4.233 -13.082  -3.920  0.00  0.00    +0.002 A 
ATOM     17  C   UNL     1      -3.490 -12.759  -5.039  0.00  0.00    +0.024 A 
ENDBRANCH  10  12
ENDBRANCH   7  10
ENDBRANCH   4   7
BRANCH   1  18
ATOM     18  N   UNL     1      -3.282  -6.586  -5.052  0.00  0.00    -0.317 N 
ATOM     19  H   UNL     1      -3.694  -6.091  -5.778  0.00  0.00    +0.152 HD
BRANCH  18  24
ATOM     20  N   UNL     1      -5.302  -3.092  -3.759  0.00  0.00    -0.156 N 
ATOM     21  C   UNL     1      -4.769  -4.099  -4.481  0.00  0.00    +0.273 C 
ATOM     22  O   UNL     1      -4.839  -4.253  -5.689  0.00  0.00    -0.268 OA
ATOM     23  C   UNL     1      -4.087  -4.972  -3.518  0.00  0.00    +0.075 C 
ATOM     24  C   UNL     1      -3.389  -6.139  -3.784  0.00  0.00    +0.087 C 
ATOM     25  C   UNL     1      -4.305  -4.338  -2.210  0.00  0.00    +0.070 C 
ATOM     26  N   UNL     1      -5.002  -3.261  -2.408  0.00  0.00    -0.176 NA
ATOM     27  C   UNL     1      -3.804  -4.842  -0.881  0.00  0.00    +0.068 C 
BRANCH  20  32
ATOM     28  C   UNL     1      -8.308   1.213  -5.910  0.00  0.00    +0.044 C 
ATOM     29  C   UNL     1      -7.510   0.070  -5.339  0.00  0.00    -0.047 A 
ATOM     30  C   UNL     1      -7.014  -0.913  -6.177  0.00  0.00    +0.005 A 
ATOM     31  C   UNL     1      -6.282  -1.962  -5.657  0.00  0.00    +0.026 A 
ATOM     32  C   UNL     1      -6.044  -2.030  -4.290  0.00  0.00    +0.061 A 
ATOM     33  C   UNL     1      -6.543  -1.042  -3.451  0.00  0.00    +0.029 A 
ATOM     34  C   UNL     1      -7.269   0.008  -3.979  0.00  0.00    -0.046 A 
ATOM     35  C   UNL     1      -7.806   1.083  -3.070  0.00  0.00    +0.044 C 
ENDBRANCH  20  32
ENDBRANCH  18  24
ENDBRANCH   1  18
BRANCH   6  36
ATOM     36  O   UNL     1      -3.041  -7.538  -7.650  0.00  0.00    -0.493 OA
ATOM     37  C   UNL     1      -2.886  -8.073  -8.966  0.00  0.00    +0.277 C 
ENDBRANCH   6  36
TORSDOF 7
