REMARK  Name = ZINC40491395
REMARK  9 active torsions:
REMARK  status: ('A' for Active; 'I' for Inactive)
REMARK    1  A    between atoms: C_1  and  C_2
REMARK    2  A    between atoms: C_2  and  C_4
REMARK    3  A    between atoms: C_2  and  N_12
REMARK    4  A    between atoms: C_7  and  O_11
REMARK    5  A    between atoms: C_9  and  O_10
REMARK    6  A    between atoms: N_12  and  C_13
REMARK    7  A    between atoms: C_18  and  C_19
REMARK    8  A    between atoms: C_19  and  O_20
REMARK    9  A    between atoms: O_20  and  C_21
REMARK                            x       y       z     vdW  Elec       q    Type
REMARK                         _______ _______ _______ _____ _____    ______ ____
ROOT
ATOM      1  C   UNL     1       0.007   1.525  -0.050  0.00  0.00    +0.033 C 
ATOM      2  C   UNL     1       0.002  -0.004   0.002  0.00  0.00    +0.101 C 
ENDROOT
BRANCH   2   3
ATOM      3  C   UNL     1       0.575  -0.464   1.318  0.00  0.00    +0.014 A 
ATOM      4  C   UNL     1      -0.264  -0.709   2.388  0.00  0.00    +0.012 A 
ATOM      5  C   UNL     1       0.258  -1.130   3.596  0.00  0.00    +0.046 A 
ATOM      6  C   UNL     1       1.627  -1.308   3.737  0.00  0.00    +0.120 A 
ATOM      7  C   UNL     1       2.471  -1.063   2.665  0.00  0.00    +0.091 A 
ATOM      8  C   UNL     1       1.944  -0.646   1.452  0.00  0.00    +0.125 A 
BRANCH   8   9
ATOM      9  O   UNL     1       2.768  -0.410   0.397  0.00  0.00    -0.506 OA
ATOM     10  H   UNL     1       3.093   0.499   0.348  0.00  0.00    +0.292 HD
ENDBRANCH   8   9
BRANCH   6  11
ATOM     11  O   UNL     1       2.141  -1.722   4.925  0.00  0.00    -0.507 OA
ATOM     12  H   UNL     1       2.206  -2.683   5.012  0.00  0.00    +0.292 HD
ENDBRANCH   6  11
ENDBRANCH   2   3
BRANCH   2  13
ATOM     13  N   UNL     1      -1.373  -0.493  -0.129  0.00  0.00    -0.337 N 
ATOM     14  H   UNL     1      -1.896  -0.689   0.664  0.00  0.00    +0.147 HD
BRANCH  13  15
ATOM     15  C   UNL     1      -1.930  -0.677  -1.397  0.00  0.00    +0.034 A 
ATOM     16  C   UNL     1      -1.180  -0.403  -2.534  0.00  0.00    +0.023 A 
ATOM     17  C   UNL     1      -1.734  -0.586  -3.785  0.00  0.00    +0.003 A 
ATOM     18  C   UNL     1      -3.034  -1.042  -3.909  0.00  0.00    +0.016 A 
ATOM     19  C   UNL     1      -3.784  -1.316  -2.779  0.00  0.00    +0.025 A 
ATOM     20  C   UNL     1      -3.233  -1.141  -1.523  0.00  0.00    +0.013 A 
ATOM     21 BR   UNL     1      -5.561  -1.939  -2.952  0.00  0.00    -0.050 Br
BRANCH  20  22
ATOM     22  C   UNL     1      -4.048  -1.446  -0.293  0.00  0.00    +0.197 C 
BRANCH  22  23
ATOM     23  O   UNL     1      -4.758  -0.274   0.111  0.00  0.00    -0.378 OA
ATOM     24  C   UNL     1      -5.566  -0.456   1.276  0.00  0.00    +0.194 C 
ENDBRANCH  22  23
ENDBRANCH  20  22
ENDBRANCH  13  15
ENDBRANCH   2  13
TORSDOF 7
