REMARK  Name = ZINC63406435
REMARK  9 active torsions:
REMARK  status: ('A' for Active; 'I' for Inactive)
REMARK    1  A    between atoms: C_1  and  C_2
REMARK    2  A    between atoms: C_2  and  C_3
REMARK    3  A    between atoms: C_2  and  C_4
REMARK    4  A    between atoms: C_2  and  C_5
REMARK    5  A    between atoms: C_5  and  C_6
REMARK    6  A    between atoms: C_5  and  N_11
REMARK    7  A    between atoms: N_14  and  C_15
REMARK    8  A    between atoms: C_18  and  C_21
REMARK    9  A    between atoms: N_23  and  C_24
REMARK                            x       y       z     vdW  Elec       q    Type
REMARK                         _______ _______ _______ _____ _____    ______ ____
ROOT
ATOM      1  N   UNL     1       0.010  -0.012  -2.444  0.00  0.00    -0.292 N 
ATOM      2  C   UNL     1      -1.042  -0.701  -2.929  0.00  0.00    +0.300 C 
ATOM      3  O   UNL     1      -1.404  -1.724  -2.381  0.00  0.00    -0.253 OA
ATOM      4  N   UNL     1      -1.694  -0.254  -4.021  0.00  0.00    -0.297 N 
ATOM      5  H   UNL     1       0.298   0.805  -2.880  0.00  0.00    +0.151 HD
ATOM      6  H   UNL     1      -1.406   0.563  -4.457  0.00  0.00    +0.151 HD
ENDROOT
BRANCH   4   7
ATOM      7  C   UNL     1      -2.838  -1.003  -4.548  0.00  0.00    +0.074 C 
ATOM      8  C   UNL     1      -2.338  -2.109  -5.479  0.00  0.00    +0.023 C 
ATOM      9  C   UNL     1      -1.558  -1.486  -6.639  0.00  0.00    +0.014 C 
ATOM     10  C   UNL     1      -2.472  -0.538  -7.418  0.00  0.00    +0.075 C 
ATOM     11  C   UNL     1      -2.972   0.568  -6.486  0.00  0.00    +0.014 C 
ATOM     12  C   UNL     1      -3.752  -0.055  -5.327  0.00  0.00    +0.023 C 
BRANCH  10  13
ATOM     13  C   UNL     1      -1.704   0.076  -8.559  0.00  0.00    +0.216 C 
ATOM     14  O   UNL     1      -0.540  -0.216  -8.733  0.00  0.00    -0.276 OA
ATOM     15  N   UNL     1      -2.310   0.949  -9.388  0.00  0.00    -0.318 N 
ATOM     16  C   UNL     1      -1.563   1.546 -10.498  0.00  0.00    +0.128 C 
ATOM     17  H   UNL     1      -3.242   1.183  -9.249  0.00  0.00    +0.148 HD
ENDBRANCH  10  13
ENDBRANCH   4   7
BRANCH   1  18
ATOM     18  C   UNL     1       0.718  -0.497  -1.257  0.00  0.00    +0.117 C 
BRANCH  18  19
ATOM     19  C   UNL     1       2.132   0.024  -1.268  0.00  0.00    +0.011 A 
ATOM     20  C   UNL     1       3.279  -0.612  -0.927  0.00  0.00    +0.013 A 
ATOM     21  C   UNL     1       4.477   0.071  -1.016  0.00  0.00    +0.008 A 
ATOM     22  C   UNL     1       4.469   1.358  -1.442  0.00  0.00    +0.045 A 
ATOM     23  S   UNL     1       2.731   1.638  -1.739  0.00  0.00    -0.100 S 
ENDBRANCH  18  19
BRANCH  18  25
ATOM     24  C   UNL     1      -0.019   1.526   0.010  0.00  0.00    +0.013 C 
ATOM     25  C   UNL     1       0.002  -0.004   0.002  0.00  0.00    -0.015 C 
ATOM     26  C   UNL     1       0.742  -0.511   1.242  0.00  0.00    +0.013 C 
ATOM     27  C   UNL     1      -1.433  -0.534   0.013  0.00  0.00    +0.013 C 
ENDBRANCH  18  25
ENDBRANCH   1  18
TORSDOF 5
