REMARK  Name = ZINC62230995
REMARK  6 active torsions:
REMARK  status: ('A' for Active; 'I' for Inactive)
REMARK    1  A    between atoms: C_1  and  N_2
REMARK    2  A    between atoms: N_2  and  C_3
REMARK    3  A    between atoms: C_3  and  C_5
REMARK    4  A    between atoms: C_3  and  C_15
REMARK    5  A    between atoms: C_10  and  O_11
REMARK    6  A    between atoms: O_11  and  C_12
REMARK                            x       y       z     vdW  Elec       q    Type
REMARK                         _______ _______ _______ _____ _____    ______ ____
ROOT
ATOM      1  C   UNL     1       0.713  -0.491   1.192  0.00  0.00    -0.032 C 
ENDROOT
BRANCH   1   2
ATOM      2  C   UNL     1      -0.059  -0.109   2.429  0.00  0.00    -0.017 A 
ATOM      3  C   UNL     1      -1.423   0.103   2.355  0.00  0.00    +0.025 A 
ATOM      4  C   UNL     1      -2.132   0.453   3.490  0.00  0.00    +0.042 A 
ATOM      5  C   UNL     1      -1.478   0.591   4.702  0.00  0.00    +0.039 A 
ATOM      6  C   UNL     1      -0.115   0.381   4.780  0.00  0.00    +0.061 A 
ATOM      7  C   UNL     1       0.597   0.024   3.643  0.00  0.00    +0.136 A 
ATOM      8 BR   UNL     1       0.778   0.571   6.436  0.00  0.00    -0.046 Br
ATOM      9 CL   UNL     1      -3.845   0.718   3.394  0.00  0.00    -0.083 Cl
BRANCH   7  10
ATOM     10  O   UNL     1       1.938  -0.190   3.719  0.00  0.00    -0.494 OA
ATOM     11  C   UNL     1       2.787   0.940   3.507  0.00  0.00    +0.277 C 
ENDBRANCH   7  10
ENDBRANCH   1   2
BRANCH   1  12
ATOM     12  C   UNL     1       0.842  -2.014   1.121  0.00  0.00    +0.005 C 
ATOM     13  C   UNL     1       1.630  -2.402  -0.134  0.00  0.00    +0.007 C 
ATOM     14  C   UNL     1       1.820  -3.922  -0.153  0.00  0.00    +0.028 C 
ATOM     15  C   UNL     1       2.527  -4.356   1.134  0.00  0.00    +0.160 C 
ATOM     16  O   UNL     1       1.758  -3.937   2.263  0.00  0.00    -0.380 OA
ATOM     17  C   UNL     1       1.585  -2.522   2.360  0.00  0.00    +0.162 C 
ENDBRANCH   1  12
BRANCH   1  19
ATOM     18  C   UNL     1      -0.018   1.465   0.010  0.00  0.00    -0.100 C 
ATOM     19  N   UNL     1       0.002  -0.004   0.002  0.00  0.00    +0.382 N 
ATOM     20  H   UNL     1      -0.945  -0.353   0.009  0.00  0.00    -0.085 HD
ATOM     21  H   UNL     1       0.474  -0.330  -0.828  0.00  0.00    -0.085 HD
ENDBRANCH   1  19
TORSDOF 4
