REMARK  Name = ZINC55412297
REMARK  8 active torsions:
REMARK  status: ('A' for Active; 'I' for Inactive)
REMARK    1  A    between atoms: C_1  and  C_2
REMARK    2  A    between atoms: C_3  and  C_27
REMARK    3  A    between atoms: C_4  and  C_17
REMARK    4  A    between atoms: C_9  and  C_11
REMARK    5  A    between atoms: C_20  and  O_25
REMARK    6  A    between atoms: C_22  and  O_23
REMARK    7  A    between atoms: O_23  and  C_24
REMARK    8  A    between atoms: O_25  and  C_26
REMARK                            x       y       z     vdW  Elec       q    Type
REMARK                         _______ _______ _______ _____ _____    ______ ____
ROOT
ATOM      1  C   UNL     1      -0.285   0.472  -1.218  0.00  0.00    +0.062 C 
ATOM      2  C   UNL     1      -0.791   1.699  -1.933  0.00  0.00    +0.034 C 
ATOM      3  C   UNL     1      -0.553   3.043  -1.306  0.00  0.00    +0.148 C 
ATOM      4  C   UNL     1      -0.365   4.129  -2.372  0.00  0.00    +0.162 C 
ATOM      5  N   UNL     1      -1.354   3.903  -3.427  0.00  0.00    -0.220 N 
ATOM      6  C   UNL     1      -1.823   2.657  -3.737  0.00  0.00    +0.250 A 
ATOM      7  N   UNL     1      -2.673   2.785  -4.722  0.00  0.00    -0.189 NA
ATOM      8  C   UNL     1      -2.780   4.080  -5.060  0.00  0.00    +0.190 A 
ATOM      9  N   UNL     1      -1.986   4.797  -4.283  0.00  0.00    -0.147 NA
ATOM     10  N   UNL     1      -1.406   1.547  -3.060  0.00  0.00    -0.220 NA
ENDROOT
BRANCH   4  11
ATOM     11  C   UNL     1      -0.577   5.488  -1.756  0.00  0.00    +0.020 A 
ATOM     12  C   UNL     1      -1.191   6.488  -2.486  0.00  0.00    +0.013 A 
ATOM     13  C   UNL     1      -1.387   7.735  -1.925  0.00  0.00    +0.046 A 
ATOM     14  C   UNL     1      -0.966   7.987  -0.626  0.00  0.00    +0.124 A 
ATOM     15  C   UNL     1      -0.349   6.986   0.108  0.00  0.00    +0.091 A 
ATOM     16  C   UNL     1      -0.159   5.733  -0.456  0.00  0.00    +0.129 A 
BRANCH  16  17
ATOM     17  O   UNL     1       0.440   4.747   0.263  0.00  0.00    -0.495 OA
ATOM     18  C   UNL     1       0.843   5.070   1.595  0.00  0.00    +0.277 C 
ENDBRANCH  16  17
BRANCH  14  19
ATOM     19  O   UNL     1      -1.158   9.214  -0.075  0.00  0.00    -0.495 OA
ATOM     20  C   UNL     1      -1.800  10.198  -0.889  0.00  0.00    +0.277 C 
ENDBRANCH  14  19
ENDBRANCH   4  11
BRANCH   8  21
ATOM     21  C   UNL     1      -3.648   4.618  -6.129  0.00  0.00    +0.058 A 
ATOM     22  C   UNL     1      -4.499   3.950  -6.968  0.00  0.00    +0.019 A 
ATOM     23  C   UNL     1      -5.215   4.672  -7.898  0.00  0.00    +0.008 A 
ATOM     24  C   UNL     1      -5.057   6.019  -7.954  0.00  0.00    +0.046 A 
ATOM     25  S   UNL     1      -3.866   6.310  -6.657  0.00  0.00    -0.093 S 
ENDBRANCH   8  21
BRANCH   3  26
ATOM     26  C   UNL     1      -1.735   3.400  -0.441  0.00  0.00    +0.221 C 
ATOM     27  O   UNL     1      -2.717   3.910  -0.936  0.00  0.00    -0.275 OA
ATOM     28  N   UNL     1      -1.699   3.153   0.883  0.00  0.00    -0.329 N 
ATOM     29  H   UNL     1      -0.913   2.745   1.280  0.00  0.00    +0.145 HD
ATOM     30  H   UNL     1      -2.459   3.382   1.440  0.00  0.00    +0.145 HD
ENDBRANCH   3  26
TORSDOF 5
