REMARK  Name = ZINC40924715
REMARK  9 active torsions:
REMARK  status: ('A' for Active; 'I' for Inactive)
REMARK    1  A    between atoms: C_1  and  O_2
REMARK    2  A    between atoms: O_2  and  C_3
REMARK    3  A    between atoms: C_5  and  C_11
REMARK    4  A    between atoms: C_8  and  O_9
REMARK    5  A    between atoms: N_12  and  N_13
REMARK    6  A    between atoms: C_14  and  C_16
REMARK    7  A    between atoms: C_16  and  S_17
REMARK    8  A    between atoms: S_17  and  C_18
REMARK    9  A    between atoms: C_20  and  C_23
REMARK                            x       y       z     vdW  Elec       q    Type
REMARK                         _______ _______ _______ _____ _____    ______ ____
ROOT
ATOM      1  N   UNL     1      -7.189   0.360   0.056  0.00  0.00    -0.206 N 
ATOM      2  C   UNL     1      -8.379  -0.272   0.064  0.00  0.00    +0.242 C 
ATOM      3  O   UNL     1      -8.422  -1.485   0.063  0.00  0.00    -0.273 OA
ATOM      4  H   UNL     1      -7.155   1.330   0.057  0.00  0.00    +0.177 HD
ENDROOT
BRANCH   1   6
ATOM      5  C   UNL     1      -4.855   0.227   0.038  0.00  0.00    +0.138 C 
ATOM      6  N   UNL     1      -6.001  -0.382   0.046  0.00  0.00    -0.188 NA
BRANCH   5   9
ATOM      7  C   UNL     1      -1.201  -0.638   0.010  0.00  0.00    +0.163 A 
ATOM      8  C   UNL     1      -2.371   0.099   0.019  0.00  0.00    +0.059 A 
ATOM      9  C   UNL     1      -3.605  -0.555   0.028  0.00  0.00    -0.001 A 
ATOM     10  C   UNL     1      -3.652  -1.951   0.026  0.00  0.00    +0.028 A 
ATOM     11  C   UNL     1      -2.481  -2.680   0.017  0.00  0.00    +0.063 A 
ATOM     12  C   UNL     1      -1.255  -2.030   0.003  0.00  0.00    +0.173 A 
ATOM     13 BR   UNL     1      -2.546  -4.570   0.015  0.00  0.00    -0.046 Br
BRANCH   7  15
ATOM     14  C   UNL     1      -0.017   1.425   0.010  0.00  0.00    +0.277 C 
ATOM     15  O   UNL     1       0.002  -0.004   0.002  0.00  0.00    -0.491 OA
ENDBRANCH   7  15
BRANCH  12  16
ATOM     16  O   UNL     1      -0.104  -2.753  -0.012  0.00  0.00    -0.503 OA
ATOM     17  H   UNL     1       0.238  -2.967   0.867  0.00  0.00    +0.292 HD
ENDBRANCH  12  16
ENDBRANCH   5   9
ENDBRANCH   1   6
BRANCH   2  18
ATOM     18  C   UNL     1      -9.657   0.526   0.075  0.00  0.00    +0.173 C 
BRANCH  18  19
ATOM     19  S   UNL     1     -11.076  -0.603   0.084  0.00  0.00    -0.089 S 
BRANCH  19  20
ATOM     20  C   UNL     1     -12.475   0.469   0.096  0.00  0.00    +0.136 A 
ATOM     21  N   UNL     1     -13.760   0.165   0.111  0.00  0.00    -0.233 NA
ATOM     22  C   UNL     1     -14.691   1.116   0.118  0.00  0.00    +0.079 A 
ATOM     23  C   UNL     1     -14.309   2.427   0.111  0.00  0.00    +0.076 A 
ATOM     24  S   UNL     1     -12.529   2.255   0.100  0.00  0.00    -0.069 S 
BRANCH  22  25
ATOM     25  C   UNL     1     -16.130   0.755   0.134  0.00  0.00    +0.001 A 
ATOM     26  C   UNL     1     -17.101   1.755   0.136  0.00  0.00    +0.011 A 
ATOM     27  C   UNL     1     -18.439   1.415   0.150  0.00  0.00    +0.020 A 
ATOM     28  C   UNL     1     -18.816   0.083   0.163  0.00  0.00    +0.041 A 
ATOM     29  C   UNL     1     -17.855  -0.914   0.161  0.00  0.00    +0.020 A 
ATOM     30  C   UNL     1     -16.515  -0.584   0.142  0.00  0.00    +0.011 A 
ATOM     31 CL   UNL     1     -20.500  -0.339   0.182  0.00  0.00    -0.084 Cl
ENDBRANCH  22  25
ENDBRANCH  19  20
ENDBRANCH  18  19
ENDBRANCH   2  18
TORSDOF 8
