REMARK  Name = ZINC09472918
REMARK  10 active torsions:
REMARK  status: ('A' for Active; 'I' for Inactive)
REMARK    1  A    between atoms: C_1  and  C_2
REMARK    2  A    between atoms: C_5  and  S_8
REMARK    3  A    between atoms: S_8  and  C_9
REMARK    4  A    between atoms: C_9  and  C_10
REMARK    5  A    between atoms: C_10  and  C_11
REMARK    6  A    between atoms: C_11  and  C_12
REMARK    7  A    between atoms: N_14  and  C_15
REMARK    8  A    between atoms: C_16  and  C_30
REMARK    9  A    between atoms: C_23  and  C_24
REMARK   10  A    between atoms: C_23  and  N_59
REMARK                            x       y       z     vdW  Elec       q    Type
REMARK                         _______ _______ _______ _____ _____    ______ ____
ROOT
ATOM      1  C   UNL     1       2.658   5.803  -6.072  0.00  0.00    +0.090 A 
ATOM      2  C   UNL     1       3.767   5.679  -5.248  0.00  0.00    +0.083 A 
ATOM      3  C   UNL     1       3.536   5.292  -3.869  0.00  0.00    -0.022 A 
ATOM      4  C   UNL     1       2.241   5.092  -3.535  0.00  0.00    -0.021 A 
ATOM      5  S   UNL     1       1.337   5.410  -5.021  0.00  0.00    -0.079 S 
ATOM      6  C   UNL     1       1.723   4.687  -2.190  0.00  0.00    -0.035 C 
ATOM      7  C   UNL     1       3.982   5.141  -1.440  0.00  0.00    -0.073 C 
ATOM      8  C   UNL     1       4.632   5.110  -2.826  0.00  0.00    +0.019 C 
ATOM      9  N   UNL     1       2.867   4.171  -1.400  0.00  0.00    +0.386 N 
ATOM     10  H   UNL     1       3.182   3.283  -1.808  0.00  0.00    -0.081 HD
ENDROOT
BRANCH   1  13
ATOM     11  C   UNL     1       1.433   6.225  -8.056  0.00  0.00    +0.218 C 
ATOM     12  O   UNL     1       0.405   5.979  -7.462  0.00  0.00    -0.275 OA
ATOM     13  N   UNL     1       2.616   6.156  -7.414  0.00  0.00    -0.279 N 
ATOM     14  H   UNL     1       3.438   6.354  -7.889  0.00  0.00    +0.155 HD
BRANCH  11  15
ATOM     15  C   UNL     1       1.388   6.609  -9.513  0.00  0.00    +0.097 C 
BRANCH  15  16
ATOM     16  C   UNL     1      -0.064   6.612  -9.995  0.00  0.00    +0.020 C 
BRANCH  16  17
ATOM     17  C   UNL     1      -0.110   7.002 -11.474  0.00  0.00    +0.075 C 
BRANCH  17  18
ATOM     18  S   UNL     1      -1.831   7.005 -12.045  0.00  0.00    -0.125 S 
BRANCH  18  23
ATOM     19  C   UNL     1      -1.438   8.586 -17.857  0.00  0.00    +0.044 C 
ATOM     20  C   UNL     1      -1.536   8.191 -16.406  0.00  0.00    -0.050 A 
ATOM     21  C   UNL     1      -2.773   7.935 -15.843  0.00  0.00    +0.004 A 
ATOM     22  C   UNL     1      -2.867   7.573 -14.514  0.00  0.00    +0.015 A 
ATOM     23  C   UNL     1      -1.717   7.466 -13.742  0.00  0.00    +0.008 A 
ATOM     24  C   UNL     1      -0.476   7.730 -14.309  0.00  0.00    +0.015 A 
ATOM     25  C   UNL     1      -0.389   8.086 -15.641  0.00  0.00    +0.004 A 
ENDBRANCH  18  23
ENDBRANCH  17  18
ENDBRANCH  16  17
ENDBRANCH  15  16
ENDBRANCH  11  15
ENDBRANCH   1  13
BRANCH   2  26
ATOM     26  C   UNL     1       5.090   5.923  -5.740  0.00  0.00    +0.102 C 
ATOM     27  N   UNL     1       6.139   6.117  -6.130  0.00  0.00    -0.191 NA
ENDBRANCH   2  26
BRANCH   9  28
ATOM     28  C   UNL     1       2.451   3.937  -0.001  0.00  0.00    -0.043 C 
BRANCH  28  29
ATOM     29  C   UNL     1       1.156   3.165   0.008  0.00  0.00    -0.064 A 
ATOM     30  C   UNL     1       1.175   1.783   0.000  0.00  0.00    +0.002 A 
ATOM     31  C   UNL     1      -0.013   1.076   0.008  0.00  0.00    +0.000 A 
ATOM     32  C   UNL     1      -1.219   1.751   0.017  0.00  0.00    +0.000 A 
ATOM     33  C   UNL     1      -1.238   3.133   0.030  0.00  0.00    +0.000 A 
ATOM     34  C   UNL     1      -0.050   3.840   0.023  0.00  0.00    +0.002 A 
ENDBRANCH  28  29
ENDBRANCH   9  28
TORSDOF 9
