REMARK  Name = ZINC03351939
REMARK  6 active torsions:
REMARK  status: ('A' for Active; 'I' for Inactive)
REMARK    1  A    between atoms: C_8  and  S_10
REMARK    2  A    between atoms: S_10  and  C_11
REMARK    3  A    between atoms: C_11  and  C_12
REMARK    4  A    between atoms: C_12  and  C_14
REMARK    5  A    between atoms: C_17  and  O_21
REMARK    6  A    between atoms: C_19  and  O_20
REMARK                            x       y       z     vdW  Elec       q    Type
REMARK                         _______ _______ _______ _____ _____    ______ ____
ROOT
ATOM      1  C   UNL     1       5.389  -5.692  -0.080  0.00  0.00    +0.177 C 
ATOM      2  O   UNL     1       4.610  -6.622  -0.077  0.00  0.00    -0.291 OA
ENDROOT
BRANCH   1   3
ATOM      3  C   UNL     1       6.832  -5.946  -0.095  0.00  0.00    +0.060 A 
ATOM      4  C   UNL     1       7.736  -4.874  -0.092  0.00  0.00    +0.018 A 
ATOM      5  C   UNL     1       9.079  -5.113  -0.106  0.00  0.00    +0.046 A 
ATOM      6  C   UNL     1       9.562  -6.419  -0.124  0.00  0.00    +0.120 A 
ATOM      7  C   UNL     1       8.683  -7.492  -0.126  0.00  0.00    +0.091 A 
ATOM      8  C   UNL     1       7.317  -7.266  -0.106  0.00  0.00    +0.131 A 
BRANCH   8   9
ATOM      9  O   UNL     1       6.453  -8.310  -0.103  0.00  0.00    -0.506 OA
ATOM     10  H   UNL     1       6.193  -8.609  -0.986  0.00  0.00    +0.292 HD
ENDBRANCH   8   9
BRANCH   6  11
ATOM     11  O   UNL     1      10.900  -6.643  -0.139  0.00  0.00    -0.507 OA
ATOM     12  H   UNL     1      11.297  -6.716   0.740  0.00  0.00    +0.292 HD
ENDBRANCH   6  11
ENDBRANCH   1   3
BRANCH   1  13
ATOM     13  C   UNL     1       4.873  -4.276  -0.067  0.00  0.00    +0.156 C 
BRANCH  13  14
ATOM     14  S   UNL     1       3.059  -4.293  -0.050  0.00  0.00    -0.091 S 
BRANCH  14  22
ATOM     15  C   UNL     1      -0.017   1.366   0.010  0.00  0.00    +0.002 A 
ATOM     16  C   UNL     1       1.156   2.107   0.002  0.00  0.00    +0.001 A 
ATOM     17  C   UNL     1       2.373   1.449  -0.013  0.00  0.00    +0.017 A 
ATOM     18  C   UNL     1       2.401   0.077  -0.021  0.00  0.00    +0.040 A 
ATOM     19  C   UNL     1       1.227  -0.710  -0.013  0.00  0.00    +0.079 A 
ATOM     20  C   UNL     1       0.002  -0.004   0.002  0.00  0.00    +0.029 A 
ATOM     21  N   UNL     1       1.419  -2.047  -0.023  0.00  0.00    -0.233 NA
ATOM     22  C   UNL     1       2.617  -2.588  -0.037  0.00  0.00    +0.136 A 
ATOM     23  S   UNL     1       3.683  -1.153  -0.039  0.00  0.00    -0.061 S 
ENDBRANCH  14  22
ENDBRANCH  13  14
ENDBRANCH   1  13
TORSDOF 6
