REMARK  Name = ZINC45616169
REMARK  8 active torsions:
REMARK  status: ('A' for Active; 'I' for Inactive)
REMARK    1  A    between atoms: C_1  and  C_2
REMARK    2  A    between atoms: C_4  and  C_33
REMARK    3  A    between atoms: C_7  and  C_12
REMARK    4  A    between atoms: N_14  and  N_15
REMARK    5  A    between atoms: C_16  and  C_18
REMARK    6  A    between atoms: C_23  and  N_24
REMARK    7  A    between atoms: N_24  and  S_25
REMARK    8  A    between atoms: S_25  and  C_28
REMARK                            x       y       z     vdW  Elec       q    Type
REMARK                         _______ _______ _______ _____ _____    ______ ____
ROOT
ATOM      1  N   UNL     1       0.117  -6.771   4.398  0.00  0.00    -0.230 N 
ATOM      2  C   UNL     1       0.123  -6.771   5.746  0.00  0.00    +0.262 C 
ATOM      3  O   UNL     1       0.112  -5.718   6.354  0.00  0.00    -0.269 OA
ATOM      4  H   UNL     1       0.126  -7.611   3.913  0.00  0.00    +0.173 HD
ENDROOT
BRANCH   2   5
ATOM      5  C   UNL     1       0.144  -8.048   6.483  0.00  0.00    +0.063 A 
ATOM      6  C   UNL     1       0.163  -9.260   5.789  0.00  0.00    +0.015 A 
ATOM      7  C   UNL     1       0.183 -10.450   6.483  0.00  0.00    +0.001 A 
ATOM      8  C   UNL     1       0.184 -10.451   7.869  0.00  0.00    +0.002 A 
ATOM      9  C   UNL     1       0.165  -9.263   8.569  0.00  0.00    +0.027 A 
ATOM     10  C   UNL     1       0.151  -8.053   7.887  0.00  0.00    +0.086 A 
BRANCH  10  11
ATOM     11  N   UNL     1       0.139  -6.855   8.589  0.00  0.00    -0.097 NA
BRANCH  11  12
ATOM     12  S   UNL     1       0.147  -6.866  10.245  0.00  0.00    +0.098 S 
ATOM     13  O   UNL     1      -1.089  -7.436  10.653  0.00  0.00    -0.148 OA
ATOM     14  O   UNL     1       1.402  -7.403  10.641  0.00  0.00    -0.148 OA
BRANCH  12  15
ATOM     15  C   UNL     1       0.128  -5.186  10.777  0.00  0.00    +0.148 A 
ATOM     16  C   UNL     1      -0.934  -4.388  11.046  0.00  0.00    +0.037 A 
ATOM     17  C   UNL     1      -0.709  -3.087  11.455  0.00  0.00    +0.010 A 
ATOM     18  C   UNL     1       0.568  -2.648  11.576  0.00  0.00    +0.047 A 
ATOM     19  S   UNL     1       1.502  -4.096  11.111  0.00  0.00    -0.077 S 
ENDBRANCH  12  15
ENDBRANCH  11  12
ENDBRANCH  10  11
ENDBRANCH   2   5
BRANCH   1  22
ATOM     20  C   UNL     1       0.090  -5.558   2.350  0.00  0.00    +0.276 C 
ATOM     21  O   UNL     1       0.102  -6.611   1.742  0.00  0.00    -0.267 OA
ATOM     22  N   UNL     1       0.097  -5.558   3.698  0.00  0.00    -0.229 N 
ATOM     23  H   UNL     1       0.088  -4.718   4.183  0.00  0.00    +0.173 HD
BRANCH  20  30
ATOM     24  C   UNL     1      -0.018   1.503   0.010  0.00  0.00    +0.044 C 
ATOM     25  C   UNL     1       0.002  -0.004   0.002  0.00  0.00    -0.048 A 
ATOM     26  C   UNL     1       0.006  -0.685  -1.209  0.00  0.00    +0.007 A 
ATOM     27  C   UNL     1       0.025  -2.049  -1.239  0.00  0.00    -0.041 A 
ATOM     28  C   UNL     1       0.040  -2.772  -0.039  0.00  0.00    +0.003 A 
ATOM     29  C   UNL     1       0.061  -4.156   0.262  0.00  0.00    +0.041 A 
ATOM     30  C   UNL     1       0.070  -4.284   1.615  0.00  0.00    +0.104 A 
ATOM     31  N   UNL     1       0.055  -3.028   2.189  0.00  0.00    -0.351 N 
ATOM     32  H   UNL     1       0.057  -2.842   3.142  0.00  0.00    +0.166 HD
ATOM     33  C   UNL     1       0.037  -2.084   1.190  0.00  0.00    +0.048 A 
ATOM     34  C   UNL     1       0.023  -0.692   1.194  0.00  0.00    +0.029 A 
ATOM     35  C   UNL     1       0.028  -2.776  -2.559  0.00  0.00    +0.044 C 
ENDBRANCH  20  30
ENDBRANCH   1  22
TORSDOF 6
