REMARK  Name = ZINC06322040
REMARK  9 active torsions:
REMARK  status: ('A' for Active; 'I' for Inactive)
REMARK    1  A    between atoms: C_1  and  C_2
REMARK    2  A    between atoms: C_5  and  C_39
REMARK    3  A    between atoms: C_9  and  C_14
REMARK    4  A    between atoms: C_14  and  C_16
REMARK    5  A    between atoms: C_14  and  N_70
REMARK    6  A    between atoms: N_20  and  C_21
REMARK    7  A    between atoms: C_21  and  C_22
REMARK    8  A    between atoms: C_21  and  C_23
REMARK    9  A    between atoms: C_21  and  C_24
REMARK                            x       y       z     vdW  Elec       q    Type
REMARK                         _______ _______ _______ _____ _____    ______ ____
ROOT
ATOM      1  C   UNL     1       3.322   0.742  -0.127  0.00  0.00    +0.039 C 
ENDROOT
BRANCH   1  16
ATOM      2  C   UNL     1       2.630   3.052  -0.347  0.00  0.00    -0.058 C 
ATOM      3  C   UNL     1       2.890   4.352  -1.112  0.00  0.00    +0.088 C 
ATOM      4  N   UNL     1       2.623   4.138  -2.541  0.00  0.00    -0.313 N 
ATOM      5  C   UNL     1       3.482   3.074  -3.080  0.00  0.00    +0.088 C 
ATOM      6  C   UNL     1       3.222   1.775  -2.315  0.00  0.00    -0.058 C 
ATOM      7  C   UNL     1       2.779   5.309  -3.254  0.00  0.00    +0.162 A 
ATOM      8  N   UNL     1       2.188   6.468  -3.075  0.00  0.00    -0.225 NA
ATOM      9  C   UNL     1       2.441   7.540  -3.857  0.00  0.00    +0.080 A 
ATOM     10  C   UNL     1       1.878   8.835  -3.772  0.00  0.00    +0.029 A 
ATOM     11  C   UNL     1       2.248   9.818  -4.652  0.00  0.00    +0.002 A 
ATOM     12  C   UNL     1       3.181   9.583  -5.652  0.00  0.00    +0.001 A 
ATOM     13  C   UNL     1       3.751   8.328  -5.764  0.00  0.00    +0.017 A 
ATOM     14  C   UNL     1       3.387   7.338  -4.887  0.00  0.00    +0.041 A 
ATOM     15  S   UNL     1       3.844   5.637  -4.652  0.00  0.00    -0.052 S 
ATOM     16  N   UNL     1       3.515   1.998  -0.884  0.00  0.00    +0.391 N 
ATOM     17  H   UNL     1       4.491   2.300  -0.786  0.00  0.00    -0.080 HD
ENDBRANCH   1  16
BRANCH   1  26
ATOM     18  C   UNL     1       0.605   0.360   4.299  0.00  0.00    +0.044 C 
ATOM     19  C   UNL     1       1.983   0.850   4.661  0.00  0.00    -0.041 A 
ATOM     20  C   UNL     1       2.302   1.102   5.965  0.00  0.00    +0.004 A 
ATOM     21  C   UNL     1       3.568   1.554   6.309  0.00  0.00    +0.005 A 
ATOM     22  C   UNL     1       4.529   1.758   5.341  0.00  0.00    -0.026 A 
ATOM     23  C   UNL     1       4.228   1.508   4.007  0.00  0.00    +0.052 A 
ATOM     24  C   UNL     1       2.942   1.049   3.662  0.00  0.00    +0.002 A 
ATOM     25  C   UNL     1       2.634   0.793   2.254  0.00  0.00    +0.018 A 
ATOM     26  C   UNL     1       3.605   1.000   1.331  0.00  0.00    +0.011 A 
ATOM     27  C   UNL     1       4.878   1.462   1.729  0.00  0.00    +0.251 A 
ATOM     28  O   UNL     1       5.735   1.645   0.882  0.00  0.00    -0.268 OA
ATOM     29  N   UNL     1       5.169   1.704   3.019  0.00  0.00    -0.322 N 
ATOM     30  H   UNL     1       6.054   2.020   3.258  0.00  0.00    +0.169 HD
ATOM     31  C   UNL     1       5.899   2.251   5.729  0.00  0.00    +0.046 C 
ENDBRANCH   1  26
BRANCH   1  32
ATOM     32  C   UNL     1       1.909   0.243  -0.284  0.00  0.00    +0.143 A 
ATOM     33  N   UNL     1       0.811   0.949  -0.159  0.00  0.00    -0.115 NA
ATOM     34  N   UNL     1      -0.191   0.166  -0.366  0.00  0.00    -0.023 NA
ATOM     35  N   UNL     1       0.239  -1.020  -0.620  0.00  0.00    -0.043 NA
ATOM     36  N   UNL     1       1.528  -1.014  -0.578  0.00  0.00    -0.225 N 
BRANCH  36  37
ATOM     37  C   UNL     1       2.412  -2.159  -0.807  0.00  0.00    +0.059 C 
ATOM     38  C   UNL     1       1.570  -3.419  -1.020  0.00  0.00    +0.036 C 
ATOM     39  C   UNL     1       3.268  -1.903  -2.049  0.00  0.00    +0.036 C 
ATOM     40  C   UNL     1       3.322  -2.353   0.408  0.00  0.00    +0.036 C 
ENDBRANCH  36  37
ENDBRANCH   1  32
TORSDOF 4
