REMARK  Name = ZINC03612114
REMARK  9 active torsions:
REMARK  status: ('A' for Active; 'I' for Inactive)
REMARK    1  A    between atoms: C_1  and  C_2
REMARK    2  A    between atoms: C_2  and  C_3
REMARK    3  A    between atoms: C_2  and  C_4
REMARK    4  A    between atoms: C_2  and  C_5
REMARK    5  A    between atoms: C_8  and  C_11
REMARK    6  A    between atoms: N_13  and  C_14
REMARK    7  A    between atoms: C_14  and  C_27
REMARK    8  A    between atoms: N_17  and  C_21
REMARK    9  A    between atoms: C_21  and  C_22
REMARK                            x       y       z     vdW  Elec       q    Type
REMARK                         _______ _______ _______ _____ _____    ______ ____
ROOT
ATOM      1  C   UNL     1       4.835   0.225  -3.502  0.00  0.00    +0.278 C 
ATOM      2  C   UNL     1       4.425  -0.351  -2.162  0.00  0.00    +0.275 C 
ATOM      3  O   UNL     1       4.332  -1.523  -1.866  0.00  0.00    -0.271 OA
ATOM      4  N   UNL     1       4.183   0.710  -1.368  0.00  0.00    -0.215 N 
ATOM      5  C   UNL     1       4.388   1.865  -2.011  0.00  0.00    +0.311 C 
ATOM      6  O   UNL     1       4.239   2.958  -1.501  0.00  0.00    -0.252 OA
ATOM      7  N   UNL     1       4.778   1.681  -3.285  0.00  0.00    -0.263 N 
ATOM      8  H   UNL     1       4.982   2.373  -3.935  0.00  0.00    +0.153 HD
ENDROOT
BRANCH   1  11
ATOM      9  C   UNL     1       6.522  -1.500  -3.841  0.00  0.00    +0.246 C 
ATOM     10  O   UNL     1       5.665  -2.339  -3.643  0.00  0.00    -0.270 OA
ATOM     11  N   UNL     1       6.197  -0.192  -3.843  0.00  0.00    -0.276 N 
ATOM     12  H   UNL     1       6.866   0.473  -4.071  0.00  0.00    +0.152 HD
BRANCH   9  16
ATOM     13  C   UNL     1      10.541  -2.692  -4.523  0.00  0.00    -0.042 A 
ATOM     14  C   UNL     1       9.568  -3.650  -4.299  0.00  0.00    +0.005 A 
ATOM     15  C   UNL     1       8.261  -3.269  -4.076  0.00  0.00    +0.013 A 
ATOM     16  C   UNL     1       7.921  -1.915  -4.078  0.00  0.00    +0.037 A 
ATOM     17  C   UNL     1       8.907  -0.955  -4.311  0.00  0.00    +0.013 A 
ATOM     18  C   UNL     1      10.211  -1.349  -4.527  0.00  0.00    +0.005 A 
BRANCH  13  20
ATOM     19  C   UNL     1      12.031  -4.009  -6.005  0.00  0.00    +0.015 C 
ATOM     20  C   UNL     1      11.967  -3.115  -4.765  0.00  0.00    -0.013 C 
ATOM     21  C   UNL     1      12.837  -1.876  -4.984  0.00  0.00    +0.015 C 
ATOM     22  C   UNL     1      12.482  -3.891  -3.551  0.00  0.00    +0.015 C 
ENDBRANCH  13  20
ENDBRANCH   9  16
ENDBRANCH   1  11
BRANCH   1  23
ATOM     23  C   UNL     1       3.852  -0.195  -4.597  0.00  0.00    +0.436 C 
ATOM     24  F   UNL     1       4.255   0.353  -5.820  0.00  0.00    -0.166 F 
ATOM     25  F   UNL     1       3.832  -1.590  -4.695  0.00  0.00    -0.166 F 
ATOM     26  F   UNL     1       2.572   0.270  -4.278  0.00  0.00    -0.166 F 
ENDBRANCH   1  23
BRANCH   4  27
ATOM     27  C   UNL     1       3.753   0.612   0.030  0.00  0.00    +0.192 C 
BRANCH  27  28
ATOM     28  C   UNL     1       2.248   0.587   0.092  0.00  0.00    +0.123 A 
ATOM     29  C   UNL     1       1.477  -0.515   0.053  0.00  0.00    +0.046 A 
ATOM     30  C   UNL     1       0.135  -0.079   0.138  0.00  0.00    +0.041 A 
ATOM     31  C   UNL     1       0.166   1.263   0.225  0.00  0.00    +0.195 A 
ATOM     32  O   UNL     1       1.448   1.661   0.196  0.00  0.00    -0.466 OA
ENDBRANCH  27  28
ENDBRANCH   4  27
TORSDOF 6
