REMARK  Name = ZINC12693131
REMARK  7 active torsions:
REMARK  status: ('A' for Active; 'I' for Inactive)
REMARK    1  A    between atoms: C_1  and  C_2
REMARK    2  A    between atoms: C_4  and  C_15
REMARK    3  A    between atoms: C_5  and  C_14
REMARK    4  A    between atoms: N_6  and  C_7
REMARK    5  A    between atoms: C_7  and  C_8
REMARK    6  A    between atoms: N_23  and  C_24
REMARK    7  A    between atoms: C_24  and  C_26
REMARK                            x       y       z     vdW  Elec       q    Type
REMARK                         _______ _______ _______ _____ _____    ______ ____
ROOT
ATOM      1  C   UNL     1      -0.279  -3.627  -1.369  0.00  0.00    +0.047 C 
ATOM      2  C   UNL     1      -0.999  -3.666  -2.517  0.00  0.00    +0.070 C 
ATOM      3  S   UNL     1      -0.289  -5.078  -3.343  0.00  0.00    -0.080 S 
ATOM      4  C   UNL     1       0.852  -5.504  -2.184  0.00  0.00    +0.077 C 
ATOM      5  C   UNL     1       1.812  -6.612  -2.220  0.00  0.00    +0.003 C 
ATOM      6  C   UNL     1       2.690  -6.814  -1.146  0.00  0.00    +0.012 C 
ATOM      7  C   UNL     1       3.582  -7.844  -1.179  0.00  0.00    +0.026 C 
ATOM      8  C   UNL     1       3.621  -8.702  -2.288  0.00  0.00    +0.057 C 
ATOM      9  N   UNL     1       4.510  -9.729  -2.321  0.00  0.00    -0.174 NA
ATOM     10  C   UNL     1       2.743  -8.500  -3.363  0.00  0.00    +0.026 C 
ATOM     11  C   UNL     1       1.847  -7.473  -3.327  0.00  0.00    +0.012 C 
ATOM     12  N   UNL     1       0.677  -4.581  -1.215  0.00  0.00    -0.308 N 
ATOM     13  H   UNL     1       1.226  -4.600  -0.415  0.00  0.00    +0.153 HD
ENDROOT
BRANCH   1  17
ATOM     14  C   UNL     1      -0.841   0.867   0.923  0.00  0.00    +0.063 C 
ATOM     15  C   UNL     1      -0.762  -0.615   0.659  0.00  0.00    +0.017 A 
ATOM     16  C   UNL     1      -0.495  -1.187  -0.530  0.00  0.00    +0.032 A 
ATOM     17  C   UNL     1      -0.517  -2.593  -0.337  0.00  0.00    +0.017 A 
ATOM     18  C   UNL     1      -0.800  -2.811   0.978  0.00  0.00    +0.025 A 
ATOM     19  N   UNL     1      -0.943  -1.600   1.585  0.00  0.00    -0.345 N 
ATOM     20  C   UNL     1      -0.926  -4.156   1.645  0.00  0.00    +0.064 C 
BRANCH  19  21
ATOM     21  C   UNL     1      -1.247  -1.389   3.002  0.00  0.00    +0.153 C 
BRANCH  21  22
ATOM     22  C   UNL     1      -2.763  -1.338   3.197  0.00  0.00    +0.138 C 
ATOM     23  C   UNL     1      -3.092  -0.997   4.666  0.00  0.00    +0.035 C 
ATOM     24  C   UNL     1      -4.316  -1.909   4.951  0.00  0.00    +0.031 C 
ATOM     25  C   UNL     1      -3.965  -3.148   4.090  0.00  0.00    +0.160 C 
ATOM     26  O   UNL     1      -3.333  -2.621   2.911  0.00  0.00    -0.375 OA
ENDBRANCH  21  22
ENDBRANCH  19  21
ENDBRANCH   1  17
BRANCH   9  27
ATOM     27  C   UNL     1       4.807 -10.313  -3.478  0.00  0.00    +0.303 C 
ATOM     28  O   UNL     1       4.240  -9.965  -4.502  0.00  0.00    -0.265 OA
BRANCH  27  29
ATOM     29  C   UNL     1       5.821 -11.382  -3.524  0.00  0.00    +0.191 A 
ATOM     30  C   UNL     1       6.222 -12.056  -4.637  0.00  0.00    +0.054 A 
ATOM     31  C   UNL     1       7.199 -12.978  -4.222  0.00  0.00    +0.042 A 
ATOM     32  C   UNL     1       7.347 -12.825  -2.889  0.00  0.00    +0.196 A 
ATOM     33  O   UNL     1       6.518 -11.858  -2.472  0.00  0.00    -0.458 OA
ENDBRANCH  27  29
ENDBRANCH   9  27
TORSDOF 5
