REMARK  Name = ZINC04739511
REMARK  9 active torsions:
REMARK  status: ('A' for Active; 'I' for Inactive)
REMARK    1  A    between atoms: C_1  and  N_45
REMARK    2  A    between atoms: C_7  and  N_13
REMARK    3  A    between atoms: C_8  and  C_9
REMARK    4  A    between atoms: C_9  and  O_11
REMARK    5  A    between atoms: O_11  and  C_12
REMARK    6  A    between atoms: C_14  and  C_15
REMARK    7  A    between atoms: C_19  and  O_22
REMARK    8  A    between atoms: C_20  and  O_21
REMARK    9  A    between atoms: O_22  and  C_23
REMARK                            x       y       z     vdW  Elec       q    Type
REMARK                         _______ _______ _______ _____ _____    ______ ____
ROOT
ATOM      1  C   UNL     1       1.941  11.927   0.249  0.00  0.00    -0.096 C 
ATOM      2  C   UNL     1       3.541  10.241  -0.431  0.00  0.00    -0.074 C 
ATOM      3  C   UNL     1       4.178   8.919   0.004  0.00  0.00    +0.018 C 
ATOM      4  C   UNL     1       3.093   7.845   0.012  0.00  0.00    -0.025 A 
ATOM      5  C   UNL     1       1.787   8.214   0.026  0.00  0.00    -0.021 A 
ATOM      6  S   UNL     1       0.890   6.686   0.020  0.00  0.00    -0.075 S 
ATOM      7  C   UNL     1       2.287   5.573   0.009  0.00  0.00    +0.115 A 
ATOM      8  C   UNL     1       3.366   6.467   0.004  0.00  0.00    +0.095 A 
ATOM      9  C   UNL     1       1.252   9.611   0.040  0.00  0.00    -0.036 C 
ATOM     10  N   UNL     1       2.362  10.519   0.414  0.00  0.00    +0.381 N 
ATOM     11  H   UNL     1       2.610  10.357   1.397  0.00  0.00    -0.082 HD
ENDROOT
BRANCH   8  12
ATOM     12  C   UNL     1       4.747   5.977  -0.011  0.00  0.00    +0.342 C 
ATOM     13  O   UNL     1       5.310   5.777  -1.070  0.00  0.00    -0.245 OA
BRANCH  12  14
ATOM     14  O   UNL     1       5.393   5.746   1.151  0.00  0.00    -0.464 OA
ATOM     15  C   UNL     1       6.758   5.261   1.060  0.00  0.00    +0.280 C 
ENDBRANCH  12  14
ENDBRANCH   8  12
BRANCH   7  16
ATOM     16  N   UNL     1       2.300   4.223   0.002  0.00  0.00    -0.247 NA
ATOM     17  C   UNL     1       1.173   3.558   0.009  0.00  0.00    +0.123 C 
BRANCH  17  18
ATOM     18  C   UNL     1       1.187   2.090   0.002  0.00  0.00    +0.040 A 
ATOM     19  C   UNL     1      -0.017   1.374   0.010  0.00  0.00    +0.033 A 
ATOM     20  C   UNL     1       0.002  -0.004   0.002  0.00  0.00    +0.045 A 
ATOM     21  C   UNL     1       1.208  -0.688  -0.013  0.00  0.00    +0.069 A 
ATOM     22  C   UNL     1       2.407   0.006  -0.020  0.00  0.00    +0.163 A 
ATOM     23  C   UNL     1       2.406   1.396  -0.014  0.00  0.00    +0.167 A 
ATOM     24 CL   UNL     1      -1.492  -0.888   0.011  0.00  0.00    -0.083 Cl
BRANCH  23  25
ATOM     25  O   UNL     1       3.580   2.079  -0.021  0.00  0.00    -0.503 OA
ATOM     26  H   UNL     1       3.912   2.281  -0.907  0.00  0.00    +0.292 HD
ENDBRANCH  23  25
BRANCH  22  27
ATOM     27  O   UNL     1       3.585  -0.674  -0.035  0.00  0.00    -0.491 OA
ATOM     28  C   UNL     1       3.511  -2.101  -0.041  0.00  0.00    +0.277 C 
ENDBRANCH  22  27
ENDBRANCH  17  18
ENDBRANCH   7  16
TORSDOF 6
