REMARK  Name = ZINC57331828
REMARK  9 active torsions:
REMARK  status: ('A' for Active; 'I' for Inactive)
REMARK    1  A    between atoms: C_1  and  C_2
REMARK    2  A    between atoms: C_2  and  C_3
REMARK    3  A    between atoms: C_2  and  C_4
REMARK    4  A    between atoms: C_7  and  C_10
REMARK    5  A    between atoms: C_10  and  C_12
REMARK    6  A    between atoms: C_10  and  N_17
REMARK    7  A    between atoms: N_17  and  C_18
REMARK    8  A    between atoms: C_18  and  C_19
REMARK    9  A    between atoms: N_21  and  N_22
REMARK                            x       y       z     vdW  Elec       q    Type
REMARK                         _______ _______ _______ _____ _____    ______ ____
ROOT
ATOM      1  C   UNL     1       4.863  -1.673  -5.836  0.00  0.00    +0.179 C 
ENDROOT
BRANCH   1   2
ATOM      2  C   UNL     1       6.348  -1.597  -5.590  0.00  0.00    +0.244 C 
ATOM      3  O   UNL     1       6.778  -1.638  -4.457  0.00  0.00    -0.273 OA
ATOM      4  N   UNL     1       7.198  -1.485  -6.630  0.00  0.00    -0.223 N 
ATOM      5  H   UNL     1       6.854  -1.452  -7.536  0.00  0.00    +0.174 HD
BRANCH   4   6
ATOM      6  N   UNL     1       8.579  -1.414  -6.401  0.00  0.00    -0.137 N 
ATOM      7  C   UNL     1       9.306  -0.281  -6.494  0.00  0.00    +0.263 C 
ATOM      8  O   UNL     1       8.905   0.827  -6.779  0.00  0.00    -0.271 OA
ATOM      9  C   UNL     1      10.725  -0.685  -6.166  0.00  0.00    +0.114 C 
ATOM     10  C   UNL     1      11.216   0.056  -4.927  0.00  0.00    +0.035 C 
ATOM     11  C   UNL     1      12.642  -0.389  -4.595  0.00  0.00    +0.003 C 
ATOM     12  C   UNL     1      13.558  -0.091  -5.784  0.00  0.00    +0.000 C 
ATOM     13  C   UNL     1      13.067  -0.859  -7.013  0.00  0.00    +0.003 C 
ATOM     14  C   UNL     1      11.642  -0.416  -7.354  0.00  0.00    +0.035 C 
ATOM     15  N   UNL     1      10.634  -2.126  -5.902  0.00  0.00    -0.284 N 
ATOM     16  C   UNL     1       9.339  -2.461  -6.059  0.00  0.00    +0.326 C 
ATOM     17  O   UNL     1       8.909  -3.588  -5.909  0.00  0.00    -0.251 OA
ATOM     18  H   UNL     1      11.362  -2.719  -5.658  0.00  0.00    +0.151 HD
ENDBRANCH   4   6
ENDBRANCH   1   2
BRANCH   1  19
ATOM     19  N   UNL     1       4.160  -1.792  -4.552  0.00  0.00    -0.297 NA
ATOM     20  H   UNL     1       4.400  -1.029  -3.936  0.00  0.00    +0.123 HD
BRANCH  19  21
ATOM     21  C   UNL     1       2.707  -1.868  -4.752  0.00  0.00    +0.122 C 
BRANCH  21  25
ATOM     22  C   UNL     1       0.707  -0.490  -1.238  0.00  0.00    -0.045 A 
ATOM     23  C   UNL     1       0.222  -0.151  -2.487  0.00  0.00    +0.004 A 
ATOM     24  C   UNL     1       0.869  -0.597  -3.624  0.00  0.00    +0.006 A 
ATOM     25  C   UNL     1       2.002  -1.381  -3.513  0.00  0.00    -0.026 A 
ATOM     26  C   UNL     1       2.488  -1.720  -2.263  0.00  0.00    +0.006 A 
ATOM     27  C   UNL     1       1.843  -1.270  -1.126  0.00  0.00    +0.004 A 
BRANCH  22  29
ATOM     28  C   UNL     1      -0.019   1.526   0.010  0.00  0.00    +0.012 C 
ATOM     29  C   UNL     1       0.002  -0.004   0.002  0.00  0.00    +0.013 C 
ATOM     30  C   UNL     1      -1.433  -0.534   0.013  0.00  0.00    +0.012 C 
ENDBRANCH  22  29
ENDBRANCH  21  25
BRANCH  21  31
ATOM     31  C   UNL     1       2.312  -3.296  -5.027  0.00  0.00    +0.011 A 
ATOM     32  C   UNL     1       1.407  -3.777  -5.914  0.00  0.00    +0.013 A 
ATOM     33  C   UNL     1       1.207  -5.142  -5.995  0.00  0.00    +0.008 A 
ATOM     34  C   UNL     1       1.921  -5.960  -5.184  0.00  0.00    +0.045 A 
ATOM     35  S   UNL     1       2.921  -4.796  -4.272  0.00  0.00    -0.100 S 
ENDBRANCH  21  31
ENDBRANCH  19  21
ENDBRANCH   1  19
TORSDOF 7
