REMARK  Name = ZINC30589119
REMARK  6 active torsions:
REMARK  status: ('A' for Active; 'I' for Inactive)
REMARK    1  A    between atoms: C_4  and  C_7
REMARK    2  A    between atoms: N_16  and  C_17
REMARK    3  A    between atoms: C_17  and  C_18
REMARK    4  A    between atoms: N_20  and  C_21
REMARK    5  A    between atoms: C_21  and  C_22
REMARK    6  A    between atoms: C_22  and  C_23
REMARK                            x       y       z     vdW  Elec       q    Type
REMARK                         _______ _______ _______ _____ _____    ______ ____
ROOT
ATOM      1  C   UNL     1       0.002  -0.004   0.002  0.00  0.00    +0.020 C 
ENDROOT
BRANCH   1  10
ATOM      2  C   UNL     1      -1.405  -1.965  -0.234  0.00  0.00    +0.011 C 
ATOM      3  C   UNL     1      -2.828  -2.438  -0.067  0.00  0.00    +0.009 A 
ATOM      4  C   UNL     1      -3.368  -3.600  -0.466  0.00  0.00    +0.021 A 
ATOM      5  C   UNL     1      -4.728  -3.582  -0.090  0.00  0.00    +0.019 A 
ATOM      6  C   UNL     1      -4.963  -2.404   0.527  0.00  0.00    +0.086 A 
ATOM      7  N   UNL     1      -3.804  -1.698   0.548  0.00  0.00    -0.353 N 
ATOM      8  C   UNL     1      -3.566  -0.366   1.117  0.00  0.00    +0.103 C 
ATOM      9  C   UNL     1      -2.053  -0.175   1.272  0.00  0.00    -0.055 C 
ATOM     10  N   UNL     1      -1.376  -0.512   0.012  0.00  0.00    +0.395 N 
ATOM     11  H   UNL     1      -1.924  -0.019  -0.804  0.00  0.00    -0.080 HD
BRANCH   2  15
ATOM     12  C   UNL     1      -0.065  -2.783  -4.207  0.00  0.00    +0.000 A 
ATOM     13  C   UNL     1       0.320  -3.605  -3.165  0.00  0.00    +0.000 A 
ATOM     14  C   UNL     1      -0.114  -3.341  -1.879  0.00  0.00    +0.002 A 
ATOM     15  C   UNL     1      -0.932  -2.253  -1.635  0.00  0.00    -0.055 A 
ATOM     16  C   UNL     1      -1.321  -1.434  -2.679  0.00  0.00    +0.002 A 
ATOM     17  C   UNL     1      -0.883  -1.696  -3.963  0.00  0.00    +0.000 A 
ENDBRANCH   2  15
ENDBRANCH   1  10
BRANCH   1  18
ATOM     18  C   UNL     1      -0.018   1.503   0.010  0.00  0.00    +0.197 C 
ATOM     19  O   UNL     1      -1.077   2.095   0.018  0.00  0.00    -0.278 OA
ATOM     20  N   UNL     1       1.139   2.192   0.003  0.00  0.00    -0.317 N 
ATOM     21  H   UNL     1       2.099   1.655  -0.009  0.00  0.00    +0.149 HD
BRANCH  20  22
ATOM     22  C   UNL     1       1.120   3.657   0.011  0.00  0.00    +0.109 C 
BRANCH  22  23
ATOM     23  C   UNL     1       2.555   4.187   0.000  0.00  0.00    +0.056 C 
BRANCH  23  24
ATOM     24  C   UNL     1       2.535   5.694   0.008  0.00  0.00    -0.021 A 
ATOM     25  C   UNL     1       2.607   6.499  -1.063  0.00  0.00    +0.087 A 
ATOM     26  N   UNL     1       2.559   7.808  -0.667  0.00  0.00    -0.360 N 
ATOM     27  H   UNL     1       2.606   8.612  -1.417  0.00  0.00    +0.165 HD
ATOM     28  C   UNL     1       2.451   7.879   0.704  0.00  0.00    +0.047 A 
ATOM     29  C   UNL     1       2.425   6.557   1.187  0.00  0.00    +0.003 A 
ATOM     30  C   UNL     1       2.327   6.319   2.559  0.00  0.00    +0.010 A 
ATOM     31  C   UNL     1       2.245   7.372   3.426  0.00  0.00    +0.001 A 
ATOM     32  C   UNL     1       2.264   8.677   2.954  0.00  0.00    +0.002 A 
ATOM     33  C   UNL     1       2.366   8.935   1.605  0.00  0.00    +0.026 A 
ENDBRANCH  23  24
ENDBRANCH  22  23
ENDBRANCH  20  22
ENDBRANCH   1  18
TORSDOF 6
