REMARK  Name = ZINC31532765
REMARK  5 active torsions:
REMARK  status: ('A' for Active; 'I' for Inactive)
REMARK    1  A    between atoms: C_1  and  N_2
REMARK    2  A    between atoms: N_5  and  C_14
REMARK    3  A    between atoms: C_14  and  C_15
REMARK    4  A    between atoms: N_17  and  C_18
REMARK    5  A    between atoms: C_23  and  N_24
REMARK                            x       y       z     vdW  Elec       q    Type
REMARK                         _______ _______ _______ _____ _____    ______ ____
ROOT
ATOM      1  C   UNL     1       4.734   1.269  -0.035  0.00  0.00    +0.235 C 
ATOM      2  O   UNL     1       4.821   0.061  -0.094  0.00  0.00    -0.274 OA
ATOM      3  N   UNL     1       3.529   1.864  -0.142  0.00  0.00    -0.283 N 
ATOM      4  H   UNL     1       3.459   2.961  -0.181  0.00  0.00    +0.155 HD
ENDROOT
BRANCH   3   5
ATOM      5  C   UNL     1       2.366   1.085  -0.205  0.00  0.00    +0.055 A 
ATOM      6  C   UNL     1       2.384  -0.228   0.241  0.00  0.00    +0.025 A 
ATOM      7  C   UNL     1       1.236  -0.995   0.178  0.00  0.00    +0.002 A 
ATOM      8  C   UNL     1       0.067  -0.458  -0.329  0.00  0.00    +0.002 A 
ATOM      9  C   UNL     1       0.039   0.850  -0.775  0.00  0.00    +0.025 A 
ATOM     10  C   UNL     1       1.187   1.627  -0.716  0.00  0.00    +0.055 A 
BRANCH  10  11
ATOM     11  N   UNL     1       1.162   2.951  -1.168  0.00  0.00    -0.298 N 
ATOM     12  C   UNL     1       0.840   4.115  -0.339  0.00  0.00    +0.116 C 
ATOM     13  C   UNL     1       0.947   5.325  -1.282  0.00  0.00    +0.056 C 
ATOM     14  C   UNL     1       1.336   4.731  -2.618  0.00  0.00    -0.025 A 
ATOM     15  C   UNL     1       1.446   3.356  -2.473  0.00  0.00    +0.037 A 
ATOM     16  C   UNL     1       1.793   2.584  -3.584  0.00  0.00    +0.024 A 
ATOM     17  C   UNL     1       2.030   3.185  -4.802  0.00  0.00    +0.002 A 
ATOM     18  C   UNL     1       1.922   4.557  -4.934  0.00  0.00    +0.000 A 
ATOM     19  C   UNL     1       1.575   5.328  -3.840  0.00  0.00    +0.005 A 
ENDBRANCH  10  11
ENDBRANCH   3   5
BRANCH   1  20
ATOM     20  C   UNL     1       5.972   2.106   0.157  0.00  0.00    +0.214 C 
BRANCH  20  25
ATOM     21  C   UNL     1       9.469  -0.764   2.220  0.00  0.00    +0.134 C 
ATOM     22  N   UNL     1       8.703  -0.053   1.194  0.00  0.00    -0.274 N 
ATOM     23  C   UNL     1       7.620   0.723   1.388  0.00  0.00    +0.312 C 
ATOM     24  O   UNL     1       7.129   0.937   2.479  0.00  0.00    -0.252 OA
ATOM     25  N   UNL     1       7.144   1.231   0.245  0.00  0.00    -0.215 N 
ATOM     26  C   UNL     1       7.880   0.840  -0.817  0.00  0.00    +0.247 C 
ATOM     27  O   UNL     1       7.704   1.135  -1.980  0.00  0.00    -0.273 OA
ATOM     28  C   UNL     1       8.968  -0.042  -0.251  0.00  0.00    +0.115 C 
ATOM     29  C   UNL     1      10.341   0.557  -0.538  0.00  0.00    +0.035 C 
ATOM     30  C   UNL     1      11.427  -0.336   0.067  0.00  0.00    +0.003 C 
ATOM     31  C   UNL     1      11.328  -1.739  -0.537  0.00  0.00    +0.000 C 
ATOM     32  C   UNL     1       9.955  -2.335  -0.219  0.00  0.00    +0.003 C 
ATOM     33  C   UNL     1       8.863  -1.451  -0.825  0.00  0.00    +0.035 C 
ENDBRANCH  20  25
ENDBRANCH   1  20
TORSDOF 4
