REMARK  Name = ZINC09251307
REMARK  6 active torsions:
REMARK  status: ('A' for Active; 'I' for Inactive)
REMARK    1  A    between atoms: C_1  and  C_2
REMARK    2  A    between atoms: C_2  and  C_3
REMARK    3  A    between atoms: C_2  and  C_4
REMARK    4  A    between atoms: C_4  and  C_5
REMARK    5  A    between atoms: N_7  and  C_8
REMARK    6  A    between atoms: C_16  and  C_17
REMARK                            x       y       z     vdW  Elec       q    Type
REMARK                         _______ _______ _______ _____ _____    ______ ____
ROOT
ATOM      1  C   UNL     1      -2.416   1.201   0.125  0.00  0.00    +0.092 A 
ATOM      2  C   UNL     1      -3.755   1.767  -0.082  0.00  0.00    +0.042 A 
ATOM      3  C   UNL     1      -4.229   3.011  -0.500  0.00  0.00    +0.013 A 
ATOM      4  C   UNL     1      -5.575   3.225  -0.598  0.00  0.00    +0.001 A 
ATOM      5  C   UNL     1      -6.472   2.212  -0.290  0.00  0.00    +0.004 A 
ATOM      6  C   UNL     1      -6.023   0.975   0.121  0.00  0.00    +0.047 A 
ATOM      7  C   UNL     1      -4.658   0.735   0.228  0.00  0.00    +0.138 A 
ATOM      8  O   UNL     1      -3.940  -0.345   0.593  0.00  0.00    -0.448 OA
ATOM      9  C   UNL     1      -2.614  -0.088   0.538  0.00  0.00    +0.212 A 
ENDROOT
BRANCH   9  10
ATOM     10  C   UNL     1      -1.555  -1.039   0.870  0.00  0.00    +0.284 C 
ATOM     11  O   UNL     1      -0.396  -0.669   0.913  0.00  0.00    -0.267 OA
ATOM     12  N   UNL     1      -1.862  -2.326   1.127  0.00  0.00    -0.295 N 
ATOM     13  C   UNL     1      -3.253  -2.719   1.132  0.00  0.00    +0.108 C 
ATOM     14  C   UNL     1      -3.846  -2.539   2.546  0.00  0.00    +0.019 C 
ATOM     15  C   UNL     1      -3.302  -3.555   3.460  0.00  0.00    +0.002 C 
ATOM     16  C   UNL     1      -1.793  -3.471   3.667  0.00  0.00    +0.002 C 
ATOM     17  C   UNL     1      -1.094  -4.226   2.563  0.00  0.00    +0.019 C 
ATOM     18  C   UNL     1      -0.764  -3.275   1.399  0.00  0.00    +0.108 C 
ENDBRANCH   9  10
BRANCH   1  21
ATOM     19  C   UNL     1      -1.099   2.867  -0.929  0.00  0.00    +0.218 C 
ATOM     20  O   UNL     1      -2.056   3.183  -1.604  0.00  0.00    -0.275 OA
ATOM     21  N   UNL     1      -1.198   1.844  -0.057  0.00  0.00    -0.282 N 
ATOM     22  H   UNL     1      -0.418   1.558   0.444  0.00  0.00    +0.155 HD
BRANCH  19  23
ATOM     23  C   UNL     1       0.199   3.622  -1.062  0.00  0.00    +0.099 C 
BRANCH  23  25
ATOM     24  C   UNL     1       1.316   5.572  -2.153  0.00  0.00    +0.008 C 
ATOM     25  C   UNL     1       0.041   4.728  -2.107  0.00  0.00    -0.008 C 
ATOM     26  C   UNL     1      -0.205   4.101  -3.481  0.00  0.00    +0.008 C 
ENDBRANCH  23  25
ENDBRANCH  19  23
ENDBRANCH   1  21
TORSDOF 4
