REMARK  Name = ZINC39606444
REMARK  9 active torsions:
REMARK  status: ('A' for Active; 'I' for Inactive)
REMARK    1  A    between atoms: C_1  and  C_2
REMARK    2  A    between atoms: C_2  and  C_3
REMARK    3  A    between atoms: C_3  and  C_5
REMARK    4  A    between atoms: C_3  and  C_6
REMARK    5  A    between atoms: C_6  and  N_7
REMARK    6  A    between atoms: C_8  and  C_10
REMARK    7  A    between atoms: C_21  and  C_23
REMARK    8  A    between atoms: C_28  and  O_29
REMARK    9  A    between atoms: O_29  and  C_30
REMARK                            x       y       z     vdW  Elec       q    Type
REMARK                         _______ _______ _______ _____ _____    ______ ____
ROOT
ATOM      1  C   UNL     1      -3.873  -4.421  -0.553  0.00  0.00    +0.100 C 
ATOM      2  C   UNL     1      -4.752  -3.759  -1.637  0.00  0.00    +0.121 C 
ATOM      3  N   UNL     1      -4.761  -4.730  -2.757  0.00  0.00    -0.296 N 
ATOM      4  C   UNL     1      -4.849  -6.054  -2.095  0.00  0.00    +0.115 C 
ATOM      5  C   UNL     1      -3.942  -5.928  -0.855  0.00  0.00    -0.004 C 
ATOM      6  C   UNL     1      -2.550  -6.469  -1.163  0.00  0.00    -0.010 C 
ATOM      7  C   UNL     1      -2.636  -7.979  -1.404  0.00  0.00    -0.082 C 
ATOM      8  N   UNL     1      -3.186  -8.636  -0.212  0.00  0.00    +0.379 N 
ATOM      9  C   UNL     1      -4.560  -8.178   0.024  0.00  0.00    -0.082 C 
ATOM     10  C   UNL     1      -4.555  -6.676   0.325  0.00  0.00    -0.010 C 
ATOM     11  C   UNL     1      -4.703  -4.468  -4.078  0.00  0.00    +0.252 C 
ATOM     12  O   UNL     1      -4.815  -5.373  -4.882  0.00  0.00    -0.270 OA
ATOM     13  H   UNL     1      -3.185  -9.635  -0.350  0.00  0.00    -0.086 HD
ATOM     14  H   UNL     1      -2.615  -8.409   0.589  0.00  0.00    -0.086 HD
ENDROOT
BRANCH  11  15
ATOM     15  C   UNL     1      -4.502  -3.085  -4.548  0.00  0.00    +0.099 A 
ATOM     16  C   UNL     1      -5.058  -2.007  -3.848  0.00  0.00    +0.020 A 
ATOM     17  C   UNL     1      -4.841  -0.729  -4.330  0.00  0.00    +0.021 A 
ATOM     18  C   UNL     1      -4.088  -0.553  -5.478  0.00  0.00    +0.114 A 
ATOM     19  N   UNL     1      -3.574  -1.582  -6.122  0.00  0.00    -0.220 NA
ATOM     20  C   UNL     1      -3.747  -2.824  -5.701  0.00  0.00    +0.233 A 
BRANCH  20  21
ATOM     21  O   UNL     1      -3.196  -3.851  -6.390  0.00  0.00    -0.437 OA
BRANCH  21  22
ATOM     22  C   UNL     1      -2.555  -3.567  -7.555  0.00  0.00    +0.130 A 
ATOM     23  C   UNL     1      -1.278  -3.026  -7.531  0.00  0.00    +0.048 A 
ATOM     24  C   UNL     1      -0.629  -2.738  -8.716  0.00  0.00    +0.023 A 
ATOM     25  C   UNL     1      -1.252  -2.989  -9.926  0.00  0.00    +0.041 A 
ATOM     26  C   UNL     1      -2.526  -3.528  -9.952  0.00  0.00    +0.023 A 
ATOM     27  C   UNL     1      -3.176  -3.823  -8.769  0.00  0.00    +0.048 A 
ATOM     28 CL   UNL     1      -0.434  -2.626 -11.414  0.00  0.00    -0.084 Cl
ENDBRANCH  21  22
ENDBRANCH  20  21
ENDBRANCH  11  15
BRANCH   1  30
ATOM     29  N   UNL     1      -1.673  -3.887   0.443  0.00  0.00    -0.315 N 
ATOM     30  C   UNL     1      -2.452  -3.930  -0.656  0.00  0.00    +0.218 C 
ATOM     31  O   UNL     1      -2.010  -3.574  -1.727  0.00  0.00    -0.275 OA
ATOM     32  H   UNL     1      -2.026  -4.172   1.300  0.00  0.00    +0.149 HD
BRANCH  29  33
ATOM     33  C   UNL     1      -0.291  -3.409   0.343  0.00  0.00    +0.107 C 
BRANCH  33  34
ATOM     34  C   UNL     1       0.367  -3.461   1.723  0.00  0.00    +0.003 C 
ATOM     35  C   UNL     1       0.474  -4.916   2.183  0.00  0.00    +0.009 C 
BRANCH  34  37
ATOM     36  C   UNL     1       2.376  -2.784   3.045  0.00  0.00    +0.004 C 
ATOM     37  C   UNL     1       1.766  -2.846   1.643  0.00  0.00    +0.001 C 
ENDBRANCH  34  37
ENDBRANCH  33  34
ENDBRANCH  29  33
ENDBRANCH   1  30
TORSDOF 7
