REMARK  Name = ZINC15782319
REMARK  10 active torsions:
REMARK  status: ('A' for Active; 'I' for Inactive)
REMARK    1  A    between atoms: C_1  and  C_2
REMARK    2  A    between atoms: C_2  and  C_4
REMARK    3  A    between atoms: C_2  and  N_10
REMARK    4  A    between atoms: C_11  and  C_13
REMARK    5  A    between atoms: C_13  and  C_15
REMARK    6  A    between atoms: C_13  and  N_26
REMARK    7  A    between atoms: C_15  and  C_16
REMARK    8  A    between atoms: C_27  and  O_29
REMARK    9  A    between atoms: O_29  and  C_30
REMARK   10  A    between atoms: C_30  and  C_31
REMARK                            x       y       z     vdW  Elec       q    Type
REMARK                         _______ _______ _______ _____ _____    ______ ____
ROOT
ATOM      1  C   UNL     1       2.422   1.185  -0.015  0.00  0.00    +0.166 C 
ENDROOT
BRANCH   1   3
ATOM      2  N   UNL     1       4.761   1.608   0.670  0.00  0.00    -0.307 N 
ATOM      3  C   UNL     1       3.495   2.061   0.580  0.00  0.00    +0.234 C 
ATOM      4  O   UNL     1       3.219   3.173   0.979  0.00  0.00    -0.274 OA
ATOM      5  H   UNL     1       4.982   0.719   0.351  0.00  0.00    +0.149 HD
BRANCH   2   7
ATOM      6  C   UNL     1       6.366   3.383   0.166  0.00  0.00    +0.033 C 
ATOM      7  C   UNL     1       5.804   2.459   1.248  0.00  0.00    +0.100 C 
BRANCH   7   8
ATOM      8  C   UNL     1       6.911   1.595   1.796  0.00  0.00    -0.027 A 
ATOM      9  C   UNL     1       7.317   0.471   1.103  0.00  0.00    +0.005 A 
ATOM     10  C   UNL     1       8.335  -0.319   1.603  0.00  0.00    +0.000 A 
ATOM     11  C   UNL     1       8.941   0.010   2.801  0.00  0.00    +0.000 A 
ATOM     12  C   UNL     1       8.531   1.132   3.497  0.00  0.00    +0.000 A 
ATOM     13  C   UNL     1       7.516   1.925   2.995  0.00  0.00    +0.005 A 
ENDBRANCH   7   8
ENDBRANCH   2   7
ENDBRANCH   1   3
BRANCH   1  14
ATOM     14  N   UNL     1       1.143   1.901   0.001  0.00  0.00    -0.269 N 
ATOM     15  C   UNL     1      -0.014   1.211   0.009  0.00  0.00    +0.401 C 
ATOM     16  O   UNL     1       0.002  -0.004   0.002  0.00  0.00    -0.226 OA
ATOM     17  H   UNL     1       1.130   2.870   0.007  0.00  0.00    +0.153 HD
BRANCH  15  18
ATOM     18  O   UNL     1      -1.189   1.868   0.018  0.00  0.00    -0.446 OA
BRANCH  18  19
ATOM     19  C   UNL     1      -2.396   1.061   0.019  0.00  0.00    +0.269 C 
BRANCH  19  20
ATOM     20  C   UNL     1      -3.604   1.963   0.030  0.00  0.00    -0.010 A 
ATOM     21  C   UNL     1      -4.155   2.365   1.232  0.00  0.00    +0.007 A 
ATOM     22  C   UNL     1      -5.260   3.196   1.242  0.00  0.00    +0.000 A 
ATOM     23  C   UNL     1      -5.819   3.616   0.049  0.00  0.00    +0.000 A 
ATOM     24  C   UNL     1      -5.271   3.209  -1.153  0.00  0.00    +0.000 A 
ATOM     25  C   UNL     1      -4.163   2.383  -1.162  0.00  0.00    +0.007 A 
ENDBRANCH  19  20
ENDBRANCH  18  19
ENDBRANCH  15  18
ENDBRANCH   1  14
BRANCH   1  26
ATOM     26  C   UNL     1       2.792   0.835  -1.457  0.00  0.00    +0.069 C 
BRANCH  26  27
ATOM     27  C   UNL     1       1.784  -0.139  -2.012  0.00  0.00    -0.020 A 
ATOM     28  C   UNL     1       1.894  -1.476  -2.034  0.00  0.00    +0.087 A 
ATOM     29  N   UNL     1       0.783  -2.026  -2.615  0.00  0.00    -0.360 N 
ATOM     30  H   UNL     1       0.634  -2.976  -2.743  0.00  0.00    +0.165 HD
ATOM     31  C   UNL     1      -0.091  -1.030  -2.989  0.00  0.00    +0.047 A 
ATOM     32  C   UNL     1       0.495   0.195  -2.623  0.00  0.00    +0.003 A 
ATOM     33  C   UNL     1      -0.176   1.392  -2.879  0.00  0.00    +0.010 A 
ATOM     34  C   UNL     1      -1.403   1.367  -3.482  0.00  0.00    +0.001 A 
ATOM     35  C   UNL     1      -1.986   0.160  -3.842  0.00  0.00    +0.002 A 
ATOM     36  C   UNL     1      -1.338  -1.033  -3.606  0.00  0.00    +0.026 A 
ENDBRANCH  26  27
ENDBRANCH   1  26
TORSDOF 9
