REMARK  Name = ZINC44690132
REMARK  12 active torsions:
REMARK  status: ('A' for Active; 'I' for Inactive)
REMARK    1  A    between atoms: C_1  and  C_2
REMARK    2  A    between atoms: C_2  and  C_3
REMARK    3  A    between atoms: C_2  and  C_4
REMARK    4  A    between atoms: C_11  and  C_41
REMARK    5  A    between atoms: C_19  and  C_20
REMARK    6  A    between atoms: C_19  and  C_21
REMARK    7  A    between atoms: N_23  and  C_24
REMARK    8  A    between atoms: C_24  and  C_26
REMARK    9  A    between atoms: C_24  and  C_37
REMARK   10  A    between atoms: C_26  and  C_27
REMARK   11  A    between atoms: C_37  and  O_39
REMARK   12  A    between atoms: O_39  and  C_40
REMARK                            x       y       z     vdW  Elec       q    Type
REMARK                         _______ _______ _______ _____ _____    ______ ____
ROOT
ATOM      1  C   UNL     1       1.167  -1.226   7.950  0.00  0.00    +0.220 C 
ATOM      2  O   UNL     1       0.954  -2.381   8.251  0.00  0.00    -0.275 OA
ATOM      3  N   UNL     1       0.881  -0.239   8.823  0.00  0.00    -0.302 N 
ATOM      4  H   UNL     1       1.051   0.685   8.583  0.00  0.00    +0.150 HD
ENDROOT
BRANCH   1  18
ATOM      5  C   UNL     1       0.731  -0.503   1.223  0.00  0.00    -0.067 C 
ATOM      6  C   UNL     1       0.066  -1.271   2.070  0.00  0.00    +0.003 C 
ATOM      7  C   UNL     1       0.746  -1.789   3.280  0.00  0.00    -0.048 C 
ATOM      8  C   UNL     1       0.034  -2.335   4.244  0.00  0.00    -0.023 C 
ATOM      9  C   UNL     1       0.666  -2.891   5.486  0.00  0.00    +0.032 C 
ATOM     10  C   UNL     1       1.973  -2.178   5.820  0.00  0.00    +0.014 C 
ATOM     11  C   UNL     1       2.885  -2.091   4.615  0.00  0.00    -0.021 C 
ATOM     12  C   UNL     1       2.237  -1.651   3.332  0.00  0.00    +0.025 C 
ATOM     13  C   UNL     1       2.610  -0.249   2.861  0.00  0.00    +0.013 C 
ATOM     14  C   UNL     1       2.161  -0.095   1.403  0.00  0.00    +0.031 C 
ATOM     15  C   UNL     1       4.154  -1.293   4.911  0.00  0.00    +0.007 C 
ATOM     16  C   UNL     1       3.829   0.058   5.537  0.00  0.00    +0.002 C 
ATOM     17  C   UNL     1       3.078  -0.164   6.848  0.00  0.00    +0.016 C 
ATOM     18  C   UNL     1       1.755  -0.889   6.587  0.00  0.00    +0.048 C 
ATOM     19  C   UNL     1       0.785   0.057   5.883  0.00  0.00    +0.021 C 
ATOM     20  C   UNL     1       3.379  -3.539   4.348  0.00  0.00    +0.012 C 
BRANCH   5  22
ATOM     21  C   UNL     1      -0.019   1.526   0.010  0.00  0.00    +0.012 C 
ATOM     22  C   UNL     1       0.002  -0.004   0.002  0.00  0.00    +0.009 C 
ATOM     23  C   UNL     1       0.718  -0.497  -1.257  0.00  0.00    +0.012 C 
ENDBRANCH   5  22
ENDBRANCH   1  18
BRANCH   3  24
ATOM     24  C   UNL     1       0.315  -0.563  10.135  0.00  0.00    +0.186 C 
BRANCH  24  25
ATOM     25  C   UNL     1      -1.181  -0.695  10.017  0.00  0.00    +0.328 C 
ATOM     26  O   UNL     1      -1.720  -0.535   8.948  0.00  0.00    -0.249 OA
BRANCH  25  27
ATOM     27  O   UNL     1      -1.916  -0.990  11.101  0.00  0.00    -0.467 OA
ATOM     28  C   UNL     1      -3.329  -1.100  10.917  0.00  0.00    +0.280 C 
ENDBRANCH  25  27
ENDBRANCH  24  25
BRANCH  24  29
ATOM     29  C   UNL     1       0.653   0.553  11.126  0.00  0.00    +0.071 C 
BRANCH  29  30
ATOM     30  C   UNL     1       2.144   0.604  11.336  0.00  0.00    -0.020 A 
ATOM     31  C   UNL     1       2.832   0.002  12.319  0.00  0.00    +0.087 A 
ATOM     32  N   UNL     1       4.167   0.273  12.188  0.00  0.00    -0.360 N 
ATOM     33  H   UNL     1       4.863  -0.052  12.781  0.00  0.00    +0.165 HD
ATOM     34  C   UNL     1       4.376   1.076  11.089  0.00  0.00    +0.047 A 
ATOM     35  C   UNL     1       3.118   1.313  10.504  0.00  0.00    +0.003 A 
ATOM     36  C   UNL     1       3.022   2.102   9.356  0.00  0.00    +0.010 A 
ATOM     37  C   UNL     1       4.152   2.637   8.804  0.00  0.00    +0.001 A 
ATOM     38  C   UNL     1       5.395   2.403   9.375  0.00  0.00    +0.002 A 
ATOM     39  C   UNL     1       5.511   1.635  10.514  0.00  0.00    +0.026 A 
ENDBRANCH  29  30
ENDBRANCH  24  29
ENDBRANCH   3  24
TORSDOF 7
