REMARK  Name = ZINC21054846
REMARK  13 active torsions:
REMARK  status: ('A' for Active; 'I' for Inactive)
REMARK    1  A    between atoms: C_1  and  C_2
REMARK    2  A    between atoms: C_7  and  O_8
REMARK    3  A    between atoms: O_8  and  C_9
REMARK    4  A    between atoms: C_9  and  C_11
REMARK    5  A    between atoms: C_9  and  C_12
REMARK    6  A    between atoms: N_14  and  C_15
REMARK    7  A    between atoms: N_14  and  C_22
REMARK    8  A    between atoms: C_15  and  C_16
REMARK    9  A    between atoms: C_23  and  N_35
REMARK   10  A    between atoms: N_24  and  C_31
REMARK   11  A    between atoms: C_31  and  C_32
REMARK   12  A    between atoms: C_32  and  O_33
REMARK   13  A    between atoms: O_33  and  C_34
REMARK                            x       y       z     vdW  Elec       q    Type
REMARK                         _______ _______ _______ _____ _____    ______ ____
ROOT
ATOM      1  C   UNL     1       5.284  -0.515  -2.091  0.00  0.00    +0.261 C 
ATOM      2  O   UNL     1       5.630  -0.943  -3.173  0.00  0.00    -0.271 OA
ATOM      3  N   UNL     1       4.292  -1.126  -1.410  0.00  0.00    -0.257 N 
ENDROOT
BRANCH   3   4
ATOM      4  C   UNL     1       3.731  -2.323  -1.903  0.00  0.00    +0.140 A 
ATOM      5  C   UNL     1       2.941  -2.315  -3.034  0.00  0.00    +0.127 A 
ATOM      6  N   UNL     1       2.409  -3.499  -3.489  0.00  0.00    -0.278 N 
ATOM      7  C   UNL     1       2.656  -4.651  -2.840  0.00  0.00    +0.331 A 
ATOM      8  O   UNL     1       2.176  -5.687  -3.259  0.00  0.00    -0.246 OA
ATOM      9  N   UNL     1       3.424  -4.678  -1.736  0.00  0.00    -0.273 N 
ATOM     10  H   UNL     1       3.609  -5.631  -1.218  0.00  0.00    +0.173 HD
ATOM     11  C   UNL     1       3.973  -3.547  -1.252  0.00  0.00    +0.277 A 
ATOM     12  O   UNL     1       4.672  -3.584  -0.253  0.00  0.00    -0.266 OA
BRANCH   5  13
ATOM     13  N   UNL     1       2.689  -1.138  -3.697  0.00  0.00    -0.343 N 
ATOM     14  H   UNL     1       2.058  -1.139  -4.598  0.00  0.00    +0.144 HD
ATOM     15  H   UNL     1       3.118  -0.196  -3.327  0.00  0.00    +0.144 HD
ENDBRANCH   5  13
BRANCH   6  16
ATOM     16  C   UNL     1       1.568  -3.505  -4.689  0.00  0.00    +0.156 C 
BRANCH  16  17
ATOM     17  C   UNL     1       2.444  -3.718  -5.925  0.00  0.00    +0.181 C 
BRANCH  17  18
ATOM     18  O   UNL     1       3.036  -5.018  -5.871  0.00  0.00    -0.381 OA
ATOM     19  C   UNL     1       3.878  -5.320  -6.985  0.00  0.00    +0.194 C 
ENDBRANCH  17  18
ENDBRANCH  16  17
ENDBRANCH   6  16
ENDBRANCH   3   4
BRANCH   1  20
ATOM     20  C   UNL     1       5.963   0.698  -1.509  0.00  0.00    +0.256 C 
ATOM     21  C   UNL     1       6.811   0.279  -0.306  0.00  0.00    +0.062 C 
BRANCH  20  22
ATOM     22  O   UNL     1       6.802   1.295  -2.499  0.00  0.00    -0.480 OA
BRANCH  22  29
ATOM     23  C   UNL     1       8.239   2.555  -4.579  0.00  0.00    +0.047 C 
ATOM     24  C   UNL     1       7.774   3.293  -3.350  0.00  0.00    -0.007 A 
ATOM     25  C   UNL     1       8.047   4.640  -3.208  0.00  0.00    +0.027 A 
ATOM     26  C   UNL     1       7.621   5.318  -2.079  0.00  0.00    +0.041 A 
ATOM     27  C   UNL     1       6.920   4.648  -1.091  0.00  0.00    +0.023 A 
ATOM     28  C   UNL     1       6.641   3.303  -1.232  0.00  0.00    +0.047 A 
ATOM     29  C   UNL     1       7.072   2.620  -2.360  0.00  0.00    +0.125 A 
ATOM     30 CL   UNL     1       7.965   7.010  -1.903  0.00  0.00    -0.084 Cl
ENDBRANCH  22  29
ENDBRANCH  20  22
ENDBRANCH   1  20
BRANCH   3  31
ATOM     31  C   UNL     1       3.797  -0.545  -0.160  0.00  0.00    +0.149 C 
BRANCH  31  32
ATOM     32  C   UNL     1       2.591   0.313  -0.447  0.00  0.00    -0.030 A 
ATOM     33  C   UNL     1       1.333  -0.257  -0.495  0.00  0.00    +0.005 A 
ATOM     34  C   UNL     1       0.228   0.529  -0.758  0.00  0.00    +0.000 A 
ATOM     35  C   UNL     1       0.380   1.886  -0.973  0.00  0.00    +0.000 A 
ATOM     36  C   UNL     1       1.639   2.457  -0.925  0.00  0.00    +0.000 A 
ATOM     37  C   UNL     1       2.744   1.670  -0.661  0.00  0.00    +0.005 A 
ENDBRANCH  31  32
ENDBRANCH   3  31
TORSDOF 10
