REMARK  Name = ZINC39695402
REMARK  8 active torsions:
REMARK  status: ('A' for Active; 'I' for Inactive)
REMARK    1  A    between atoms: C_1  and  C_2
REMARK    2  A    between atoms: C_2  and  C_3
REMARK    3  A    between atoms: C_3  and  C_5
REMARK    4  A    between atoms: C_3  and  N_11
REMARK    5  A    between atoms: C_12  and  C_14
REMARK    6  A    between atoms: C_25  and  C_27
REMARK    7  A    between atoms: C_27  and  C_28
REMARK    8  A    between atoms: C_31  and  C_34
REMARK                            x       y       z     vdW  Elec       q    Type
REMARK                         _______ _______ _______ _____ _____    ______ ____
ROOT
ATOM      1  C   UNL     1      -0.633   1.488  -4.304  0.00  0.00    +0.100 C 
ATOM      2  C   UNL     1      -0.439   0.398  -5.382  0.00  0.00    +0.121 C 
ATOM      3  N   UNL     1      -0.355   1.145  -6.659  0.00  0.00    -0.300 N 
ATOM      4  C   UNL     1       0.440   2.352  -6.328  0.00  0.00    +0.115 C 
ATOM      5  C   UNL     1      -0.054   2.768  -4.928  0.00  0.00    -0.004 C 
ATOM      6  C   UNL     1       1.111   3.285  -4.090  0.00  0.00    -0.010 C 
ATOM      7  C   UNL     1       1.633   4.590  -4.699  0.00  0.00    -0.082 C 
ATOM      8  N   UNL     1       0.552   5.582  -4.733  0.00  0.00    +0.379 N 
ATOM      9  C   UNL     1      -0.525   5.118  -5.616  0.00  0.00    -0.082 C 
ATOM     10  C   UNL     1      -1.138   3.835  -5.047  0.00  0.00    -0.010 C 
ATOM     11  C   UNL     1      -0.883   0.804  -7.851  0.00  0.00    +0.220 C 
ATOM     12  O   UNL     1      -0.725   1.527  -8.813  0.00  0.00    -0.275 OA
ATOM     13  H   UNL     1       0.188   5.714  -3.801  0.00  0.00    -0.086 HD
ATOM     14  H   UNL     1       0.913   6.459  -5.077  0.00  0.00    -0.086 HD
ENDROOT
BRANCH   1  16
ATOM     15  N   UNL     1      -0.276   1.615  -1.859  0.00  0.00    -0.308 N 
ATOM     16  C   UNL     1       0.122   1.127  -3.051  0.00  0.00    +0.219 C 
ATOM     17  O   UNL     1       1.090   0.398  -3.115  0.00  0.00    -0.275 OA
ATOM     18  H   UNL     1      -0.998   2.262  -1.817  0.00  0.00    +0.149 HD
BRANCH  15  19
ATOM     19  C   UNL     1       0.379   1.167  -0.628  0.00  0.00    +0.103 C 
BRANCH  19  20
ATOM     20  C   UNL     1      -0.665   0.869   0.417  0.00  0.00    -0.027 A 
ATOM     21  C   UNL     1      -1.769   1.690   0.545  0.00  0.00    +0.005 A 
ATOM     22  C   UNL     1      -2.727   1.417   1.504  0.00  0.00    +0.000 A 
ATOM     23  C   UNL     1      -2.581   0.322   2.334  0.00  0.00    +0.000 A 
ATOM     24  C   UNL     1      -1.477  -0.501   2.205  0.00  0.00    +0.000 A 
ATOM     25  C   UNL     1      -0.521  -0.230   1.244  0.00  0.00    +0.005 A 
ENDBRANCH  19  20
BRANCH  19  27
ATOM     26  C   UNL     1       2.457   2.466  -1.113  0.00  0.00    +0.006 C 
ATOM     27  C   UNL     1       1.312   2.267  -0.118  0.00  0.00    +0.024 C 
ENDBRANCH  19  27
ENDBRANCH  15  19
ENDBRANCH   1  16
BRANCH  11  28
ATOM     28  C   UNL     1      -1.668  -0.474  -7.990  0.00  0.00    +0.131 C 
BRANCH  28  29
ATOM     29  C   UNL     1      -2.145  -0.619  -9.413  0.00  0.00    -0.039 A 
ATOM     30  C   UNL     1      -3.366  -0.093  -9.789  0.00  0.00    +0.004 A 
ATOM     31  C   UNL     1      -3.803  -0.226 -11.094  0.00  0.00    +0.003 A 
ATOM     32  C   UNL     1      -3.019  -0.884 -12.022  0.00  0.00    -0.050 A 
ATOM     33  C   UNL     1      -1.797  -1.409 -11.646  0.00  0.00    +0.003 A 
ATOM     34  C   UNL     1      -1.358  -1.273 -10.342  0.00  0.00    +0.004 A 
ATOM     35  C   UNL     1      -3.495  -1.030 -13.444  0.00  0.00    +0.044 C 
ENDBRANCH  28  29
ENDBRANCH  11  28
TORSDOF 6
