REMARK  Name = ZINC41513598
REMARK  13 active torsions:
REMARK  status: ('A' for Active; 'I' for Inactive)
REMARK    1  A    between atoms: C_1  and  C_2
REMARK    2  A    between atoms: C_4  and  O_29
REMARK    3  A    between atoms: C_5  and  C_19
REMARK    4  A    between atoms: C_11  and  C_12
REMARK    5  A    between atoms: C_19  and  N_20
REMARK    6  A    between atoms: N_20  and  C_21
REMARK    7  A    between atoms: N_20  and  C_25
REMARK    8  A    between atoms: C_21  and  C_22
REMARK    9  A    between atoms: C_22  and  C_23
REMARK   10  A    between atoms: C_22  and  C_24
REMARK   11  A    between atoms: C_25  and  C_26
REMARK   12  A    between atoms: C_26  and  C_27
REMARK   13  A    between atoms: C_26  and  C_28
REMARK                            x       y       z     vdW  Elec       q    Type
REMARK                         _______ _______ _______ _____ _____    ______ ____
ROOT
ATOM      1  C   UNL     1      -3.526  -0.213  -0.473  0.00  0.00    +0.045 C 
ATOM      2  C   UNL     1      -2.533  -1.323  -0.249  0.00  0.00    -0.033 A 
ATOM      3  C   UNL     1      -2.157  -2.126  -1.289  0.00  0.00    +0.050 A 
ATOM      4  C   UNL     1      -1.239  -3.152  -1.085  0.00  0.00    +0.122 A 
ATOM      5  C   UNL     1      -0.696  -3.373   0.171  0.00  0.00    +0.020 A 
ATOM      6  C   UNL     1      -1.067  -2.566   1.240  0.00  0.00    +0.145 A 
ATOM      7  C   UNL     1      -1.990  -1.531   1.020  0.00  0.00    +0.071 A 
ATOM      8  C   UNL     1      -2.176  -0.857   2.318  0.00  0.00    +0.232 C 
ATOM      9  O   UNL     1      -2.898   0.092   2.569  0.00  0.00    -0.283 OA
ATOM     10  C   UNL     1      -1.295  -1.589   3.242  0.00  0.00    +0.176 C 
ATOM     11  C   UNL     1      -1.127  -1.330   4.563  0.00  0.00    +0.058 C 
ATOM     12  O   UNL     1      -0.691  -2.574   2.537  0.00  0.00    -0.451 OA
ENDROOT
BRANCH  11  13
ATOM     13  C   UNL     1      -1.719  -0.122   5.156  0.00  0.00    -0.021 A 
ATOM     14  C   UNL     1      -2.324  -0.182   6.417  0.00  0.00    +0.008 A 
ATOM     15  C   UNL     1      -2.876   0.956   6.966  0.00  0.00    +0.001 A 
ATOM     16  C   UNL     1      -2.833   2.154   6.275  0.00  0.00    +0.000 A 
ATOM     17  C   UNL     1      -2.237   2.221   5.027  0.00  0.00    +0.001 A 
ATOM     18  C   UNL     1      -1.675   1.094   4.466  0.00  0.00    +0.008 A 
ENDBRANCH  11  13
BRANCH   4  19
ATOM     19  O   UNL     1      -0.873  -3.944  -2.124  0.00  0.00    -0.506 OA
ATOM     20  H   UNL     1      -0.105  -3.620  -2.615  0.00  0.00    +0.292 HD
ENDBRANCH   4  19
BRANCH   5  21
ATOM     21  C   UNL     1       0.296  -4.488   0.378  0.00  0.00    -0.036 C 
BRANCH  21  22
ATOM     22  N   UNL     1       1.591  -4.105  -0.200  0.00  0.00    +0.383 N 
ATOM     23  H   UNL     1       1.462  -3.830  -1.162  0.00  0.00    -0.081 HD
BRANCH  22  24
ATOM     24  C   UNL     1       2.153  -2.980   0.560  0.00  0.00    -0.075 C 
BRANCH  24  25
ATOM     25  C   UNL     1       1.617  -1.663  -0.007  0.00  0.00    -0.034 C 
ATOM     26  C   UNL     1       2.084  -0.502   0.872  0.00  0.00    +0.005 C 
ATOM     27  C   UNL     1       2.144  -1.470  -1.431  0.00  0.00    +0.005 C 
ENDBRANCH  24  25
ENDBRANCH  22  24
BRANCH  22  28
ATOM     28  C   UNL     1       2.513  -5.247  -0.137  0.00  0.00    -0.075 C 
BRANCH  28  29
ATOM     29  C   UNL     1       2.004  -6.364  -1.050  0.00  0.00    -0.034 C 
ATOM     30  C   UNL     1       2.059  -5.897  -2.506  0.00  0.00    +0.005 C 
ATOM     31  C   UNL     1       2.884  -7.604  -0.878  0.00  0.00    +0.005 C 
ENDBRANCH  28  29
ENDBRANCH  22  28
ENDBRANCH  21  22
ENDBRANCH   5  21
TORSDOF 8
