REMARK  Name = ZINC34107188
REMARK  4 active torsions:
REMARK  status: ('A' for Active; 'I' for Inactive)
REMARK    1  A    between atoms: C_4  and  C_7
REMARK    2  A    between atoms: C_7  and  N_8
REMARK    3  A    between atoms: C_12  and  C_13
REMARK    4  A    between atoms: C_16  and  C_18
REMARK                            x       y       z     vdW  Elec       q    Type
REMARK                         _______ _______ _______ _____ _____    ______ ____
ROOT
ATOM      1  N   UNL     1       4.152  -0.952   1.338  0.00  0.00    -0.251 N 
ATOM      2  C   UNL     1       4.905  -0.055   1.950  0.00  0.00    +0.096 C 
ATOM      3  S   UNL     1       5.374   1.389   1.160  0.00  0.00    -0.034 S 
ATOM      4  C   UNL     1       5.316  -0.327   3.291  0.00  0.00    +0.049 C 
ATOM      5  C   UNL     1       6.083   0.424   4.132  0.00  0.00    +0.063 C 
ATOM      6  S   UNL     1       4.550  -1.918   3.566  0.00  0.00    -0.029 S 
ATOM      7  C   UNL     1       3.777  -2.090   1.964  0.00  0.00    +0.284 C 
ATOM      8  O   UNL     1       3.090  -3.001   1.543  0.00  0.00    -0.262 OA
ENDROOT
BRANCH   5   9
ATOM      9  C   UNL     1       6.369  -0.044   5.434  0.00  0.00    +0.130 A 
ATOM     10  C   UNL     1       7.127   0.617   6.385  0.00  0.00    +0.050 A 
ATOM     11  C   UNL     1       7.153  -0.197   7.519  0.00  0.00    +0.052 A 
ATOM     12  C   UNL     1       6.415  -1.323   7.223  0.00  0.00    +0.161 A 
ATOM     13  O   UNL     1       5.947  -1.209   5.965  0.00  0.00    -0.453 OA
BRANCH  12  14
ATOM     14  C   UNL     1       6.174  -2.454   8.129  0.00  0.00    +0.144 A 
ATOM     15  N   UNL     1       6.590  -2.625   9.369  0.00  0.00    -0.236 NA
ATOM     16  C   UNL     1       6.292  -3.717  10.086  0.00  0.00    +0.079 A 
ATOM     17  C   UNL     1       6.674  -4.020  11.416  0.00  0.00    +0.029 A 
ATOM     18  C   UNL     1       6.286  -5.183  12.004  0.00  0.00    +0.002 A 
ATOM     19  C   UNL     1       5.507  -6.116  11.333  0.00  0.00    +0.001 A 
ATOM     20  C   UNL     1       5.112  -5.860  10.033  0.00  0.00    +0.017 A 
ATOM     21  C   UNL     1       5.498  -4.688   9.429  0.00  0.00    +0.040 A 
ATOM     22  S   UNL     1       5.236  -3.947   7.836  0.00  0.00    -0.064 S 
ENDBRANCH  12  14
ENDBRANCH   5   9
BRANCH   1  23
ATOM     23  C   UNL     1       3.711  -0.707  -0.038  0.00  0.00    +0.150 C 
BRANCH  23  27
ATOM     24  C   UNL     1      -0.017   1.378   0.010  0.00  0.00    +0.000 A 
ATOM     25  C   UNL     1       1.171   2.086   0.002  0.00  0.00    +0.000 A 
ATOM     26  C   UNL     1       2.377   1.411  -0.013  0.00  0.00    +0.005 A 
ATOM     27  C   UNL     1       2.396   0.029  -0.020  0.00  0.00    -0.030 A 
ATOM     28  C   UNL     1       1.208  -0.679  -0.012  0.00  0.00    +0.005 A 
ATOM     29  C   UNL     1       0.002  -0.004   0.002  0.00  0.00    +0.000 A 
ENDBRANCH  23  27
ENDBRANCH   1  23
TORSDOF 4
