REMARK  Name = ZINC66792344
REMARK  6 active torsions:
REMARK  status: ('A' for Active; 'I' for Inactive)
REMARK    1  A    between atoms: C_1  and  C_2
REMARK    2  A    between atoms: C_2  and  C_3
REMARK    3  A    between atoms: N_6  and  C_10
REMARK    4  A    between atoms: C_10  and  N_11
REMARK    5  A    between atoms: C_14  and  C_18
REMARK    6  A    between atoms: C_14  and  C_19
REMARK                            x       y       z     vdW  Elec       q    Type
REMARK                         _______ _______ _______ _____ _____    ______ ____
ROOT
ATOM      1  N   UNL     1      -4.146  -4.426  -0.706  0.00  0.00    -0.210 N 
ATOM      2  C   UNL     1      -5.187  -4.748   0.087  0.00  0.00    +0.252 C 
ATOM      3  O   UNL     1      -5.208  -4.761   1.299  0.00  0.00    -0.272 OA
ATOM      4  C   UNL     1      -6.327  -5.091  -0.852  0.00  0.00    +0.141 C 
ATOM      5  N   UNL     1      -5.740  -4.904  -2.190  0.00  0.00    -0.281 N 
ATOM      6  C   UNL     1      -4.468  -4.512  -2.002  0.00  0.00    +0.311 C 
ATOM      7  O   UNL     1      -3.695  -4.266  -2.907  0.00  0.00    -0.252 OA
ATOM      8  C   UNL     1      -6.769  -6.542  -0.655  0.00  0.00    +0.047 C 
ATOM      9  H   UNL     1      -6.186  -5.035  -3.042  0.00  0.00    +0.152 HD
ENDROOT
BRANCH   4  10
ATOM     10  C   UNL     1      -7.485  -4.149  -0.645  0.00  0.00    +0.023 A 
ATOM     11  C   UNL     1      -8.413  -3.729  -1.538  0.00  0.00    +0.015 A 
ATOM     12  C   UNL     1      -9.398  -2.853  -1.121  0.00  0.00    +0.028 A 
ATOM     13  C   UNL     1      -9.406  -2.441   0.172  0.00  0.00    +0.078 A 
ATOM     14  S   UNL     1      -7.996  -3.306   0.844  0.00  0.00    -0.079 S 
ATOM     15 CL   UNL     1     -10.505  -1.358   0.968  0.00  0.00    -0.076 Cl
ENDBRANCH   4  10
BRANCH   1  16
ATOM     16  C   UNL     1      -2.827  -4.026  -0.210  0.00  0.00    +0.205 C 
BRANCH  16  19
ATOM     17  C   UNL     1      -1.433  -0.534   0.013  0.00  0.00    +0.132 C 
ATOM     18  C   UNL     1      -1.417  -2.059  -0.119  0.00  0.00    +0.117 C 
ATOM     19  N   UNL     1      -2.793  -2.568  -0.031  0.00  0.00    -0.282 NA
ATOM     20  C   UNL     1      -3.411  -2.180   1.245  0.00  0.00    +0.114 C 
ATOM     21  C   UNL     1      -3.408  -0.653   1.363  0.00  0.00    +0.175 C 
ATOM     22  O   UNL     1      -2.066  -0.173   1.244  0.00  0.00    -0.374 OA
BRANCH  17  24
ATOM     23  C   UNL     1      -0.019   1.526   0.010  0.00  0.00    +0.006 C 
ATOM     24  C   UNL     1       0.002  -0.004   0.002  0.00  0.00    +0.029 C 
ENDBRANCH  17  24
ENDBRANCH  16  19
ENDBRANCH   1  16
TORSDOF 4
