REMARK  Name = ZINC22451353
REMARK  6 active torsions:
REMARK  status: ('A' for Active; 'I' for Inactive)
REMARK    1  A    between atoms: C_1  and  C_2
REMARK    2  A    between atoms: C_5  and  S_8
REMARK    3  A    between atoms: S_8  and  C_9
REMARK    4  A    between atoms: C_9  and  C_10
REMARK    5  A    between atoms: C_20  and  C_27
REMARK    6  A    between atoms: C_23  and  C_26
REMARK                            x       y       z     vdW  Elec       q    Type
REMARK                         _______ _______ _______ _____ _____    ______ ____
ROOT
ATOM      1  C   UNL     1      -3.536  -0.144   0.294  0.00  0.00    +0.060 A 
ATOM      2  C   UNL     1      -3.768  -1.483   0.416  0.00  0.00    +0.094 A 
ATOM      3  C   UNL     1      -2.674  -2.366   0.397  0.00  0.00    +0.253 A 
ATOM      4  O   UNL     1      -2.845  -3.570   0.503  0.00  0.00    -0.268 OA
ATOM      5  N   UNL     1      -1.431  -1.857   0.259  0.00  0.00    -0.295 N 
ATOM      6  H   UNL     1      -0.561  -2.529   0.242  0.00  0.00    +0.172 HD
ATOM      7  C   UNL     1      -1.261  -0.513   0.141  0.00  0.00    +0.198 A 
ATOM      8  N   UNL     1      -2.292   0.309   0.165  0.00  0.00    -0.220 NA
ATOM      9  N   UNL     1       0.002  -0.004   0.002  0.00  0.00    -0.301 N 
ATOM     10  C   UNL     1       0.646  -0.520  -1.213  0.00  0.00    +0.111 C 
ATOM     11  C   UNL     1       2.101  -0.048  -1.260  0.00  0.00    +0.004 C 
ATOM     12  C   UNL     1       2.137   1.483  -1.252  0.00  0.00    +0.009 C 
ATOM     13  C   UNL     1       1.417   1.995  -0.001  0.00  0.00    +0.004 C 
ATOM     14  C   UNL     1      -0.018   1.464   0.010  0.00  0.00    +0.111 C 
ATOM     15  C   UNL     1       1.396   3.525  -0.015  0.00  0.00    +0.009 C 
ATOM     16  C   UNL     1       2.765  -0.568  -2.537  0.00  0.00    +0.009 C 
ENDROOT
BRANCH   1  17
ATOM     17  C   UNL     1      -4.691   0.824   0.310  0.00  0.00    +0.130 C 
BRANCH  17  18
ATOM     18  S   UNL     1      -4.743   1.677   1.910  0.00  0.00    -0.119 S 
BRANCH  18  23
ATOM     19  C   UNL     1      -9.486   5.381   1.439  0.00  0.00    +0.044 C 
ATOM     20  C   UNL     1      -8.302   4.456   1.557  0.00  0.00    -0.050 A 
ATOM     21  C   UNL     1      -7.560   4.430   2.724  0.00  0.00    +0.004 A 
ATOM     22  C   UNL     1      -6.474   3.584   2.835  0.00  0.00    +0.015 A 
ATOM     23  C   UNL     1      -6.127   2.758   1.773  0.00  0.00    +0.008 A 
ATOM     24  C   UNL     1      -6.872   2.791   0.600  0.00  0.00    +0.015 A 
ATOM     25  C   UNL     1      -7.960   3.635   0.498  0.00  0.00    +0.004 A 
ENDBRANCH  18  23
ENDBRANCH  17  18
ENDBRANCH   1  17
TORSDOF 3
