REMARK  Name = ZINC36880794
REMARK  5 active torsions:
REMARK  status: ('A' for Active; 'I' for Inactive)
REMARK    1  A    between atoms: C_1  and  N_2
REMARK    2  A    between atoms: N_2  and  C_3
REMARK    3  A    between atoms: C_6  and  N_9
REMARK    4  A    between atoms: N_9  and  S_10
REMARK    5  A    between atoms: S_10  and  C_13
REMARK                            x       y       z     vdW  Elec       q    Type
REMARK                         _______ _______ _______ _____ _____    ______ ____
ROOT
ATOM      1  N   UNL     1       3.504  -2.631  -1.182  0.00  0.00    -0.187 NA
ATOM      2  H   UNL     1       3.462  -2.244  -0.293  0.00  0.00    +0.148 HD
ENDROOT
BRANCH   1   6
ATOM      3  C   UNL     1       1.101  -0.099  -0.984  0.00  0.00    -0.072 C 
ATOM      4  C   UNL     1       2.612   0.106  -0.864  0.00  0.00    -0.014 C 
ATOM      5  C   UNL     1       3.297  -0.390  -2.139  0.00  0.00    +0.019 C 
ATOM      6  C   UNL     1       2.999  -1.878  -2.332  0.00  0.00    +0.076 C 
ATOM      7  C   UNL     1       1.487  -2.083  -2.453  0.00  0.00    +0.019 C 
ATOM      8  C   UNL     1       0.802  -1.587  -1.178  0.00  0.00    -0.014 C 
BRANCH   3  10
ATOM      9  C   UNL     1       0.629   1.829   0.363  0.00  0.00    -0.100 C 
ATOM     10  N   UNL     1       0.443   0.377   0.240  0.00  0.00    +0.379 N 
ATOM     11  H   UNL     1       0.849  -0.083   1.041  0.00  0.00    -0.086 HD
ATOM     12  H   UNL     1      -0.543   0.167   0.195  0.00  0.00    -0.086 HD
ENDBRANCH   3  10
ENDBRANCH   1   6
BRANCH   1  13
ATOM     13  S   UNL     1       4.144  -4.143  -1.398  0.00  0.00    +0.061 S 
ATOM     14  O   UNL     1       4.575  -4.588  -0.119  0.00  0.00    -0.153 OA
ATOM     15  O   UNL     1       3.211  -4.871  -2.184  0.00  0.00    -0.153 OA
BRANCH  13  16
ATOM     16  C   UNL     1       5.595  -3.958  -2.382  0.00  0.00    +0.132 A 
ATOM     17  C   UNL     1       5.659  -4.510  -3.648  0.00  0.00    +0.057 A 
ATOM     18  C   UNL     1       6.790  -4.348  -4.379  0.00  0.00    +0.081 A 
ATOM     19  S   UNL     1       7.812  -3.392  -3.271  0.00  0.00    -0.063 S 
ATOM     20  C   UNL     1       6.662  -3.267  -1.911  0.00  0.00    +0.106 A 
ATOM     21 CL   UNL     1       6.860  -2.469  -0.382  0.00  0.00    -0.074 Cl
ATOM     22 CL   UNL     1       7.151  -4.923  -5.976  0.00  0.00    -0.076 Cl
ENDBRANCH  13  16
ENDBRANCH   1  13
TORSDOF 4
