REMARK  Name = ZINC63159181
REMARK  4 active torsions:
REMARK  status: ('A' for Active; 'I' for Inactive)
REMARK    1  A    between atoms: C_1  and  N_2
REMARK    2  A    between atoms: N_2  and  C_3
REMARK    3  A    between atoms: C_3  and  C_4
REMARK    4  A    between atoms: N_7  and  C_10
REMARK                            x       y       z     vdW  Elec       q    Type
REMARK                         _______ _______ _______ _____ _____    ______ ____
ROOT
ATOM      1  C   UNL     1      -2.275  -5.985  -1.372  0.00  0.00    +0.176 C 
ATOM      2  C   UNL     1      -1.882  -6.388  -2.775  0.00  0.00    +0.001 A 
ATOM      3  C   UNL     1      -2.404  -6.091  -4.014  0.00  0.00    +0.025 A 
ATOM      4  C   UNL     1      -1.819  -6.617  -5.153  0.00  0.00    +0.053 A 
ATOM      5  C   UNL     1      -0.711  -7.441  -5.041  0.00  0.00    +0.139 A 
ATOM      6  C   UNL     1      -0.187  -7.739  -3.797  0.00  0.00    +0.063 A 
ATOM      7  C   UNL     1      -0.771  -7.212  -2.648  0.00  0.00    +0.041 A 
ATOM      8  N   UNL     1      -0.433  -7.362  -1.302  0.00  0.00    -0.284 N 
ATOM      9  C   UNL     1      -1.262  -6.680  -0.488  0.00  0.00    +0.239 C 
ATOM     10  O   UNL     1      -1.207  -6.630   0.722  0.00  0.00    -0.273 OA
ATOM     11  F   UNL     1      -0.140  -7.956  -6.152  0.00  0.00    -0.204 F 
ATOM     12 BR   UNL     1      -2.532  -6.214  -6.858  0.00  0.00    -0.047 Br
ATOM     13  H   UNL     1       0.312  -7.898  -0.988  0.00  0.00    +0.155 HD
ENDROOT
BRANCH   1  17
ATOM     14  C   UNL     1      -1.341  -2.042  -0.006  0.00  0.00    -0.026 C 
ATOM     15  C   UNL     1      -0.763  -2.536  -1.335  0.00  0.00    +0.017 C 
ATOM     16  C   UNL     1      -0.799  -4.066  -1.364  0.00  0.00    +0.085 C 
ATOM     17  N   UNL     1      -2.185  -4.527  -1.211  0.00  0.00    -0.288 NA
ATOM     18  C   UNL     1      -2.745  -4.105   0.080  0.00  0.00    +0.085 C 
ATOM     19  C   UNL     1      -2.767  -2.576   0.151  0.00  0.00    +0.017 C 
BRANCH  14  20
ATOM     20  C   UNL     1      -1.364  -0.512   0.004  0.00  0.00    -0.079 C 
BRANCH  20  22
ATOM     21  C   UNL     1      -0.010   1.467  -0.017  0.00  0.00    -0.100 C 
ATOM     22  N   UNL     1       0.013  -0.002  -0.027  0.00  0.00    +0.377 N 
ATOM     23  H   UNL     1       0.473  -0.325  -0.865  0.00  0.00    -0.086 HD
ATOM     24  H   UNL     1       0.514  -0.336   0.782  0.00  0.00    -0.086 HD
ENDBRANCH  20  22
ENDBRANCH  14  20
ENDBRANCH   1  17
TORSDOF 3
