REMARK  Name = ZINC08788716
REMARK  10 active torsions:
REMARK  status: ('A' for Active; 'I' for Inactive)
REMARK    1  A    between atoms: C_1  and  C_2
REMARK    2  A    between atoms: C_8  and  C_9
REMARK    3  A    between atoms: C_8  and  N_62
REMARK    4  A    between atoms: C_10  and  O_34
REMARK    5  A    between atoms: C_16  and  C_30
REMARK    6  A    between atoms: C_17  and  O_20
REMARK    7  A    between atoms: O_20  and  C_21
REMARK    8  A    between atoms: C_26  and  C_27
REMARK    9  A    between atoms: C_27  and  C_28
REMARK   10  A    between atoms: C_27  and  C_29
REMARK                            x       y       z     vdW  Elec       q    Type
REMARK                         _______ _______ _______ _____ _____    ______ ____
ROOT
ATOM      1  C   UNL     1       1.166   2.110   0.002  0.00  0.00    +0.020 A 
ATOM      2  C   UNL     1      -0.017   1.389   0.010  0.00  0.00    +0.122 A 
ATOM      3  C   UNL     1       0.002  -0.004   0.002  0.00  0.00    +0.046 A 
ATOM      4  C   UNL     1       1.190  -0.679  -0.013  0.00  0.00    +0.019 A 
ATOM      5  C   UNL     1       2.390   0.033  -0.021  0.00  0.00    +0.068 A 
ATOM      6  C   UNL     1       2.380   1.440  -0.013  0.00  0.00    +0.144 A 
ATOM      7  O   UNL     1       3.546   2.117  -0.020  0.00  0.00    -0.447 OA
ATOM      8  C   UNL     1       4.735   1.499  -0.035  0.00  0.00    +0.254 A 
ATOM      9  C   UNL     1       4.860   0.157  -0.044  0.00  0.00    +0.222 A 
ATOM     10  C   UNL     1       3.691  -0.657  -0.037  0.00  0.00    +0.235 A 
ATOM     11  O   UNL     1       3.765  -1.874  -0.045  0.00  0.00    -0.283 OA
ENDROOT
BRANCH   8  12
ATOM     12  C   UNL     1       5.985   2.340  -0.042  0.00  0.00    +0.454 C 
ATOM     13  F   UNL     1       6.360   2.608  -1.363  0.00  0.00    -0.163 F 
ATOM     14  F   UNL     1       5.741   3.545   0.627  0.00  0.00    -0.163 F 
ATOM     15  F   UNL     1       7.016   1.649   0.604  0.00  0.00    -0.163 F 
ENDBRANCH   8  12
BRANCH   2  16
ATOM     16  O   UNL     1      -1.205   2.046   0.019  0.00  0.00    -0.506 OA
ATOM     17  H   UNL     1      -1.545   2.231   0.905  0.00  0.00    +0.292 HD
ENDBRANCH   2  16
BRANCH   1  18
ATOM     18  C   UNL     1       1.133   3.616   0.010  0.00  0.00    -0.036 C 
BRANCH  18  25
ATOM     19  C   UNL     1       1.680   7.513   2.961  0.00  0.00    +0.005 C 
ATOM     20  C   UNL     1       1.485   5.997   2.907  0.00  0.00    -0.031 C 
ATOM     21  C   UNL     1       0.218   5.615   3.677  0.00  0.00    -0.001 C 
ATOM     22  C   UNL     1      -0.001   4.104   3.567  0.00  0.00    -0.018 C 
ATOM     23  C   UNL     1      -0.100   3.714   2.091  0.00  0.00    -0.078 C 
ATOM     24  C   UNL     1       1.343   5.552   1.449  0.00  0.00    -0.075 C 
ATOM     25  N   UNL     1       1.159   4.085   1.411  0.00  0.00    +0.383 N 
ATOM     26  H   UNL     1       1.944   3.638   1.898  0.00  0.00    -0.081 HD
ENDBRANCH  18  25
ENDBRANCH   1  18
BRANCH   9  27
ATOM     27  O   UNL     1       6.094  -0.416  -0.058  0.00  0.00    -0.448 OA
BRANCH  27  28
ATOM     28  C   UNL     1       6.661  -0.679  -1.264  0.00  0.00    +0.132 A 
ATOM     29  C   UNL     1       5.982  -0.368  -2.434  0.00  0.00    +0.046 A 
ATOM     30  C   UNL     1       6.563  -0.631  -3.659  0.00  0.00    +0.004 A 
ATOM     31  C   UNL     1       7.816  -1.213  -3.721  0.00  0.00    +0.001 A 
ATOM     32  C   UNL     1       8.493  -1.528  -2.557  0.00  0.00    +0.007 A 
ATOM     33  C   UNL     1       7.918  -1.262  -1.329  0.00  0.00    -0.003 A 
BRANCH  33  34
ATOM     34  C   UNL     1       8.657  -1.606  -0.061  0.00  0.00    +0.016 C 
ATOM     35  C   UNL     1       8.931  -3.111  -0.021  0.00  0.00    +0.012 C 
ATOM     36  C   UNL     1       9.983  -0.845  -0.021  0.00  0.00    +0.012 C 
ENDBRANCH  33  34
ENDBRANCH  27  28
ENDBRANCH   9  27
TORSDOF 7
