REMARK  Name = ZINC06438684
REMARK  7 active torsions:
REMARK  status: ('A' for Active; 'I' for Inactive)
REMARK    1  A    between atoms: C_1  and  C_2
REMARK    2  A    between atoms: C_2  and  N_3
REMARK    3  A    between atoms: C_7  and  C_9
REMARK    4  A    between atoms: C_9  and  C_11
REMARK    5  A    between atoms: C_9  and  O_12
REMARK    6  A    between atoms: O_12  and  C_13
REMARK    7  A    between atoms: C_13  and  C_15
REMARK                            x       y       z     vdW  Elec       q    Type
REMARK                         _______ _______ _______ _____ _____    ______ ____
ROOT
ATOM      1  O   UNL     1       1.144   1.902   0.001  0.00  0.00    -0.448 OA
ENDROOT
BRANCH   1   2
ATOM      2  C   UNL     1       2.373   1.128  -0.015  0.00  0.00    +0.259 C 
ATOM      3  C   UNL     1       2.818   0.848   1.422  0.00  0.00    +0.062 C 
BRANCH   2   8
ATOM      4  N   UNL     1       6.813   1.470  -1.825  0.00  0.00    -0.299 N 
ATOM      5  C   UNL     1       5.610   2.035  -1.598  0.00  0.00    +0.306 C 
ATOM      6  O   UNL     1       5.392   3.171  -1.972  0.00  0.00    -0.252 OA
ATOM      7  N   UNL     1       4.649   1.340  -0.958  0.00  0.00    -0.237 N 
ATOM      8  C   UNL     1       3.447   1.905  -0.731  0.00  0.00    +0.261 C 
ATOM      9  O   UNL     1       3.229   3.038  -1.104  0.00  0.00    -0.271 OA
ATOM     10  H   UNL     1       6.987   0.564  -1.527  0.00  0.00    +0.150 HD
ATOM     11  H   UNL     1       4.824   0.434  -0.659  0.00  0.00    +0.159 HD
BRANCH   4  13
ATOM     12  C   UNL     1       9.113   1.361  -2.648  0.00  0.00    +0.024 C 
ATOM     13  C   UNL     1       7.857   2.226  -2.522  0.00  0.00    +0.102 C 
ENDBRANCH   4  13
ENDBRANCH   2   8
ENDBRANCH   1   2
BRANCH   1  14
ATOM     14  C   UNL     1      -0.014   1.212   0.009  0.00  0.00    +0.348 C 
ATOM     15  O   UNL     1       0.002  -0.004   0.002  0.00  0.00    -0.244 OA
BRANCH  14  16
ATOM     16  C   UNL     1      -1.294   1.928   0.019  0.00  0.00    +0.116 A 
ATOM     17  C   UNL     1      -2.555   1.412   0.016  0.00  0.00    +0.070 A 
ATOM     18  C   UNL     1      -3.665   2.277   0.031  0.00  0.00    +0.008 A 
ATOM     19  C   UNL     1      -5.042   1.936   0.035  0.00  0.00    +0.012 A 
ATOM     20  C   UNL     1      -5.997   2.902   0.044  0.00  0.00    +0.021 A 
ATOM     21  C   UNL     1      -5.667   4.253   0.049  0.00  0.00    +0.042 A 
ATOM     22  C   UNL     1      -4.337   4.628   0.046  0.00  0.00    +0.035 A 
ATOM     23  C   UNL     1      -3.358   3.658   0.037  0.00  0.00    +0.023 A 
ATOM     24  S   UNL     1      -1.583   3.688   0.029  0.00  0.00    -0.080 S 
ATOM     25 CL   UNL     1      -6.916   5.458   0.061  0.00  0.00    -0.084 Cl
ATOM     26 CL   UNL     1      -2.791  -0.307   0.000  0.00  0.00    -0.082 Cl
ENDBRANCH  14  16
ENDBRANCH   1  14
TORSDOF 5
