REMARK  Name = ZINC15231015
REMARK  8 active torsions:
REMARK  status: ('A' for Active; 'I' for Inactive)
REMARK    1  A    between atoms: C_1  and  O_2
REMARK    2  A    between atoms: O_2  and  C_3
REMARK    3  A    between atoms: C_5  and  C_13
REMARK    4  A    between atoms: C_7  and  O_11
REMARK    5  A    between atoms: C_8  and  O_9
REMARK    6  A    between atoms: O_9  and  C_10
REMARK    7  A    between atoms: O_11  and  C_12
REMARK    8  A    between atoms: C_22  and  O_29
REMARK                            x       y       z     vdW  Elec       q    Type
REMARK                         _______ _______ _______ _____ _____    ______ ____
ROOT
ATOM      1  C   UNL     1       0.275   3.581   1.067  0.00  0.00    +0.062 C 
ATOM      2  C   UNL     1       0.760   2.913   2.327  0.00  0.00    +0.006 A 
ATOM      3  C   UNL     1       0.369   3.434   3.550  0.00  0.00    +0.057 A 
ATOM      4  C   UNL     1       0.791   2.846   4.729  0.00  0.00    +0.167 A 
ATOM      5  C   UNL     1       1.615   1.723   4.686  0.00  0.00    +0.170 A 
ATOM      6  C   UNL     1       2.006   1.205   3.464  0.00  0.00    +0.095 A 
ATOM      7  C   UNL     1       1.581   1.800   2.281  0.00  0.00    +0.132 A 
ATOM      8  O   UNL     1       2.001   1.257   1.096  0.00  0.00    -0.461 OA
ATOM      9  C   UNL     1       1.290   1.628  -0.088  0.00  0.00    +0.214 C 
ATOM     10  C   UNL     1       1.146   3.155  -0.120  0.00  0.00    +0.073 C 
ATOM     11  C   UNL     1       0.458   3.589  -1.403  0.00  0.00    +0.011 C 
ATOM     12  C   UNL     1       1.268   3.124  -2.613  0.00  0.00    +0.001 C 
ATOM     13  C   UNL     1       1.379   1.598  -2.589  0.00  0.00    +0.006 C 
ATOM     14  C   UNL     1       2.091   1.164  -1.307  0.00  0.00    +0.079 C 
ATOM     15  O   UNL     1       1.889   1.333   5.965  0.00  0.00    -0.452 OA
ATOM     16  C   UNL     1       1.563   2.467   6.791  0.00  0.00    +0.466 C 
ATOM     17  O   UNL     1       0.551   3.160   6.037  0.00  0.00    -0.453 OA
ENDROOT
BRANCH   1  20
ATOM     18  C   UNL     1      -2.967   1.639   1.116  0.00  0.00    +0.165 A 
ATOM     19  C   UNL     1      -1.653   2.011   1.352  0.00  0.00    +0.054 A 
ATOM     20  C   UNL     1      -1.155   3.180   0.807  0.00  0.00    -0.032 A 
ATOM     21  C   UNL     1      -1.966   3.984   0.029  0.00  0.00    +0.054 A 
ATOM     22  C   UNL     1      -3.280   3.616  -0.217  0.00  0.00    +0.165 A 
ATOM     23  C   UNL     1      -3.785   2.442   0.330  0.00  0.00    +0.204 A 
BRANCH  18  25
ATOM     24  C   UNL     1      -2.560  -0.286   2.452  0.00  0.00    +0.277 C 
ATOM     25  O   UNL     1      -3.457   0.489   1.654  0.00  0.00    -0.491 OA
ENDBRANCH  18  25
BRANCH  23  26
ATOM     26  O   UNL     1      -5.075   2.080   0.096  0.00  0.00    -0.488 OA
ATOM     27  C   UNL     1      -6.059   2.548   1.021  0.00  0.00    +0.277 C 
ENDBRANCH  23  26
BRANCH  22  28
ATOM     28  O   UNL     1      -4.076   4.406  -0.987  0.00  0.00    -0.491 OA
ATOM     29  C   UNL     1      -3.462   5.538  -1.606  0.00  0.00    +0.277 C 
ENDBRANCH  22  28
ENDBRANCH   1  20
BRANCH   9  30
ATOM     30  O   UNL     1      -0.001   1.017  -0.092  0.00  0.00    -0.355 OA
ATOM     31  H   UNL     1       0.021   0.051  -0.139  0.00  0.00    +0.214 HD
ENDBRANCH   9  30
TORSDOF 5
