REMARK  Name = ZINC01859410
REMARK  7 active torsions:
REMARK  status: ('A' for Active; 'I' for Inactive)
REMARK    1  A    between atoms: C_1  and  O_2
REMARK    2  A    between atoms: O_2  and  C_3
REMARK    3  A    between atoms: C_5  and  C_13
REMARK    4  A    between atoms: C_7  and  O_11
REMARK    5  A    between atoms: C_8  and  O_9
REMARK    6  A    between atoms: O_9  and  C_10
REMARK    7  A    between atoms: O_11  and  C_12
REMARK                            x       y       z     vdW  Elec       q    Type
REMARK                         _______ _______ _______ _____ _____    ______ ____
ROOT
ATOM      1  C   UNL     1      -2.444   1.556  -0.675  0.00  0.00    +0.064 C 
ATOM      2  C   UNL     1      -2.671   2.144  -2.037  0.00  0.00    -0.030 A 
ATOM      3  C   UNL     1      -3.754   1.632  -2.761  0.00  0.00    +0.054 A 
ATOM      4  C   UNL     1      -3.994   2.146  -4.024  0.00  0.00    +0.167 A 
ATOM      5  C   UNL     1      -3.171   3.150  -4.559  0.00  0.00    +0.167 A 
ATOM      6  C   UNL     1      -2.101   3.647  -3.835  0.00  0.00    +0.055 A 
ATOM      7  C   UNL     1      -1.869   3.123  -2.559  0.00  0.00    -0.014 A 
ATOM      8  C   UNL     1      -0.672   3.713  -1.825  0.00  0.00    +0.094 C 
ATOM      9  C   UNL     1      -0.761   3.469  -0.333  0.00  0.00    +0.072 C 
ATOM     10  C   UNL     1      -1.240   2.066   0.018  0.00  0.00    +0.118 C 
ATOM     11  C   UNL     1      -0.014   1.203   0.009  0.00  0.00    +0.312 C 
ATOM     12  O   UNL     1       0.002  -0.004   0.002  0.00  0.00    -0.250 OA
ATOM     13  O   UNL     1       1.073   2.005   0.003  0.00  0.00    -0.464 OA
ATOM     14  C   UNL     1       0.669   3.384   0.273  0.00  0.00    +0.239 C 
ATOM     15  S   UNL     1       0.796   2.947  -2.548  0.00  0.00    -0.138 S 
ATOM     16  C   UNL     1       2.216   3.996  -2.217  0.00  0.00    +0.071 C 
ATOM     17  C   UNL     1       1.983   5.445  -2.603  0.00  0.00    +0.021 C 
ATOM     18  C   UNL     1       0.944   6.087  -1.690  0.00  0.00    +0.071 C 
ATOM     19  S   UNL     1      -0.700   5.497  -2.158  0.00  0.00    -0.138 S 
ATOM     20  O   UNL     1      -3.619   3.468  -5.794  0.00  0.00    -0.453 OA
ATOM     21  C   UNL     1      -4.954   2.928  -5.875  0.00  0.00    +0.466 C 
ATOM     22  O   UNL     1      -4.954   1.842  -4.926  0.00  0.00    -0.453 OA
ENDROOT
BRANCH   1  25
ATOM     23  C   UNL     1      -5.492   1.101   1.513  0.00  0.00    +0.165 A 
ATOM     24  C   UNL     1      -4.385   0.825   0.725  0.00  0.00    +0.054 A 
ATOM     25  C   UNL     1      -3.646   1.860   0.182  0.00  0.00    -0.032 A 
ATOM     26  C   UNL     1      -4.004   3.172   0.427  0.00  0.00    +0.054 A 
ATOM     27  C   UNL     1      -5.112   3.456   1.210  0.00  0.00    +0.165 A 
ATOM     28  C   UNL     1      -5.858   2.419   1.757  0.00  0.00    +0.204 A 
BRANCH  23  30
ATOM     29  C   UNL     1      -5.785  -1.247   1.753  0.00  0.00    +0.277 C 
ATOM     30  O   UNL     1      -6.219   0.082   2.046  0.00  0.00    -0.491 OA
ENDBRANCH  23  30
BRANCH  28  31
ATOM     31  O   UNL     1      -6.944   2.694   2.530  0.00  0.00    -0.488 OA
ATOM     32  C   UNL     1      -6.722   2.838   3.934  0.00  0.00    +0.277 C 
ENDBRANCH  28  31
BRANCH  27  33
ATOM     33  O   UNL     1      -5.466   4.748   1.446  0.00  0.00    -0.491 OA
ATOM     34  C   UNL     1      -4.654   5.762   0.852  0.00  0.00    +0.277 C 
ENDBRANCH  27  33
ENDBRANCH   1  25
TORSDOF 4
