REMARK  Name = ZINC09455477
REMARK  5 active torsions:
REMARK  status: ('A' for Active; 'I' for Inactive)
REMARK    1  A    between atoms: C_3  and  N_9
REMARK    2  A    between atoms: N_9  and  C_10
REMARK    3  A    between atoms: C_10  and  C_11
REMARK    4  A    between atoms: N_13  and  C_14
REMARK    5  A    between atoms: C_14  and  C_19
REMARK                            x       y       z     vdW  Elec       q    Type
REMARK                         _______ _______ _______ _____ _____    ______ ____
ROOT
ATOM      1  C   UNL     1      -0.013   1.086   0.008  0.00  0.00    +0.197 C 
ENDROOT
BRANCH   1   2
ATOM      2  C   UNL     1      -0.742   1.585  -1.213  0.00  0.00    +0.231 C 
ATOM      3  O   UNL     1      -1.736   2.268  -1.088  0.00  0.00    -0.274 OA
ATOM      4  N   UNL     1      -0.288   1.272  -2.443  0.00  0.00    -0.296 N 
ATOM      5  H   UNL     1       0.507   0.726  -2.543  0.00  0.00    +0.150 HD
BRANCH   4   6
ATOM      6  C   UNL     1      -0.997   1.758  -3.630  0.00  0.00    +0.121 C 
ATOM      7  C   UNL     1      -2.424   1.174  -3.669  0.00  0.00    +0.041 C 
ATOM      8  C   UNL     1      -2.685   0.906  -5.172  0.00  0.00    +0.003 C 
ATOM      9  C   UNL     1      -1.308   0.404  -5.673  0.00  0.00    +0.003 C 
ATOM     10  C   UNL     1      -0.287   1.268  -4.904  0.00  0.00    +0.041 C 
BRANCH   6  11
ATOM     11  C   UNL     1      -1.053   3.228  -3.617  0.00  0.00    +0.088 C 
ATOM     12  N   UNL     1      -1.096   4.364  -3.607  0.00  0.00    -0.194 NA
ENDBRANCH   6  11
ENDBRANCH   4   6
ENDBRANCH   1   2
BRANCH   1  13
ATOM     13  N   UNL     1      -0.698   1.558   1.213  0.00  0.00    -0.334 N 
ATOM     14  H   UNL     1      -1.495   2.106   1.135  0.00  0.00    +0.147 HD
BRANCH  13  17
ATOM     15  C   UNL     1       1.423   0.105   3.840  0.00  0.00    +0.022 A 
ATOM     16  C   UNL     1       0.936   0.437   2.591  0.00  0.00    +0.026 A 
ATOM     17  C   UNL     1      -0.204   1.220   2.477  0.00  0.00    +0.046 A 
ATOM     18  C   UNL     1      -0.850   1.673   3.621  0.00  0.00    +0.063 A 
ATOM     19  C   UNL     1      -0.362   1.333   4.869  0.00  0.00    +0.041 A 
ATOM     20  C   UNL     1       0.776   0.552   4.978  0.00  0.00    +0.042 A 
ATOM     21 CL   UNL     1       1.391   0.133   6.546  0.00  0.00    -0.083 Cl
ATOM     22 CL   UNL     1      -2.273   2.658   3.484  0.00  0.00    -0.082 Cl
ENDBRANCH  13  17
ENDBRANCH   1  13
TORSDOF 5
