REMARK  Name = ZINC12037338
REMARK  11 active torsions:
REMARK  status: ('A' for Active; 'I' for Inactive)
REMARK    1  A    between atoms: C_1  and  C_2
REMARK    2  A    between atoms: C_2  and  C_3
REMARK    3  A    between atoms: C_3  and  C_18
REMARK    4  A    between atoms: N_6  and  C_10
REMARK    5  A    between atoms: C_10  and  C_11
REMARK    6  A    between atoms: C_11  and  C_12
REMARK    7  A    between atoms: C_13  and  C_17
REMARK    8  A    between atoms: C_23  and  C_24
REMARK    9  A    between atoms: C_23  and  N_64
REMARK   10  A    between atoms: C_24  and  C_31
REMARK   11  A    between atoms: C_25  and  C_26
REMARK                            x       y       z     vdW  Elec       q    Type
REMARK                         _______ _______ _______ _____ _____    ______ ____
ROOT
ATOM      1  C   UNL     1       1.649   3.276   0.513  0.00  0.00    +0.115 C 
ATOM      2  C   UNL     1       0.451   2.395   0.805  0.00  0.00    +0.247 C 
ATOM      3  O   UNL     1       0.458   1.208   1.053  0.00  0.00    -0.273 OA
ATOM      4  N   UNL     1      -0.625   3.203   0.726  0.00  0.00    -0.224 N 
ATOM      5  C   UNL     1      -0.275   4.462   0.436  0.00  0.00    +0.309 C 
ATOM      6  O   UNL     1      -1.071   5.373   0.316  0.00  0.00    -0.252 OA
ATOM      7  N   UNL     1       1.054   4.605   0.287  0.00  0.00    -0.285 N 
ATOM      8  H   UNL     1       1.528   5.424   0.073  0.00  0.00    +0.151 HD
ENDROOT
BRANCH   1   9
ATOM      9  C   UNL     1       2.380   2.794  -0.741  0.00  0.00    +0.018 C 
ATOM     10  C   UNL     1       3.571   3.712  -1.025  0.00  0.00    -0.013 C 
ATOM     11  C   UNL     1       4.261   3.262  -2.315  0.00  0.00    -0.078 C 
ATOM     12  C   UNL     1       2.175   2.401  -3.199  0.00  0.00    -0.078 C 
ATOM     13  C   UNL     1       1.422   2.827  -1.936  0.00  0.00    -0.013 C 
ATOM     14  N   UNL     1       3.293   3.340  -3.430  0.00  0.00    +0.382 N 
ATOM     15  H   UNL     1       2.921   4.296  -3.481  0.00  0.00    -0.081 HD
BRANCH  14  16
ATOM     16  C   UNL     1       3.966   3.019  -4.705  0.00  0.00    -0.048 C 
BRANCH  16  17
ATOM     17  C   UNL     1       5.253   3.797  -4.794  0.00  0.00    -0.086 C 
ATOM     18  C   UNL     1       6.400   3.229  -4.433  0.00  0.00    +0.043 C 
ATOM     19  C   UNL     1       5.241   5.219  -5.293  0.00  0.00    +0.037 C 
BRANCH  18  20
ATOM     20  C   UNL     1       7.633   4.029  -4.381  0.00  0.00    +0.128 A 
ATOM     21  C   UNL     1       8.886   3.553  -4.140  0.00  0.00    +0.049 A 
ATOM     22  C   UNL     1       9.756   4.660  -4.185  0.00  0.00    +0.042 A 
ATOM     23  C   UNL     1       9.001   5.747  -4.440  0.00  0.00    +0.195 A 
ATOM     24  O   UNL     1       7.719   5.362  -4.558  0.00  0.00    -0.464 OA
ENDBRANCH  18  20
ENDBRANCH  16  17
ENDBRANCH  14  16
ENDBRANCH   1   9
BRANCH   1  26
ATOM     25  C   UNL     1       1.860   3.841   2.938  0.00  0.00    +0.006 C 
ATOM     26  C   UNL     1       2.600   3.305   1.711  0.00  0.00    +0.032 C 
ENDBRANCH   1  26
BRANCH   4  27
ATOM     27  C   UNL     1      -2.005   2.760   0.934  0.00  0.00    +0.123 C 
BRANCH  27  28
ATOM     28  C   UNL     1      -2.368   2.900   2.414  0.00  0.00    +0.064 C 
BRANCH  28  29
ATOM     29  C   UNL     1      -3.788   2.443   2.628  0.00  0.00    +0.014 A 
ATOM     30  C   UNL     1      -4.266   1.208   2.927  0.00  0.00    +0.049 A 
ATOM     31  N   UNL     1      -5.567   1.058   3.067  0.00  0.00    -0.252 NA
ATOM     32  C   UNL     1      -6.392   2.069   2.925  0.00  0.00    +0.156 A 
ATOM     33  S   UNL     1      -5.309   3.378   2.568  0.00  0.00    -0.080 S 
ATOM     34  C   UNL     1      -3.331   0.038   3.094  0.00  0.00    +0.066 C 
ENDBRANCH  28  29
ENDBRANCH  27  28
ENDBRANCH   4  27
TORSDOF 8
