REMARK  Name = ZINC08009449
REMARK  5 active torsions:
REMARK  status: ('A' for Active; 'I' for Inactive)
REMARK    1  A    between atoms: C_6  and  C_7
REMARK    2  A    between atoms: C_10  and  C_12
REMARK    3  A    between atoms: N_14  and  N_15
REMARK    4  A    between atoms: C_16  and  C_18
REMARK    5  A    between atoms: C_18  and  C_19
REMARK                            x       y       z     vdW  Elec       q    Type
REMARK                         _______ _______ _______ _____ _____    ______ ____
ROOT
ATOM      1  C   UNL     1      -5.231  -1.984   0.038  0.00  0.00    +0.267 C 
ATOM      2  O   UNL     1      -5.637  -3.132   0.040  0.00  0.00    -0.268 OA
ATOM      3  N   UNL     1      -6.106  -0.960   0.045  0.00  0.00    -0.230 N 
ATOM      4  H   UNL     1      -5.783  -0.045   0.044  0.00  0.00    +0.173 HD
ENDROOT
BRANCH   1   8
ATOM      5  C   UNL     1      -1.266  -0.763   0.011  0.00  0.00    +0.020 A 
ATOM      6  C   UNL     1      -1.459  -2.135   0.011  0.00  0.00    +0.017 A 
ATOM      7  C   UNL     1      -2.737  -2.619   0.020  0.00  0.00    +0.021 A 
ATOM      8  C   UNL     1      -3.791  -1.717   0.028  0.00  0.00    +0.076 A 
ATOM      9  S   UNL     1      -2.941  -0.147   0.031  0.00  0.00    -0.084 S 
BRANCH   5  15
ATOM     10  C   UNL     1      -0.017   1.392   0.010  0.00  0.00    +0.012 A 
ATOM     11  C   UNL     1       1.169   2.095   0.002  0.00  0.00    +0.039 A 
ATOM     12  C   UNL     1       2.379   1.419  -0.013  0.00  0.00    +0.123 A 
ATOM     13  C   UNL     1       2.404   0.033  -0.021  0.00  0.00    +0.039 A 
ATOM     14  C   UNL     1       1.223  -0.680  -0.014  0.00  0.00    +0.012 A 
ATOM     15  C   UNL     1       0.002  -0.004   0.002  0.00  0.00    -0.011 A 
ATOM     16  F   UNL     1       3.538   2.112  -0.021  0.00  0.00    -0.205 F 
ENDBRANCH   5  15
ENDBRANCH   1   8
BRANCH   3  17
ATOM     17  N   UNL     1      -7.484  -1.215   0.055  0.00  0.00    -0.234 N 
ATOM     18  C   UNL     1      -8.359  -0.191   0.062  0.00  0.00    +0.229 C 
ATOM     19  O   UNL     1      -7.955   0.953   0.060  0.00  0.00    -0.274 OA
ATOM     20  H   UNL     1      -7.807  -2.130   0.057  0.00  0.00    +0.173 HD
BRANCH  18  21
ATOM     21  C   UNL     1      -9.841  -0.466   0.073  0.00  0.00    +0.101 C 
BRANCH  21  22
ATOM     22  C   UNL     1     -10.606   0.860   0.079  0.00  0.00    +0.001 C 
ATOM     23  C   UNL     1     -10.396   1.596   1.422  0.00  0.00    +0.007 C 
ATOM     24  C   UNL     1     -11.825   1.713   2.035  0.00  0.00    -0.010 C 
ATOM     25  C   UNL     1     -12.548   2.765   1.140  0.00  0.00    +0.004 C 
ATOM     26  C   UNL     1     -12.761   2.047  -0.212  0.00  0.00    +0.004 C 
ATOM     27  C   UNL     1     -12.142   0.601   0.004  0.00  0.00    -0.007 C 
ATOM     28  C   UNL     1     -12.469   0.376   1.526  0.00  0.00    +0.007 C 
ENDBRANCH  21  22
ENDBRANCH  18  21
ENDBRANCH   3  17
TORSDOF 5
