REMARK  Name = ZINC22977467
REMARK  12 active torsions:
REMARK  status: ('A' for Active; 'I' for Inactive)
REMARK    1  A    between atoms: C_1  and  O_2
REMARK    2  A    between atoms: O_2  and  C_3
REMARK    3  A    between atoms: C_3  and  C_5
REMARK    4  A    between atoms: C_6  and  C_22
REMARK    5  A    between atoms: N_7  and  C_19
REMARK    6  A    between atoms: C_11  and  C_13
REMARK    7  A    between atoms: C_22  and  S_23
REMARK    8  A    between atoms: S_23  and  C_24
REMARK    9  A    between atoms: C_27  and  C_34
REMARK   10  A    between atoms: N_28  and  C_29
REMARK   11  A    between atoms: C_29  and  C_30
REMARK   12  A    between atoms: C_30  and  C_31
REMARK                            x       y       z     vdW  Elec       q    Type
REMARK                         _______ _______ _______ _____ _____    ______ ____
ROOT
ATOM      1  C   UNL     1      -1.579   2.494  -1.336  0.00  0.00    +0.079 C 
ATOM      2  C   UNL     1      -2.157   3.700  -1.526  0.00  0.00    +0.037 C 
ATOM      3  N   UNL     1      -2.121   4.659  -0.554  0.00  0.00    -0.255 N 
ATOM      4  C   UNL     1      -1.527   4.490   0.634  0.00  0.00    +0.307 C 
ATOM      5  O   UNL     1      -1.547   5.404   1.436  0.00  0.00    -0.252 OA
ATOM      6  N   UNL     1      -0.908   3.341   0.970  0.00  0.00    -0.288 N 
ATOM      7  C   UNL     1      -0.891   2.242  -0.010  0.00  0.00    +0.144 C 
ATOM      8  H   UNL     1      -0.423   3.213   1.949  0.00  0.00    +0.151 HD
ENDROOT
BRANCH   7   9
ATOM      9  C   UNL     1       0.548   1.894  -0.293  0.00  0.00    -0.023 A 
ATOM     10  C   UNL     1       1.461   2.896  -0.565  0.00  0.00    +0.006 A 
ATOM     11  C   UNL     1       2.779   2.576  -0.832  0.00  0.00    +0.000 A 
ATOM     12  C   UNL     1       3.185   1.255  -0.823  0.00  0.00    +0.000 A 
ATOM     13  C   UNL     1       2.273   0.253  -0.549  0.00  0.00    +0.000 A 
ATOM     14  C   UNL     1       0.954   0.573  -0.285  0.00  0.00    +0.006 A 
ENDBRANCH   7   9
BRANCH   3  15
ATOM     15  C   UNL     1      -2.768   5.945  -0.828  0.00  0.00    +0.083 C 
ATOM     16  C   UNL     1      -3.713   6.501   0.238  0.00  0.00    +0.025 C 
ATOM     17  C   UNL     1      -4.279   5.938  -1.068  0.00  0.00    +0.025 C 
ENDBRANCH   3  15
BRANCH   1  18
ATOM     18  C   UNL     1      -1.616   1.499  -2.342  0.00  0.00    +0.339 C 
ATOM     19  O   UNL     1      -2.060   1.764  -3.443  0.00  0.00    -0.245 OA
BRANCH  18  21
ATOM     20  C   UNL     1      -1.225  -0.697  -3.141  0.00  0.00    +0.280 C 
ATOM     21  O   UNL     1      -1.158   0.257  -2.079  0.00  0.00    -0.465 OA
ENDBRANCH  18  21
ENDBRANCH   1  18
BRANCH   2  22
ATOM     22  C   UNL     1      -2.853   3.991  -2.830  0.00  0.00    +0.129 C 
BRANCH  22  23
ATOM     23  S   UNL     1      -1.683   4.756  -3.981  0.00  0.00    -0.080 S 
BRANCH  23  24
ATOM     24  C   UNL     1      -2.733   4.982  -5.378  0.00  0.00    +0.192 A 
ATOM     25  N   UNL     1      -3.999   4.648  -5.465  0.00  0.00    -0.122 NA
ATOM     26  N   UNL     1      -4.454   4.960  -6.626  0.00  0.00    -0.133 NA
ATOM     27  C   UNL     1      -3.511   5.499  -7.346  0.00  0.00    +0.137 A 
ATOM     28  N   UNL     1      -2.380   5.532  -6.577  0.00  0.00    -0.305 N 
BRANCH  27  29
ATOM     29  C   UNL     1      -3.641   5.993  -8.764  0.00  0.00    +0.057 C 
ATOM     30  C   UNL     1      -5.046   6.047  -9.367  0.00  0.00    +0.012 C 
ATOM     31  C   UNL     1      -4.054   4.978  -9.831  0.00  0.00    +0.012 C 
ENDBRANCH  27  29
BRANCH  28  32
ATOM     32  C   UNL     1      -1.065   6.051  -6.960  0.00  0.00    +0.135 C 
BRANCH  32  33
ATOM     33  C   UNL     1      -0.235   4.926  -7.582  0.00  0.00    +0.117 C 
BRANCH  33  34
ATOM     34  C   UNL     1       1.119   5.459  -7.976  0.00  0.00    +0.212 C 
ATOM     35  O   UNL     1       1.392   6.624  -7.779  0.00  0.00    -0.276 OA
ATOM     36  N   UNL     1       2.025   4.642  -8.548  0.00  0.00    -0.329 N 
ATOM     37  H   UNL     1       3.012   5.031  -8.836  0.00  0.00    +0.145 HD
ATOM     38  H   UNL     1       1.776   3.585  -8.727  0.00  0.00    +0.145 HD
ENDBRANCH  33  34
ENDBRANCH  32  33
ENDBRANCH  28  32
ENDBRANCH  23  24
ENDBRANCH  22  23
ENDBRANCH   2  22
TORSDOF 11
