REMARK  Name = ZINC03148216
REMARK  6 active torsions:
REMARK  status: ('A' for Active; 'I' for Inactive)
REMARK    1  A    between atoms: C_1  and  C_2
REMARK    2  A    between atoms: C_2  and  C_4
REMARK    3  A    between atoms: C_2  and  N_16
REMARK    4  A    between atoms: N_6  and  N_7
REMARK    5  A    between atoms: C_8  and  C_9
REMARK    6  A    between atoms: C_17  and  C_19
REMARK                            x       y       z     vdW  Elec       q    Type
REMARK                         _______ _______ _______ _____ _____    ______ ____
ROOT
ATOM      1  C   UNL     1       7.202   0.174   0.536  0.00  0.00    +0.252 C 
ATOM      2  O   UNL     1       6.923   1.286   0.934  0.00  0.00    -0.272 OA
ATOM      3  N   UNL     1       8.470  -0.275   0.626  0.00  0.00    -0.205 N 
ATOM      4  H   UNL     1       8.693  -1.164   0.308  0.00  0.00    +0.177 HD
ENDROOT
BRANCH   1   6
ATOM      5  C   UNL     1       6.503  -1.054  -1.502  0.00  0.00    +0.038 C 
ATOM      6  C   UNL     1       6.132  -0.704  -0.059  0.00  0.00    +0.158 C 
BRANCH   6   7
ATOM      7  N   UNL     1       4.852   0.008  -0.044  0.00  0.00    -0.300 N 
ATOM      8  C   UNL     1       3.696  -0.685  -0.036  0.00  0.00    +0.245 C 
ATOM      9  O   UNL     1       3.715  -1.900  -0.043  0.00  0.00    -0.270 OA
ATOM     10  H   UNL     1       4.836   0.978  -0.039  0.00  0.00    +0.150 HD
BRANCH   8  11
ATOM     11  C   UNL     1       2.403   0.034  -0.021  0.00  0.00    +0.037 A 
ATOM     12  C   UNL     1       1.204  -0.681  -0.013  0.00  0.00    +0.013 A 
ATOM     13  C   UNL     1       0.002  -0.004   0.002  0.00  0.00    +0.001 A 
ATOM     14  C   UNL     1      -0.017   1.379   0.010  0.00  0.00    +0.000 A 
ATOM     15  C   UNL     1       1.168   2.094   0.002  0.00  0.00    +0.001 A 
ATOM     16  C   UNL     1       2.377   1.429  -0.013  0.00  0.00    +0.013 A 
ENDBRANCH   8  11
ENDBRANCH   6   7
ENDBRANCH   1   6
BRANCH   3  17
ATOM     17  N   UNL     1       9.465   0.541   1.179  0.00  0.00    -0.188 NA
ATOM     18  C   UNL     1      10.685   0.109   1.266  0.00  0.00    +0.138 C 
BRANCH  18  19
ATOM     19  C   UNL     1      11.733   0.968   1.848  0.00  0.00    -0.005 A 
ATOM     20  C   UNL     1      11.416   2.251   2.301  0.00  0.00    +0.010 A 
ATOM     21  C   UNL     1      12.399   3.048   2.849  0.00  0.00    +0.016 A 
ATOM     22  C   UNL     1      13.700   2.583   2.940  0.00  0.00    +0.018 A 
ATOM     23  C   UNL     1      14.022   1.315   2.487  0.00  0.00    +0.016 A 
ATOM     24  C   UNL     1      13.047   0.506   1.942  0.00  0.00    +0.010 A 
ATOM     25 BR   UNL     1      15.043   3.686   3.686  0.00  0.00    -0.050 Br
ENDBRANCH  18  19
ENDBRANCH   3  17
TORSDOF 5
