REMARK  Name = ZINC40687711
REMARK  6 active torsions:
REMARK  status: ('A' for Active; 'I' for Inactive)
REMARK    1  A    between atoms: C_1  and  C_2
REMARK    2  A    between atoms: C_2  and  C_3
REMARK    3  A    between atoms: C_6  and  N_9
REMARK    4  A    between atoms: C_11  and  N_27
REMARK    5  A    between atoms: C_12  and  O_16
REMARK    6  A    between atoms: O_16  and  C_17
REMARK                            x       y       z     vdW  Elec       q    Type
REMARK                         _______ _______ _______ _____ _____    ______ ____
ROOT
ATOM      1  N   UNL     1       2.661  -1.809  -4.667  0.00  0.00    -0.298 N 
ATOM      2  C   UNL     1       4.046  -1.928  -4.678  0.00  0.00    +0.151 A 
ATOM      3  C   UNL     1       4.718  -2.285  -5.850  0.00  0.00    +0.128 A 
ATOM      4  C   UNL     1       6.107  -2.390  -5.807  0.00  0.00    +0.246 A 
ATOM      5  N   UNL     1       6.736  -2.147  -4.660  0.00  0.00    -0.199 NA
ATOM      6  C   UNL     1       6.066  -1.813  -3.577  0.00  0.00    +0.227 A 
ATOM      7  N   UNL     1       4.753  -1.698  -3.575  0.00  0.00    -0.218 NA
ATOM      8  H   UNL     1       2.146  -2.063  -5.448  0.00  0.00    +0.154 HD
ENDROOT
BRANCH   1  12
ATOM      9  C   UNL     1       0.723  -0.358  -1.278  0.00  0.00    -0.048 A 
ATOM     10  C   UNL     1       2.032   0.009  -1.534  0.00  0.00    +0.005 A 
ATOM     11  C   UNL     1       2.677  -0.471  -2.657  0.00  0.00    +0.023 A 
ATOM     12  C   UNL     1       2.011  -1.322  -3.529  0.00  0.00    +0.032 A 
ATOM     13  C   UNL     1       0.696  -1.688  -3.269  0.00  0.00    +0.023 A 
ATOM     14  C   UNL     1       0.058  -1.210  -2.141  0.00  0.00    +0.005 A 
BRANCH   9  16
ATOM     15  C   UNL     1       0.257  -0.790   1.119  0.00  0.00    +0.009 C 
ATOM     16  C   UNL     1       0.022   0.167  -0.051  0.00  0.00    +0.032 C 
ENDBRANCH   9  16
ENDBRANCH   1  12
BRANCH   3  17
ATOM     17  N   UNL     1       4.013  -2.532  -7.038  0.00  0.00    -0.351 N 
ATOM     18  H   UNL     1       3.046  -2.456  -7.054  0.00  0.00    +0.143 HD
ATOM     19  H   UNL     1       4.493  -2.780  -7.844  0.00  0.00    +0.143 HD
ENDBRANCH   3  17
BRANCH   4  20
ATOM     20  O   UNL     1       6.807  -2.734  -6.917  0.00  0.00    -0.436 OA
BRANCH  20  21
ATOM     21  C   UNL     1       8.146  -2.924  -6.793  0.00  0.00    +0.131 A 
ATOM     22  C   UNL     1       8.624  -3.989  -6.022  0.00  0.00    +0.047 A 
ATOM     23  C   UNL     1       9.959  -4.205  -5.879  0.00  0.00    +0.012 A 
ATOM     24  C   UNL     1      10.876  -3.349  -6.514  0.00  0.00    -0.018 A 
ATOM     25  C   UNL     1      12.262  -3.544  -6.388  0.00  0.00    +0.008 A 
ATOM     26  C   UNL     1      13.121  -2.696  -7.017  0.00  0.00    +0.001 A 
ATOM     27  C   UNL     1      12.648  -1.634  -7.786  0.00  0.00    +0.001 A 
ATOM     28  C   UNL     1      11.312  -1.415  -7.931  0.00  0.00    +0.008 A 
ATOM     29  C   UNL     1      10.394  -2.269  -7.296  0.00  0.00    -0.014 A 
ATOM     30  C   UNL     1       9.009  -2.077  -7.428  0.00  0.00    +0.054 A 
ENDBRANCH  20  21
ENDBRANCH   4  20
TORSDOF 5
