REMARK  Name = ZINC38994809
REMARK  8 active torsions:
REMARK  status: ('A' for Active; 'I' for Inactive)
REMARK    1  A    between atoms: C_1  and  C_2
REMARK    2  A    between atoms: C_5  and  C_29
REMARK    3  A    between atoms: N_8  and  C_10
REMARK    4  A    between atoms: C_10  and  C_11
REMARK    5  A    between atoms: N_13  and  C_14
REMARK    6  A    between atoms: C_18  and  C_20
REMARK    7  A    between atoms: C_20  and  O_22
REMARK    8  A    between atoms: O_22  and  C_23
REMARK                            x       y       z     vdW  Elec       q    Type
REMARK                         _______ _______ _______ _____ _____    ______ ____
ROOT
ATOM      1  C   UNL     1       6.048  -1.674   2.819  0.00  0.00    +0.054 C 
ATOM      2  C   UNL     1       7.407  -1.885   2.966  0.00  0.00    +0.036 A 
ATOM      3  C   UNL     1       8.103  -1.329   1.792  0.00  0.00    +0.046 A 
ATOM      4  N   UNL     1       7.236  -0.799   0.953  0.00  0.00    -0.367 N 
ATOM      5  C   UNL     1       5.883  -0.962   1.495  0.00  0.00    +0.234 C 
ATOM      6  C   UNL     1       9.516  -1.439   1.737  0.00  0.00    +0.026 A 
ATOM      7  C   UNL     1      10.186  -2.042   2.750  0.00  0.00    +0.003 A 
ATOM      8  C   UNL     1       9.525  -2.568   3.862  0.00  0.00    +0.021 A 
ATOM      9  C   UNL     1       8.175  -2.501   3.985  0.00  0.00    +0.052 A 
ATOM     10 CL   UNL     1       7.392  -3.166   5.385  0.00  0.00    -0.083 Cl
ATOM     11  H   UNL     1       7.457  -0.373   0.110  0.00  0.00    +0.161 HD
ENDROOT
BRANCH   1  14
ATOM     12  C   UNL     1       3.771  -1.969   3.304  0.00  0.00    +0.200 C 
ATOM     13  O   UNL     1       3.485  -1.544   2.205  0.00  0.00    -0.278 OA
ATOM     14  N   UNL     1       5.061  -2.038   3.686  0.00  0.00    -0.288 N 
ATOM     15  H   UNL     1       5.288  -2.346   4.577  0.00  0.00    +0.155 HD
BRANCH  12  16
ATOM     16  C   UNL     1       2.682  -2.420   4.244  0.00  0.00    +0.019 C 
BRANCH  16  22
ATOM     17  C   UNL     1      -0.170   1.354   2.982  0.00  0.00    +0.005 C 
ATOM     18  C   UNL     1      -0.061  -0.172   3.016  0.00  0.00    -0.031 C 
ATOM     19  C   UNL     1      -1.217  -0.749   3.838  0.00  0.00    +0.003 C 
ATOM     20  C   UNL     1      -1.055  -2.269   3.932  0.00  0.00    -0.031 C 
ATOM     21  C   UNL     1       0.310  -2.594   4.542  0.00  0.00    -0.075 C 
ATOM     22  N   UNL     1       1.373  -2.039   3.696  0.00  0.00    +0.386 N 
ATOM     23  C   UNL     1       1.268  -0.575   3.659  0.00  0.00    -0.075 C 
ATOM     24  C   UNL     1      -1.148  -2.880   2.532  0.00  0.00    +0.005 C 
ATOM     25  H   UNL     1       1.283  -2.405   2.760  0.00  0.00    -0.081 HD
ENDBRANCH  16  22
ENDBRANCH  12  16
ENDBRANCH   1  14
BRANCH   5  26
ATOM     26  C   UNL     1       5.246   0.387   1.707  0.00  0.00    +0.335 C 
ATOM     27  O   UNL     1       5.902   1.302   2.148  0.00  0.00    -0.248 OA
BRANCH  26  28
ATOM     28  O   UNL     1       3.951   0.573   1.406  0.00  0.00    -0.466 OA
ATOM     29  C   UNL     1       3.445   1.905   1.512  0.00  0.00    +0.280 C 
ENDBRANCH  26  28
ENDBRANCH   5  26
TORSDOF 5
