REMARK  Name = ZINC58848943
REMARK  8 active torsions:
REMARK  status: ('A' for Active; 'I' for Inactive)
REMARK    1  A    between atoms: C_1  and  O_2
REMARK    2  A    between atoms: O_2  and  C_3
REMARK    3  A    between atoms: C_7  and  C_9
REMARK    4  A    between atoms: C_20  and  S_25
REMARK    5  A    between atoms: S_25  and  N_28
REMARK    6  A    between atoms: N_28  and  C_29
REMARK    7  A    between atoms: C_34  and  O_35
REMARK    8  A    between atoms: O_35  and  C_36
REMARK                            x       y       z     vdW  Elec       q    Type
REMARK                         _______ _______ _______ _____ _____    ______ ____
ROOT
ATOM      1  C   UNL     1      -3.009  -3.900   0.099  0.00  0.00    +0.105 C 
ATOM      2  C   UNL     1      -3.197  -4.358  -1.317  0.00  0.00    +0.029 C 
ATOM      3  C   UNL     1      -4.286  -3.551  -2.053  0.00  0.00    +0.033 C 
ATOM      4  C   UNL     1      -4.814  -4.520  -3.091  0.00  0.00    -0.030 C 
ATOM      5  C   UNL     1      -4.483  -5.749  -2.793  0.00  0.00    -0.023 C 
ATOM      6  C   UNL     1      -3.712  -5.784  -1.496  0.00  0.00    +0.049 C 
ATOM      7  C   UNL     1      -4.655  -6.214  -0.407  0.00  0.00    -0.018 A 
ATOM      8  C   UNL     1      -5.420  -7.353  -0.611  0.00  0.00    +0.034 A 
ATOM      9  C   UNL     1      -6.308  -7.781   0.355  0.00  0.00    +0.109 A 
ATOM     10  C   UNL     1      -6.443  -7.075   1.536  0.00  0.00    +0.030 A 
ATOM     11  C   UNL     1      -5.683  -5.943   1.749  0.00  0.00    +0.025 A 
ATOM     12  C   UNL     1      -4.783  -5.513   0.778  0.00  0.00    +0.031 A 
ATOM     13  N   UNL     1      -3.996  -4.405   1.030  0.00  0.00    -0.336 N 
ATOM     14  H   UNL     1      -4.136  -3.929   1.863  0.00  0.00    +0.147 HD
ENDROOT
BRANCH   1  19
ATOM     15  C   UNL     1      -1.927  -0.280   0.143  0.00  0.00    +0.120 A 
ATOM     16  C   UNL     1      -3.151   0.372   0.168  0.00  0.00    +0.045 A 
ATOM     17  C   UNL     1      -4.323  -0.360   0.171  0.00  0.00    +0.004 A 
ATOM     18  C   UNL     1      -4.275  -1.742   0.148  0.00  0.00    +0.006 A 
ATOM     19  C   UNL     1      -3.057  -2.394   0.123  0.00  0.00    -0.024 A 
ATOM     20  C   UNL     1      -1.882  -1.666   0.115  0.00  0.00    +0.051 A 
BRANCH  15  22
ATOM     21  C   UNL     1      -0.895   1.862   0.170  0.00  0.00    +0.277 C 
ATOM     22  O   UNL     1      -0.773   0.438   0.140  0.00  0.00    -0.495 OA
ENDBRANCH  15  22
ENDBRANCH   1  19
BRANCH   9  23
ATOM     23  S   UNL     1      -7.273  -9.230   0.082  0.00  0.00    +0.072 S 
ATOM     24  O   UNL     1      -8.423  -9.114   0.907  0.00  0.00    -0.150 OA
ATOM     25  O   UNL     1      -7.359  -9.402  -1.326  0.00  0.00    -0.150 OA
BRANCH  23  26
ATOM     26  N   UNL     1      -6.402 -10.514   0.662  0.00  0.00    -0.213 N 
ATOM     27  H   UNL     1      -6.139 -11.232   0.064  0.00  0.00    +0.174 HD
BRANCH  26  28
ATOM     28  C   UNL     1      -6.046 -10.565   2.015  0.00  0.00    +0.090 A 
ATOM     29  C   UNL     1      -6.912 -10.073   2.980  0.00  0.00    +0.028 A 
ATOM     30  C   UNL     1      -6.559 -10.124   4.316  0.00  0.00    +0.002 A 
ATOM     31  C   UNL     1      -5.343 -10.664   4.692  0.00  0.00    +0.004 A 
ATOM     32  C   UNL     1      -4.475 -11.156   3.735  0.00  0.00    +0.047 A 
ATOM     33  C   UNL     1      -4.824 -11.114   2.395  0.00  0.00    +0.142 A 
BRANCH  33  34
ATOM     34  O   UNL     1      -3.973 -11.602   1.453  0.00  0.00    -0.493 OA
ATOM     35  C   UNL     1      -2.737 -12.150   1.917  0.00  0.00    +0.277 C 
ENDBRANCH  33  34
ENDBRANCH  26  28
ENDBRANCH  23  26
ENDBRANCH   9  23
TORSDOF 6
