REMARK  Name = ZINC05501056
REMARK  7 active torsions:
REMARK  status: ('A' for Active; 'I' for Inactive)
REMARK    1  A    between atoms: C_1  and  O_2
REMARK    2  A    between atoms: O_2  and  C_3
REMARK    3  A    between atoms: C_3  and  O_25
REMARK    4  A    between atoms: C_4  and  C_23
REMARK    5  A    between atoms: C_10  and  C_17
REMARK    6  A    between atoms: C_12  and  C_15
REMARK    7  A    between atoms: O_25  and  C_26
REMARK                            x       y       z     vdW  Elec       q    Type
REMARK                         _______ _______ _______ _____ _____    ______ ____
ROOT
ATOM      1  C   UNL     1      -0.026   5.210  -0.999  0.00  0.00    +0.277 C 
ATOM      2  C   UNL     1      -0.499   3.930  -0.302  0.00  0.00    +0.181 C 
ATOM      3  C   UNL     1      -1.884   3.443  -0.571  0.00  0.00    -0.025 C 
ATOM      4  C   UNL     1      -2.109   2.135  -0.734  0.00  0.00    -0.011 C 
ATOM      5  C   UNL     1      -3.576   1.884  -0.969  0.00  0.00    +0.049 C 
ATOM      6  C   UNL     1      -4.287   3.185  -0.532  0.00  0.00    +0.010 C 
ATOM      7  C   UNL     1      -3.158   4.229  -0.698  0.00  0.00    +0.034 C 
ATOM      8  C   UNL     1       0.296   1.586  -0.448  0.00  0.00    +0.113 C 
ATOM      9  C   UNL     1       0.419   2.940  -1.088  0.00  0.00    +0.160 C 
ATOM     10  C   UNL     1       1.701   3.682  -1.157  0.00  0.00    +0.094 C 
ATOM     11  N   UNL     1       2.949   3.122  -1.240  0.00  0.00    -0.347 N 
ATOM     12  H   UNL     1       3.047   2.157  -1.259  0.00  0.00    +0.143 HD
ATOM     13  H   UNL     1       3.734   3.690  -1.281  0.00  0.00    +0.143 HD
ATOM     14  N   UNL     1      -1.124   1.094  -0.686  0.00  0.00    -0.401 NA
ATOM     15  H   UNL     1      -1.145   0.591  -1.581  0.00  0.00    +0.124 HD
ATOM     16  H   UNL     1      -1.375   0.451   0.074  0.00  0.00    +0.124 HD
ATOM     17  N   UNL     1       1.445   4.974  -1.126  0.00  0.00    -0.324 N 
ATOM     18  H   UNL     1       2.155   5.714  -1.181  0.00  0.00    +0.166 HD
ENDROOT
BRANCH   8  19
ATOM     19  C   UNL     1       1.250   0.616  -1.096  0.00  0.00    -0.027 A 
ATOM     20  C   UNL     1       0.955   0.080  -2.336  0.00  0.00    +0.005 A 
ATOM     21  C   UNL     1       1.833  -0.806  -2.932  0.00  0.00    +0.000 A 
ATOM     22  C   UNL     1       2.999  -1.165  -2.284  0.00  0.00    +0.000 A 
ATOM     23  C   UNL     1       3.292  -0.634  -1.042  0.00  0.00    +0.000 A 
ATOM     24  C   UNL     1       2.417   0.257  -0.448  0.00  0.00    +0.005 A 
ENDBRANCH   8  19
BRANCH   1  26
ATOM     25  C   UNL     1      -1.674   6.636  -0.002  0.00  0.00    +0.199 C 
ATOM     26  O   UNL     1      -0.285   6.358  -0.188  0.00  0.00    -0.334 OA
ENDBRANCH   1  26
BRANCH   9  27
ATOM     27  C   UNL     1      -0.129   2.851  -2.452  0.00  0.00    +0.081 C 
ATOM     28  N   UNL     1      -0.551   2.783  -3.504  0.00  0.00    -0.195 NA
ENDBRANCH   9  27
BRANCH   2  29
ATOM     29  C   UNL     1      -0.186   3.950   1.136  0.00  0.00    +0.083 C 
ATOM     30  N   UNL     1       0.056   3.965   2.246  0.00  0.00    -0.195 NA
ENDBRANCH   2  29
BRANCH   1  31
ATOM     31  O   UNL     1      -0.634   5.347  -2.284  0.00  0.00    -0.334 OA
ATOM     32  C   UNL     1      -0.157   6.465  -3.036  0.00  0.00    +0.199 C 
ENDBRANCH   1  31
TORSDOF 5
