REMARK  Name = ZINC02185613
REMARK  6 active torsions:
REMARK  status: ('A' for Active; 'I' for Inactive)
REMARK    1  A    between atoms: C_1  and  C_2
REMARK    2  A    between atoms: C_3  and  C_32
REMARK    3  A    between atoms: C_4  and  C_22
REMARK    4  A    between atoms: C_10  and  C_15
REMARK    5  A    between atoms: C_32  and  O_34
REMARK    6  A    between atoms: O_34  and  C_35
REMARK                            x       y       z     vdW  Elec       q    Type
REMARK                         _______ _______ _______ _____ _____    ______ ____
ROOT
ATOM      1  C   UNL     1       1.801   7.288   2.287  0.00  0.00    +0.061 C 
ATOM      2  C   UNL     1       2.033   6.466   1.046  0.00  0.00    +0.016 C 
ATOM      3  C   UNL     1       2.705   5.304   1.130  0.00  0.00    +0.065 C 
ATOM      4  C   UNL     1       2.947   4.455  -0.083  0.00  0.00    +0.093 C 
ATOM      5  C   UNL     1       2.747   5.248  -1.349  0.00  0.00    +0.024 C 
ATOM      6  C   UNL     1       2.074   6.418  -1.331  0.00  0.00    +0.016 C 
ATOM      7  N   UNL     1       1.560   6.905  -0.159  0.00  0.00    -0.321 N 
ATOM      8  C   UNL     1       1.876   7.220  -2.593  0.00  0.00    +0.059 C 
ATOM      9  C   UNL     1       1.805   6.278  -3.796  0.00  0.00    +0.032 C 
ATOM     10  C   UNL     1       3.102   5.463  -3.851  0.00  0.00    +0.088 C 
ATOM     11  C   UNL     1       3.279   4.736  -2.546  0.00  0.00    +0.162 C 
ATOM     12  O   UNL     1       3.891   3.687  -2.525  0.00  0.00    -0.292 OA
ATOM     13  H   UNL     1       0.758   7.658  -0.194  0.00  0.00    +0.152 HD
ENDROOT
BRANCH   4  14
ATOM     14  C   UNL     1       1.989   3.292  -0.071  0.00  0.00    -0.027 A 
ATOM     15  C   UNL     1       0.645   3.512  -0.088  0.00  0.00    +0.005 A 
ATOM     16  C   UNL     1      -0.256   2.450  -0.079  0.00  0.00    +0.001 A 
ATOM     17  C   UNL     1       0.180   1.160  -0.057  0.00  0.00    +0.008 A 
ATOM     18  C   UNL     1       1.560   0.894  -0.034  0.00  0.00    -0.018 A 
ATOM     19  C   UNL     1       2.477   1.975  -0.044  0.00  0.00    -0.014 A 
ATOM     20  C   UNL     1       3.857   1.708  -0.026  0.00  0.00    +0.009 A 
ATOM     21  C   UNL     1       4.293   0.419  -0.000  0.00  0.00    +0.001 A 
ATOM     22  C   UNL     1       3.391  -0.644   0.009  0.00  0.00    +0.001 A 
ATOM     23  C   UNL     1       2.048  -0.424  -0.007  0.00  0.00    +0.008 A 
ENDBRANCH   4  14
BRANCH   9  24
ATOM     24  C   UNL     1       1.658   7.082  -5.062  0.00  0.00    -0.043 A 
ATOM     25  C   UNL     1       2.618   8.017  -5.401  0.00  0.00    +0.005 A 
ATOM     26  C   UNL     1       2.486   8.751  -6.565  0.00  0.00    +0.020 A 
ATOM     27  C   UNL     1       1.388   8.557  -7.385  0.00  0.00    +0.041 A 
ATOM     28  C   UNL     1       0.425   7.625  -7.041  0.00  0.00    +0.020 A 
ATOM     29  C   UNL     1       0.561   6.888  -5.880  0.00  0.00    +0.005 A 
ATOM     30 CL   UNL     1       1.219   9.484  -8.843  0.00  0.00    -0.084 Cl
ENDBRANCH   9  24
BRANCH   3  31
ATOM     31  C   UNL     1       3.193   4.876   2.386  0.00  0.00    +0.338 C 
ATOM     32  O   UNL     1       3.116   5.611   3.353  0.00  0.00    -0.245 OA
BRANCH  31  33
ATOM     33  O   UNL     1       3.744   3.650   2.514  0.00  0.00    -0.458 OA
BRANCH  33  34
ATOM     34  C   UNL     1       4.216   3.283   3.812  0.00  0.00    +0.177 C 
ATOM     35  C   UNL     1       5.712   3.636   3.949  0.00  0.00    +0.044 C 
ATOM     36  C   UNL     1       6.300   2.474   4.789  0.00  0.00    +0.004 C 
ATOM     37  C   UNL     1       5.536   1.240   4.248  0.00  0.00    +0.004 C 
ATOM     38  C   UNL     1       4.104   1.760   4.001  0.00  0.00    +0.044 C 
ENDBRANCH  33  34
ENDBRANCH  31  33
ENDBRANCH   3  31
TORSDOF 5
