REMARK  Name = ZINC32658199
REMARK  6 active torsions:
REMARK  status: ('A' for Active; 'I' for Inactive)
REMARK    1  A    between atoms: C_4  and  N_28
REMARK    2  A    between atoms: C_5  and  N_7
REMARK    3  A    between atoms: C_8  and  C_10
REMARK    4  A    between atoms: N_13  and  C_16
REMARK    5  A    between atoms: C_17  and  C_26
REMARK    6  A    between atoms: C_19  and  C_21
REMARK                            x       y       z     vdW  Elec       q    Type
REMARK                         _______ _______ _______ _____ _____    ______ ____
ROOT
ATOM      1  C   UNL     1      -0.025   5.653  -0.184  0.00  0.00    +0.078 C 
ATOM      2  C   UNL     1       0.641   6.258   1.055  0.00  0.00    +0.032 C 
ATOM      3  C   UNL     1       0.572   7.785   0.971  0.00  0.00    +0.109 C 
ATOM      4  N   UNL     1      -0.832   8.209   0.891  0.00  0.00    -0.299 N 
ATOM      5  C   UNL     1      -1.479   7.678  -0.315  0.00  0.00    +0.109 C 
ATOM      6  C   UNL     1      -1.471   6.149  -0.269  0.00  0.00    +0.032 C 
ENDROOT
BRANCH   4   7
ATOM      7  C   UNL     1      -0.936   9.582   0.945  0.00  0.00    +0.228 A 
ATOM      8  C   UNL     1      -0.441  10.411   1.940  0.00  0.00    +0.201 A 
ATOM      9  N   UNL     1      -0.767  11.684   1.593  0.00  0.00    -0.194 NA
ATOM     10  C   UNL     1      -1.422  11.653   0.458  0.00  0.00    +0.266 A 
ATOM     11  O   UNL     1      -1.534  10.377   0.039  0.00  0.00    -0.417 OA
BRANCH  10  12
ATOM     12  C   UNL     1      -1.949  12.829  -0.250  0.00  0.00    +0.189 A 
ATOM     13  C   UNL     1      -1.839  14.125   0.158  0.00  0.00    +0.055 A 
ATOM     14  C   UNL     1      -2.482  14.912  -0.816  0.00  0.00    +0.042 A 
ATOM     15  C   UNL     1      -2.948  14.070  -1.761  0.00  0.00    +0.196 A 
ATOM     16  O   UNL     1      -2.619  12.813  -1.419  0.00  0.00    -0.458 OA
ENDBRANCH  10  12
BRANCH   8  17
ATOM     17  C   UNL     1       0.277  10.003   3.110  0.00  0.00    +0.124 C 
ATOM     18  N   UNL     1       0.847   9.680   4.038  0.00  0.00    -0.189 NA
ENDBRANCH   8  17
ENDBRANCH   4   7
BRANCH   1  20
ATOM     19  N   UNL     1       1.158   3.489   0.009  0.00  0.00    -0.284 N 
ATOM     20  C   UNL     1      -0.014   4.150  -0.078  0.00  0.00    +0.220 C 
ATOM     21  O   UNL     1      -1.059   3.534  -0.072  0.00  0.00    -0.275 OA
ATOM     22  H   UNL     1       2.102   4.050   0.077  0.00  0.00    +0.155 HD
BRANCH  19  27
ATOM     23  C   UNL     1       0.165   0.000   0.626  0.00  0.00    +0.002 A 
ATOM     24  C   UNL     1       1.203  -0.683   0.021  0.00  0.00    +0.002 A 
ATOM     25  C   UNL     1       2.230   0.011  -0.590  0.00  0.00    +0.025 A 
ATOM     26  C   UNL     1       2.221   1.398  -0.597  0.00  0.00    +0.051 A 
ATOM     27  C   UNL     1       1.174   2.088   0.013  0.00  0.00    +0.055 A 
ATOM     28  C   UNL     1       0.148   1.383   0.624  0.00  0.00    +0.025 A 
BRANCH  26  29
ATOM     29  N   UNL     1       3.260   2.104  -1.214  0.00  0.00    -0.328 N 
ATOM     30  C   UNL     1       3.285   1.844  -2.660  0.00  0.00    +0.105 C 
ATOM     31  C   UNL     1       4.335   2.740  -3.321  0.00  0.00    +0.019 C 
ATOM     32  C   UNL     1       5.707   2.449  -2.707  0.00  0.00    +0.003 C 
ATOM     33  C   UNL     1       5.640   2.680  -1.195  0.00  0.00    +0.019 C 
ATOM     34  C   UNL     1       4.553   1.786  -0.595  0.00  0.00    +0.105 C 
ENDBRANCH  26  29
ENDBRANCH  19  27
ENDBRANCH   1  20
TORSDOF 6
