REMARK  Name = ZINC44173593
REMARK  10 active torsions:
REMARK  status: ('A' for Active; 'I' for Inactive)
REMARK    1  A    between atoms: C_1  and  C_2
REMARK    2  A    between atoms: C_2  and  C_3
REMARK    3  A    between atoms: C_6  and  N_9
REMARK    4  A    between atoms: C_14  and  C_31
REMARK    5  A    between atoms: C_17  and  C_22
REMARK    6  A    between atoms: C_17  and  C_28
REMARK    7  A    between atoms: C_32  and  C_33
REMARK    8  A    between atoms: C_36  and  O_41
REMARK    9  A    between atoms: C_37  and  O_39
REMARK   10  A    between atoms: O_39  and  C_40
REMARK                            x       y       z     vdW  Elec       q    Type
REMARK                         _______ _______ _______ _____ _____    ______ ____
ROOT
ATOM      1  N   UNL     1       2.749  -1.787  -4.597  0.00  0.00    -0.210 N 
ATOM      2  C   UNL     1       2.072  -2.000  -5.773  0.00  0.00    +0.229 C 
ATOM      3  O   UNL     1       0.951  -1.635  -6.057  0.00  0.00    -0.275 OA
ATOM      4  C   UNL     1       2.988  -2.751  -6.594  0.00  0.00    +0.077 C 
ATOM      5  C   UNL     1       3.240  -3.081  -8.008  0.00  0.00    -0.034 C 
ATOM      6  N   UNL     1       4.592  -3.736  -7.942  0.00  0.00    +0.398 N 
ATOM      7  C   UNL     1       5.269  -3.262  -6.699  0.00  0.00    +0.074 C 
ATOM      8  C   UNL     1       4.378  -2.128  -6.171  0.00  0.00    +0.090 C 
ATOM      9  C   UNL     1       4.082  -2.066  -4.698  0.00  0.00    +0.229 C 
ATOM     10  O   UNL     1       4.866  -2.233  -3.788  0.00  0.00    -0.275 OA
ATOM     11  H   UNL     1       4.484  -4.739  -7.912  0.00  0.00    -0.083 HD
ATOM     12  H   UNL     1       5.137  -3.475  -8.750  0.00  0.00    -0.083 HD
ENDROOT
BRANCH   1  16
ATOM     13  C   UNL     1       0.933  -0.422  -1.102  0.00  0.00    -0.048 A 
ATOM     14  C   UNL     1       0.176  -0.615  -2.243  0.00  0.00    +0.005 A 
ATOM     15  C   UNL     1       0.775  -1.067  -3.402  0.00  0.00    +0.024 A 
ATOM     16  C   UNL     1       2.138  -1.328  -3.422  0.00  0.00    +0.044 A 
ATOM     17  C   UNL     1       2.896  -1.133  -2.275  0.00  0.00    +0.024 A 
ATOM     18  C   UNL     1       2.292  -0.676  -1.119  0.00  0.00    +0.005 A 
BRANCH  13  20
ATOM     19  C   UNL     1       0.304   1.601   0.187  0.00  0.00    +0.009 C 
ATOM     20  C   UNL     1       0.277   0.071   0.162  0.00  0.00    +0.032 C 
ENDBRANCH  13  20
ENDBRANCH   1  16
BRANCH   7  21
ATOM     21  C   UNL     1       5.372  -4.386  -5.700  0.00  0.00    -0.047 A 
ATOM     22  C   UNL     1       6.326  -4.337  -4.700  0.00  0.00    +0.003 A 
ATOM     23  C   UNL     1       6.420  -5.367  -3.784  0.00  0.00    +0.000 A 
ATOM     24  C   UNL     1       5.561  -6.447  -3.867  0.00  0.00    +0.000 A 
ATOM     25  C   UNL     1       4.607  -6.496  -4.867  0.00  0.00    +0.000 A 
ATOM     26  C   UNL     1       4.510  -5.463  -5.780  0.00  0.00    +0.003 A 
ENDBRANCH   7  21
BRANCH   7  27
ATOM     27  C   UNL     1       6.639  -2.724  -7.024  0.00  0.00    +0.350 C 
ATOM     28  O   UNL     1       7.047  -2.749  -8.172  0.00  0.00    -0.248 OA
ATOM     29  O   UNL     1       7.339  -2.264  -6.138  0.00  0.00    -0.248 OA
ENDBRANCH   7  27
BRANCH   5  30
ATOM     30  C   UNL     1       3.287  -1.833  -8.851  0.00  0.00    -0.041 C 
ATOM     31  C   UNL     1       2.491  -1.715  -9.905  0.00  0.00    +0.002 C 
BRANCH  31  32
ATOM     32  C   UNL     1       2.619  -0.546 -10.800  0.00  0.00    -0.022 A 
ATOM     33  C   UNL     1       3.581   0.431 -10.541  0.00  0.00    +0.012 A 
ATOM     34  C   UNL     1       3.700   1.522 -11.378  0.00  0.00    +0.050 A 
ATOM     35  C   UNL     1       2.864   1.650 -12.478  0.00  0.00    +0.158 A 
ATOM     36  C   UNL     1       1.902   0.678 -12.742  0.00  0.00    +0.162 A 
ATOM     37  C   UNL     1       1.782  -0.420 -11.910  0.00  0.00    +0.057 A 
BRANCH  36  38
ATOM     38  O   UNL     1       1.085   0.806 -13.821  0.00  0.00    -0.491 OA
ATOM     39  C   UNL     1       0.121  -0.228 -14.032  0.00  0.00    +0.277 C 
ENDBRANCH  36  38
BRANCH  35  40
ATOM     40  O   UNL     1       2.985   2.726 -13.299  0.00  0.00    -0.503 OA
ATOM     41  H   UNL     1       3.603   2.595 -14.031  0.00  0.00    +0.292 HD
ENDBRANCH  35  40
ENDBRANCH  31  32
ENDBRANCH   5  30
TORSDOF 8
