REMARK  Name = ZINC39956940
REMARK  4 active torsions:
REMARK  status: ('A' for Active; 'I' for Inactive)
REMARK    1  A    between atoms: C_4  and  C_7
REMARK    2  A    between atoms: C_7  and  C_8
REMARK    3  A    between atoms: C_15  and  C_17
REMARK    4  A    between atoms: C_18  and  C_24
REMARK                            x       y       z     vdW  Elec       q    Type
REMARK                         _______ _______ _______ _____ _____    ______ ____
ROOT
ATOM      1  C   UNL     1       2.333  -3.426   0.410  0.00  0.00    +0.055 C 
ATOM      2  C   UNL     1       1.016  -2.974   0.152  0.00  0.00    +0.055 C 
ATOM      3  C   UNL     1       0.736  -3.340  -1.256  0.00  0.00    +0.252 C 
ATOM      4  O   UNL     1      -0.299  -3.118  -1.852  0.00  0.00    -0.270 OA
ATOM      5  N   UNL     1       1.815  -3.956  -1.764  0.00  0.00    -0.248 N 
ATOM      6  C   UNL     1       2.799  -4.041  -0.854  0.00  0.00    +0.252 C 
ATOM      7  O   UNL     1       3.890  -4.543  -1.036  0.00  0.00    -0.270 OA
ATOM      8  H   UNL     1       1.878  -4.291  -2.672  0.00  0.00    +0.158 HD
ENDROOT
BRANCH   2   9
ATOM      9  C   UNL     1       0.158  -2.320   1.041  0.00  0.00    -0.006 C 
ATOM     10  C   UNL     1      -0.884  -2.884   1.782  0.00  0.00    +0.004 A 
ATOM     11  C   UNL     1      -1.383  -4.198   1.876  0.00  0.00    +0.013 A 
ATOM     12  C   UNL     1      -2.432  -4.465   2.697  0.00  0.00    +0.039 A 
ATOM     13  C   UNL     1      -3.040  -3.460   3.462  0.00  0.00    +0.125 A 
ATOM     14  C   UNL     1      -2.613  -2.173   3.421  0.00  0.00    +0.064 A 
ATOM     15  C   UNL     1      -1.518  -1.819   2.584  0.00  0.00    +0.046 A 
ATOM     16  N   UNL     1      -0.926  -0.668   2.370  0.00  0.00    -0.380 N 
ATOM     17  C   UNL     1       0.166  -0.852   1.409  0.00  0.00    +0.149 C 
ATOM     18  F   UNL     1      -4.080  -3.782   4.262  0.00  0.00    -0.205 F 
ATOM     19  H   UNL     1      -1.170   0.173   2.786  0.00  0.00    +0.160 HD
ENDBRANCH   2   9
BRANCH   1  27
ATOM     20  C   UNL     1       4.416  -1.160   1.286  0.00  0.00    -0.034 A 
ATOM     21  C   UNL     1       5.317  -0.336   1.879  0.00  0.00    +0.004 A 
ATOM     22  C   UNL     1       5.821  -0.578   3.160  0.00  0.00    +0.002 A 
ATOM     23  C   UNL     1       5.435  -1.654   3.888  0.00  0.00    +0.026 A 
ATOM     24  C   UNL     1       4.462  -2.592   3.314  0.00  0.00    +0.043 A 
ATOM     25  N   UNL     1       3.925  -3.690   3.786  0.00  0.00    -0.380 N 
ATOM     26  C   UNL     1       3.002  -4.248   2.793  0.00  0.00    +0.149 C 
ATOM     27  C   UNL     1       3.046  -3.311   1.606  0.00  0.00    -0.006 C 
ATOM     28  C   UNL     1       3.947  -2.302   1.960  0.00  0.00    +0.007 A 
ATOM     29  H   UNL     1       4.110  -4.074   4.657  0.00  0.00    +0.160 HD
BRANCH  20  30
ATOM     30  C   UNL     1       3.911  -0.846  -0.099  0.00  0.00    +0.071 C 
BRANCH  30  34
ATOM     31  C   UNL     1       6.018   2.528  -1.655  0.00  0.00    +0.000 A 
ATOM     32  C   UNL     1       6.553   1.260  -1.783  0.00  0.00    +0.000 A 
ATOM     33  C   UNL     1       5.871   0.168  -1.279  0.00  0.00    +0.004 A 
ATOM     34  C   UNL     1       4.654   0.344  -0.647  0.00  0.00    -0.043 A 
ATOM     35  C   UNL     1       4.120   1.612  -0.519  0.00  0.00    +0.004 A 
ATOM     36  C   UNL     1       4.801   2.704  -1.024  0.00  0.00    +0.000 A 
ENDBRANCH  30  34
ENDBRANCH  20  30
ENDBRANCH   1  27
TORSDOF 4
