REMARK  Name = ZINC62496101
REMARK  7 active torsions:
REMARK  status: ('A' for Active; 'I' for Inactive)
REMARK    1  A    between atoms: C_1  and  C_2
REMARK    2  A    between atoms: C_5  and  C_9
REMARK    3  A    between atoms: C_7  and  C_8
REMARK    4  A    between atoms: C_9  and  C_10
REMARK    5  A    between atoms: N_14  and  C_23
REMARK    6  A    between atoms: C_18  and  N_22
REMARK    7  A    between atoms: C_23  and  C_24
REMARK                            x       y       z     vdW  Elec       q    Type
REMARK                         _______ _______ _______ _____ _____    ______ ____
ROOT
ATOM      1  C   UNL     1       1.508  -4.767  -0.032  0.00  0.00    +0.263 C 
ATOM      2  C   UNL     1       1.529  -6.270   0.086  0.00  0.00    +0.261 C 
ATOM      3  O   UNL     1       1.627  -6.794   1.175  0.00  0.00    -0.271 OA
ATOM      4  N   UNL     1       1.439  -7.029  -1.026  0.00  0.00    -0.261 N 
ATOM      5  C   UNL     1       1.455  -6.406  -2.284  0.00  0.00    +0.079 A 
ATOM      6  C   UNL     1       1.138  -7.122  -3.428  0.00  0.00    +0.029 A 
ATOM      7  C   UNL     1       1.144  -6.494  -4.659  0.00  0.00    +0.025 A 
ATOM      8  C   UNL     1       1.467  -5.147  -4.752  0.00  0.00    +0.028 A 
ATOM      9  C   UNL     1       1.790  -4.428  -3.609  0.00  0.00    +0.070 A 
ATOM     10  C   UNL     1       1.790  -5.057  -2.376  0.00  0.00    +0.145 A 
ATOM     11  O   UNL     1       2.135  -4.372  -1.254  0.00  0.00    -0.477 OA
ENDROOT
BRANCH   8  12
ATOM     12  N   UNL     1       1.467  -4.513  -5.999  0.00  0.00    -0.358 N 
ATOM     13  H   UNL     1       1.242  -5.015  -6.798  0.00  0.00    +0.142 HD
ATOM     14  H   UNL     1       1.693  -3.572  -6.065  0.00  0.00    +0.142 HD
ENDBRANCH   8  12
BRANCH   1  15
ATOM     15  C   UNL     1       0.059  -4.275  -0.021  0.00  0.00    +0.089 C 
BRANCH  15  20
ATOM     16  C   UNL     1      -0.018   1.503   0.010  0.00  0.00    +0.044 C 
ATOM     17  C   UNL     1       0.002  -0.004   0.002  0.00  0.00    -0.048 A 
ATOM     18  C   UNL     1       0.006  -0.689  -1.199  0.00  0.00    +0.004 A 
ATOM     19  C   UNL     1       0.025  -2.071  -1.207  0.00  0.00    +0.004 A 
ATOM     20  C   UNL     1       0.040  -2.768  -0.013  0.00  0.00    -0.043 A 
ATOM     21  C   UNL     1       0.037  -2.084   1.188  0.00  0.00    +0.007 A 
ATOM     22  C   UNL     1       0.023  -0.702   1.195  0.00  0.00    -0.047 A 
ATOM     23  C   UNL     1       0.025   0.045   2.504  0.00  0.00    +0.044 C 
ENDBRANCH  15  20
ENDBRANCH   1  15
BRANCH   4  24
ATOM     24  C   UNL     1       1.327  -8.486  -0.922  0.00  0.00    +0.140 C 
BRANCH  24  25
ATOM     25  C   UNL     1      -0.127  -8.874  -0.848  0.00  0.00    -0.015 C 
ATOM     26  C   UNL     1      -0.621  -9.734  -1.704  0.00  0.00    +0.005 C 
ENDBRANCH  24  25
ENDBRANCH   4  24
TORSDOF 5
