REMARK  Name = ZINC39712358
REMARK  9 active torsions:
REMARK  status: ('A' for Active; 'I' for Inactive)
REMARK    1  A    between atoms: C_1  and  C_2
REMARK    2  A    between atoms: C_7  and  N_8
REMARK    3  A    between atoms: C_9  and  S_20
REMARK    4  A    between atoms: C_13  and  C_14
REMARK    5  A    between atoms: S_20  and  C_21
REMARK    6  A    between atoms: C_21  and  C_23
REMARK    7  A    between atoms: C_21  and  C_24
REMARK    8  A    between atoms: C_29  and  C_36
REMARK    9  A    between atoms: C_30  and  C_35
REMARK                            x       y       z     vdW  Elec       q    Type
REMARK                         _______ _______ _______ _____ _____    ______ ____
ROOT
ATOM      1  N   UNL     1       0.025  -0.017   2.416  0.00  0.00    -0.254 N 
ATOM      2  C   UNL     1      -1.153   0.397   3.196  0.00  0.00    +0.242 C 
ATOM      3  N   UNL     1      -0.581   1.078   4.370  0.00  0.00    -0.237 N 
ATOM      4  N   UNL     1       0.809   1.025   4.218  0.00  0.00    -0.168 NA
ATOM      5  C   UNL     1       1.144   0.410   3.131  0.00  0.00    +0.153 C 
ATOM      6  H   UNL     1      -1.071   1.482   5.104  0.00  0.00    +0.171 HD
ENDROOT
BRANCH   1  13
ATOM      7  C   UNL     1      -0.018   1.503   0.010  0.00  0.00    +0.045 C 
ATOM      8  C   UNL     1       0.002  -0.004   0.002  0.00  0.00    -0.029 A 
ATOM      9  C   UNL     1       0.006  -0.689  -1.197  0.00  0.00    +0.005 A 
ATOM     10  C   UNL     1       0.024  -2.071  -1.206  0.00  0.00    +0.000 A 
ATOM     11  C   UNL     1       0.039  -2.773  -0.014  0.00  0.00    +0.002 A 
ATOM     12  C   UNL     1       0.035  -2.095   1.188  0.00  0.00    +0.024 A 
ATOM     13  C   UNL     1       0.023  -0.706   1.201  0.00  0.00    +0.041 A 
ENDBRANCH   1  13
BRANCH   5  14
ATOM     14  C   UNL     1       2.539   0.189   2.698  0.00  0.00    +0.020 A 
ATOM     15  C   UNL     1       2.825  -0.479   1.501  0.00  0.00    +0.029 A 
ATOM     16  C   UNL     1       4.141  -0.662   1.135  0.00  0.00    +0.083 A 
ATOM     17  N   UNL     1       5.124  -0.219   1.896  0.00  0.00    -0.367 N 
ATOM     18  C   UNL     1       4.900   0.415   3.032  0.00  0.00    +0.083 A 
ATOM     19  C   UNL     1       3.614   0.648   3.471  0.00  0.00    +0.029 A 
ATOM     20  H   UNL     1       6.040  -0.364   1.612  0.00  0.00    +0.165 HD
ENDBRANCH   5  14
BRANCH   2  21
ATOM     21  S   UNL     1      -2.120  -1.051   3.704  0.00  0.00    -0.107 S 
BRANCH  21  22
ATOM     22  C   UNL     1      -0.961  -2.024   4.705  0.00  0.00    +0.112 C 
ATOM     23  C   UNL     1      -0.594  -1.240   5.966  0.00  0.00    +0.027 C 
BRANCH  22  24
ATOM     24  C   UNL     1      -1.606  -3.329   5.094  0.00  0.00    +0.136 C 
ATOM     25  N   UNL     1      -2.787  -3.610   4.599  0.00  0.00    -0.160 NA
ATOM     26  C   UNL     1      -3.441  -4.741   4.883  0.00  0.00    +0.271 C 
ATOM     27  O   UNL     1      -4.539  -4.971   4.405  0.00  0.00    -0.268 OA
ATOM     28  C   UNL     1      -2.781  -5.717   5.809  0.00  0.00    +0.071 C 
ATOM     29  C   UNL     1      -3.242  -6.903   6.232  0.00  0.00    -0.045 C 
ATOM     30  C   UNL     1      -2.369  -7.702   7.173  0.00  0.00    +0.076 C 
ATOM     31  S   UNL     1      -0.909  -6.598   7.353  0.00  0.00    -0.098 S 
ATOM     32  C   UNL     1      -1.455  -5.281   6.296  0.00  0.00    +0.111 C 
ATOM     33  N   UNL     1      -0.948  -4.133   5.914  0.00  0.00    -0.226 NA
ATOM     34  C   UNL     1      -3.065  -7.914   8.519  0.00  0.00    +0.024 C 
ATOM     35  C   UNL     1      -4.584  -7.423   5.784  0.00  0.00    +0.041 C 
ENDBRANCH  22  24
ENDBRANCH  21  22
ENDBRANCH   2  21
TORSDOF 5
