REMARK  Name = ZINC04163916
REMARK  5 active torsions:
REMARK  status: ('A' for Active; 'I' for Inactive)
REMARK    1  A    between atoms: C_4  and  C_7
REMARK    2  A    between atoms: C_7  and  N_8
REMARK    3  A    between atoms: N_8  and  C_9
REMARK    4  A    between atoms: C_17  and  C_19
REMARK    5  A    between atoms: C_19  and  N_20
REMARK                            x       y       z     vdW  Elec       q    Type
REMARK                         _______ _______ _______ _____ _____    ______ ____
ROOT
ATOM      1  C   UNL     1       2.376   7.521   0.960  0.00  0.00    +0.213 C 
ENDROOT
BRANCH   1   2
ATOM      2  N   UNL     1       2.447   6.081   1.221  0.00  0.00    -0.215 N 
ATOM      3  C   UNL     1       2.477   5.535   2.455  0.00  0.00    +0.252 C 
ATOM      4  O   UNL     1       2.450   6.119   3.517  0.00  0.00    -0.272 OA
ATOM      5  C   UNL     1       2.550   4.042   2.234  0.00  0.00    +0.144 C 
ATOM      6  C   UNL     1       3.836   3.478   2.829  0.00  0.00    +0.081 C 
ATOM      7  C   UNL     1       3.743   1.946   2.813  0.00  0.00    +0.232 C 
ATOM      8  O   UNL     1       2.667   1.549   3.663  0.00  0.00    -0.492 OA
ATOM      9  C   UNL     1       1.464   2.159   3.501  0.00  0.00    +0.126 A 
ATOM     10  C   UNL     1       1.347   3.365   2.828  0.00  0.00    +0.027 A 
ATOM     11  C   UNL     1       0.104   3.959   2.696  0.00  0.00    +0.010 A 
ATOM     12  C   UNL     1      -1.019   3.356   3.228  0.00  0.00    +0.001 A 
ATOM     13  C   UNL     1      -0.905   2.149   3.893  0.00  0.00    +0.004 A 
ATOM     14  C   UNL     1       0.332   1.554   4.034  0.00  0.00    +0.046 A 
ATOM     15  N   UNL     1       2.553   3.897   0.773  0.00  0.00    -0.281 N 
ATOM     16  C   UNL     1       2.491   5.144   0.267  0.00  0.00    +0.310 C 
ATOM     17  O   UNL     1       2.477   5.390  -0.923  0.00  0.00    -0.252 OA
ATOM     18  H   UNL     1       2.591   3.068   0.271  0.00  0.00    +0.152 HD
ENDBRANCH   1   2
BRANCH   1  20
ATOM     19  N   UNL     1       0.620   9.249   0.741  0.00  0.00    -0.291 N 
ATOM     20  C   UNL     1       0.932   7.944   0.873  0.00  0.00    +0.234 C 
ATOM     21  O   UNL     1       0.052   7.112   0.921  0.00  0.00    -0.274 OA
BRANCH  19  22
ATOM     22  C   UNL     1       1.682  10.244   0.574  0.00  0.00    +0.099 C 
ATOM     23  C   UNL     1       1.405  11.080  -0.686  0.00  0.00    +0.047 C 
ATOM     24  C   UNL     1       2.356  12.311  -0.670  0.00  0.00    +0.168 C 
ATOM     25  S   UNL     1       2.279  12.770   1.113  0.00  0.00    -0.029 S 
ATOM     26  O   UNL     1       1.253  13.735   1.298  0.00  0.00    -0.174 OA
ATOM     27  O   UNL     1       3.593  13.048   1.576  0.00  0.00    -0.174 OA
ATOM     28  C   UNL     1       1.724  11.164   1.818  0.00  0.00    +0.188 C 
ENDBRANCH  19  22
BRANCH  19  29
ATOM     29  C   UNL     1      -0.783   9.672   0.765  0.00  0.00    +0.143 C 
BRANCH  29  33
ATOM     30  C   UNL     1      -2.100  10.010   4.815  0.00  0.00    +0.000 A 
ATOM     31  C   UNL     1      -1.800  11.147   4.088  0.00  0.00    +0.000 A 
ATOM     32  C   UNL     1      -1.373  11.038   2.778  0.00  0.00    +0.005 A 
ATOM     33  C   UNL     1      -1.247   9.791   2.194  0.00  0.00    -0.030 A 
ATOM     34  C   UNL     1      -1.552   8.655   2.919  0.00  0.00    +0.005 A 
ATOM     35  C   UNL     1      -1.973   8.764   4.231  0.00  0.00    +0.000 A 
ENDBRANCH  29  33
ENDBRANCH  19  29
ENDBRANCH   1  20
TORSDOF 5
