REMARK  Name = ZINC11910172
REMARK  8 active torsions:
REMARK  status: ('A' for Active; 'I' for Inactive)
REMARK    1  A    between atoms: C_1  and  C_2
REMARK    2  A    between atoms: C_2  and  C_3
REMARK    3  A    between atoms: C_3  and  C_4
REMARK    4  A    between atoms: C_4  and  C_18
REMARK    5  A    between atoms: N_7  and  C_11
REMARK    6  A    between atoms: C_11  and  C_12
REMARK    7  A    between atoms: C_24  and  C_26
REMARK    8  A    between atoms: C_29  and  N_32
REMARK                            x       y       z     vdW  Elec       q    Type
REMARK                         _______ _______ _______ _____ _____    ______ ____
ROOT
ATOM      1  C   UNL     1       1.154  -0.813   1.265  0.00  0.00    +0.024 C 
ATOM      2  C   UNL     1       0.303  -2.084   1.304  0.00  0.00    +0.025 C 
ATOM      3  C   UNL     1       0.873  -3.043   2.355  0.00  0.00    +0.108 C 
ATOM      4  N   UNL     1       0.962  -2.337   3.640  0.00  0.00    -0.298 N 
ATOM      5  C   UNL     1       1.682  -1.057   3.694  0.00  0.00    +0.108 C 
ATOM      6  C   UNL     1       1.103  -0.121   2.629  0.00  0.00    +0.025 C 
ATOM      7  C   UNL     1       0.395  -2.853   4.748  0.00  0.00    +0.247 C 
ATOM      8  O   UNL     1       0.541  -2.299   5.821  0.00  0.00    -0.270 OA
ENDROOT
BRANCH   1   9
ATOM      9  C   UNL     1       0.609   0.133   0.193  0.00  0.00    +0.115 C 
ATOM     10  C   UNL     1       1.354   1.452   0.216  0.00  0.00    +0.247 C 
ATOM     11  O   UNL     1       2.537   1.628   0.019  0.00  0.00    -0.273 OA
ATOM     12  N   UNL     1       0.428   2.389   0.502  0.00  0.00    -0.222 N 
ATOM     13  C   UNL     1      -0.786   1.850   0.661  0.00  0.00    +0.309 C 
ATOM     14  O   UNL     1      -1.783   2.495   0.920  0.00  0.00    -0.252 OA
ATOM     15  N   UNL     1      -0.781   0.515   0.497  0.00  0.00    -0.285 N 
ATOM     16  H   UNL     1      -1.544  -0.080   0.566  0.00  0.00    +0.151 HD
BRANCH   9  17
ATOM     17  C   UNL     1       0.698  -0.512  -1.192  0.00  0.00    +0.035 C 
BRANCH  17  19
ATOM     18  C   UNL     1       0.288  -0.170  -3.632  0.00  0.00    +0.004 C 
ATOM     19  C   UNL     1       0.198   0.475  -2.248  0.00  0.00    -0.001 C 
ENDBRANCH  17  19
ENDBRANCH   9  17
BRANCH  12  20
ATOM     20  C   UNL     1       0.716   3.820   0.623  0.00  0.00    +0.149 C 
BRANCH  20  21
ATOM     21  C   UNL     1       1.077   4.147   2.073  0.00  0.00    +0.136 C 
ATOM     22  C   UNL     1       1.270   5.670   2.235  0.00  0.00    +0.035 C 
ATOM     23  C   UNL     1       2.483   5.749   3.201  0.00  0.00    +0.031 C 
ATOM     24  C   UNL     1       3.297   4.510   2.752  0.00  0.00    +0.160 C 
ATOM     25  O   UNL     1       2.315   3.516   2.420  0.00  0.00    -0.375 OA
ENDBRANCH  20  21
ENDBRANCH  12  20
ENDBRANCH   1   9
BRANCH   7  26
ATOM     26  C   UNL     1      -0.403  -4.092   4.660  0.00  0.00    +0.037 A 
ATOM     27  C   UNL     1      -1.639  -4.176   5.306  0.00  0.00    +0.015 A 
ATOM     28  C   UNL     1      -2.382  -5.332   5.219  0.00  0.00    +0.024 A 
ATOM     29  C   UNL     1      -1.900  -6.418   4.496  0.00  0.00    +0.036 A 
ATOM     30  C   UNL     1      -0.667  -6.339   3.855  0.00  0.00    +0.024 A 
ATOM     31  C   UNL     1       0.079  -5.185   3.935  0.00  0.00    +0.015 A 
BRANCH  29  32
ATOM     32  N   UNL     1      -2.654  -7.588   4.413  0.00  0.00    -0.271 N 
ATOM     33  C   UNL     1      -2.190  -8.829   3.780  0.00  0.00    +0.114 C 
ATOM     34  C   UNL     1      -3.463  -9.669   3.538  0.00  0.00    +0.029 C 
ATOM     35  C   UNL     1      -4.415  -9.120   4.627  0.00  0.00    +0.098 C 
ATOM     36  C   UNL     1      -3.896  -7.727   4.907  0.00  0.00    +0.220 C 
ATOM     37  O   UNL     1      -4.512  -6.861   5.490  0.00  0.00    -0.275 OA
ENDBRANCH  29  32
ENDBRANCH   7  26
TORSDOF 7
