REMARK  Name = ZINC49548856
REMARK  6 active torsions:
REMARK  status: ('A' for Active; 'I' for Inactive)
REMARK    1  A    between atoms: C_1  and  C_2
REMARK    2  A    between atoms: N_5  and  C_7
REMARK    3  A    between atoms: C_9  and  O_26
REMARK    4  A    between atoms: C_12  and  C_14
REMARK    5  A    between atoms: C_18  and  O_20
REMARK    6  A    between atoms: O_20  and  C_21
REMARK                            x       y       z     vdW  Elec       q    Type
REMARK                         _______ _______ _______ _____ _____    ______ ____
ROOT
ATOM      1  C   UNL     1      -0.350   1.220  -0.262  0.00  0.00    +0.068 C 
ATOM      2  C   UNL     1      -0.241  -0.277  -0.401  0.00  0.00    +0.067 A 
ATOM      3  C   UNL     1      -0.010  -0.972  -1.602  0.00  0.00    +0.036 A 
ATOM      4  C   UNL     1       0.025  -2.309  -1.309  0.00  0.00    +0.159 A 
ATOM      5  N   UNL     1      -0.190  -2.421   0.049  0.00  0.00    -0.249 N 
ATOM      6  N   UNL     1      -0.340  -1.137   0.573  0.00  0.00    -0.175 NA
ATOM      7  C   UNL     1      -0.245  -3.671   0.810  0.00  0.00    +0.174 C 
ATOM      8  N   UNL     1       0.227  -3.392  -2.079  0.00  0.00    -0.197 NA
ATOM      9  C   UNL     1       0.446  -3.617  -3.291  0.00  0.00    +0.199 C 
ATOM     10  C   UNL     1       0.513  -2.681  -4.433  0.00  0.00    +0.165 C 
ATOM     11  S   UNL     1       1.295  -1.116  -4.018  0.00  0.00    -0.138 S 
ATOM     12  C   UNL     1       0.151  -0.273  -2.918  0.00  0.00    +0.112 C 
ENDROOT
BRANCH  12  13
ATOM     13  C   UNL     1       0.657   1.124  -2.668  0.00  0.00    -0.026 A 
ATOM     14  C   UNL     1       1.870   1.316  -2.032  0.00  0.00    +0.005 A 
ATOM     15  C   UNL     1       2.337   2.597  -1.801  0.00  0.00    +0.004 A 
ATOM     16  C   UNL     1       1.592   3.688  -2.206  0.00  0.00    +0.045 A 
ATOM     17  C   UNL     1       0.376   3.498  -2.844  0.00  0.00    +0.121 A 
ATOM     18  C   UNL     1      -0.088   2.212  -3.080  0.00  0.00    +0.050 A 
BRANCH  17  19
ATOM     19  O   UNL     1      -0.358   4.570  -3.244  0.00  0.00    -0.489 OA
BRANCH  19  20
ATOM     20  C   UNL     1       0.236   5.859  -3.083  0.00  0.00    +0.173 C 
ATOM     21  C   UNL     1      -0.055   6.404  -1.670  0.00  0.00    +0.044 C 
ATOM     22  C   UNL     1      -0.273   7.922  -1.885  0.00  0.00    +0.004 C 
ATOM     23  C   UNL     1      -1.039   7.970  -3.230  0.00  0.00    +0.004 C 
ATOM     24  C   UNL     1      -0.390   6.855  -4.075  0.00  0.00    +0.044 C 
ENDBRANCH  19  20
ENDBRANCH  17  19
ENDBRANCH  12  13
BRANCH   9  25
ATOM     25  O   UNL     1       0.651  -4.913  -3.603  0.00  0.00    -0.495 OA
ATOM     26  H   UNL     1       0.603  -5.512  -2.845  0.00  0.00    +0.293 HD
ENDBRANCH   9  25
TORSDOF 4
