REMARK  Name = ZINC18200737
REMARK  6 active torsions:
REMARK  status: ('A' for Active; 'I' for Inactive)
REMARK    1  A    between atoms: C_1  and  O_2
REMARK    2  A    between atoms: O_2  and  C_3
REMARK    3  A    between atoms: C_6  and  C_11
REMARK    4  A    between atoms: C_8  and  O_9
REMARK    5  A    between atoms: O_9  and  C_10
REMARK    6  A    between atoms: C_16  and  C_25
REMARK                            x       y       z     vdW  Elec       q    Type
REMARK                         _______ _______ _______ _____ _____    ______ ____
ROOT
ATOM      1  C   UNL     1       1.227  -2.186  -0.021  0.00  0.00    +0.032 C 
ATOM      2  C   UNL     1       1.954  -2.686  -1.272  0.00  0.00    +0.060 C 
ATOM      3  C   UNL     1       2.006  -4.195  -1.258  0.00  0.00    +0.020 C 
ATOM      4  C   UNL     1       2.071  -4.876  -0.094  0.00  0.00    +0.041 C 
ATOM      5  C   UNL     1       2.142  -6.387  -0.049  0.00  0.00    +0.176 C 
ATOM      6  N   UNL     1       1.791  -6.941  -1.351  0.00  0.00    -0.219 N 
ATOM      7  C   UNL     1       1.723  -6.199  -2.483  0.00  0.00    +0.220 A 
ATOM      8  N   UNL     1       1.395  -6.991  -3.468  0.00  0.00    -0.180 NA
ATOM      9  C   UNL     1       1.240  -8.240  -3.006  0.00  0.00    +0.233 A 
ATOM     10  N   UNL     1       1.473  -8.249  -1.711  0.00  0.00    -0.132 NA
ATOM     11  N   UNL     1       0.888  -9.351  -3.774  0.00  0.00    -0.326 N 
ATOM     12  N   UNL     1       1.978  -4.838  -2.473  0.00  0.00    -0.287 N 
ATOM     13  C   UNL     1       2.070  -4.198   1.139  0.00  0.00    +0.164 C 
ATOM     14  O   UNL     1       2.145  -4.839   2.168  0.00  0.00    -0.292 OA
ATOM     15  C   UNL     1       1.978  -2.700   1.211  0.00  0.00    +0.088 C 
ATOM     16  H   UNL     1       0.797 -10.221  -3.355  0.00  0.00    +0.145 HD
ATOM     17  H   UNL     1       0.734  -9.252  -4.727  0.00  0.00    +0.145 HD
ATOM     18  H   UNL     1       2.133  -4.352  -3.298  0.00  0.00    +0.155 HD
ENDROOT
BRANCH   5  19
ATOM     19  C   UNL     1       3.541  -6.811   0.315  0.00  0.00    -0.017 A 
ATOM     20  C   UNL     1       4.603  -6.463  -0.500  0.00  0.00    +0.006 A 
ATOM     21  C   UNL     1       5.887  -6.848  -0.165  0.00  0.00    +0.002 A 
ATOM     22  C   UNL     1       6.110  -7.590   0.980  0.00  0.00    +0.020 A 
ATOM     23  C   UNL     1       5.048  -7.943   1.793  0.00  0.00    +0.041 A 
ATOM     24  C   UNL     1       3.763  -7.553   1.459  0.00  0.00    +0.026 A 
ATOM     25 CL   UNL     1       5.327  -8.875   3.231  0.00  0.00    -0.084 Cl
ENDBRANCH   5  19
BRANCH   1  29
ATOM     26  C   UNL     1       1.181   2.091   0.002  0.00  0.00    +0.161 A 
ATOM     27  C   UNL     1       2.386   1.408  -0.014  0.00  0.00    +0.049 A 
ATOM     28  C   UNL     1       2.398   0.026  -0.021  0.00  0.00    +0.008 A 
ATOM     29  C   UNL     1       1.208  -0.679  -0.013  0.00  0.00    -0.040 A 
ATOM     30  C   UNL     1       0.002  -0.004   0.002  0.00  0.00    +0.053 A 
ATOM     31  C   UNL     1      -0.017   1.381   0.010  0.00  0.00    +0.162 A 
BRANCH  26  33
ATOM     32  C   UNL     1       2.434   4.112   0.001  0.00  0.00    +0.277 C 
ATOM     33  O   UNL     1       1.167   3.450   0.009  0.00  0.00    -0.491 OA
ENDBRANCH  26  33
BRANCH  31  34
ATOM     34  O   UNL     1      -1.203   2.047   0.019  0.00  0.00    -0.491 OA
ATOM     35  C   UNL     1      -2.392   1.254   0.020  0.00  0.00    +0.277 C 
ENDBRANCH  31  34
ENDBRANCH   1  29
TORSDOF 4
