REMARK  Name = ZINC00956148
REMARK  10 active torsions:
REMARK  status: ('A' for Active; 'I' for Inactive)
REMARK    1  A    between atoms: C_1  and  C_2
REMARK    2  A    between atoms: C_8  and  C_9
REMARK    3  A    between atoms: C_8  and  N_60
REMARK    4  A    between atoms: C_10  and  O_34
REMARK    5  A    between atoms: C_16  and  C_30
REMARK    6  A    between atoms: C_17  and  C_20
REMARK    7  A    between atoms: C_23  and  O_28
REMARK    8  A    between atoms: C_24  and  O_26
REMARK    9  A    between atoms: O_26  and  C_27
REMARK   10  A    between atoms: O_28  and  C_29
REMARK                            x       y       z     vdW  Elec       q    Type
REMARK                         _______ _______ _______ _____ _____    ______ ____
ROOT
ATOM      1  C   UNL     1      -0.025   3.600   0.756  0.00  0.00    +0.020 A 
ATOM      2  C   UNL     1       1.150   2.895   0.558  0.00  0.00    +0.122 A 
ATOM      3  C   UNL     1       1.126   1.617   0.004  0.00  0.00    +0.046 A 
ATOM      4  C   UNL     1      -0.061   1.041  -0.351  0.00  0.00    +0.019 A 
ATOM      5  C   UNL     1      -1.253   1.741  -0.162  0.00  0.00    +0.065 A 
ATOM      6  C   UNL     1      -1.240   3.030   0.401  0.00  0.00    +0.144 A 
ATOM      7  O   UNL     1      -2.393   3.702   0.587  0.00  0.00    -0.450 OA
ATOM      8  C   UNL     1      -3.590   3.213   0.250  0.00  0.00    +0.219 A 
ATOM      9  C   UNL     1      -3.748   1.981  -0.297  0.00  0.00    +0.077 A 
ATOM     10  C   UNL     1      -2.552   1.155  -0.539  0.00  0.00    +0.201 A 
ATOM     11  O   UNL     1      -2.633   0.041  -1.027  0.00  0.00    -0.286 OA
ENDROOT
BRANCH   9  12
ATOM     12  C   UNL     1      -5.098   1.475  -0.645  0.00  0.00    -0.007 A 
ATOM     13  C   UNL     1      -5.801   2.037  -1.709  0.00  0.00    +0.012 A 
ATOM     14  C   UNL     1      -7.056   1.563  -2.034  0.00  0.00    +0.050 A 
ATOM     15  C   UNL     1      -7.624   0.535  -1.298  0.00  0.00    +0.162 A 
ATOM     16  C   UNL     1      -6.929  -0.026  -0.231  0.00  0.00    +0.162 A 
ATOM     17  C   UNL     1      -5.669   0.442   0.096  0.00  0.00    +0.058 A 
BRANCH  16  18
ATOM     18  O   UNL     1      -7.488  -1.035   0.490  0.00  0.00    -0.491 OA
ATOM     19  C   UNL     1      -6.718  -1.564   1.571  0.00  0.00    +0.277 C 
ENDBRANCH  16  18
BRANCH  15  20
ATOM     20  O   UNL     1      -8.863   0.074  -1.619  0.00  0.00    -0.491 OA
ATOM     21  C   UNL     1      -9.520   0.695  -2.726  0.00  0.00    +0.277 C 
ENDBRANCH  15  20
ENDBRANCH   9  12
BRANCH   8  22
ATOM     22  C   UNL     1      -4.813   4.058   0.498  0.00  0.00    +0.451 C 
ATOM     23  F   UNL     1      -5.751   3.317   1.225  0.00  0.00    -0.163 F 
ATOM     24  F   UNL     1      -4.453   5.198   1.225  0.00  0.00    -0.163 F 
ATOM     25  F   UNL     1      -5.370   4.442  -0.727  0.00  0.00    -0.163 F 
ENDBRANCH   8  22
BRANCH   2  26
ATOM     26  O   UNL     1       2.337   3.454   0.906  0.00  0.00    -0.506 OA
ATOM     27  H   UNL     1       2.754   3.965   0.199  0.00  0.00    +0.292 HD
ENDBRANCH   2  26
BRANCH   1  28
ATOM     28  C   UNL     1       0.015   4.981   1.356  0.00  0.00    -0.036 C 
BRANCH  28  35
ATOM     29  C   UNL     1      -0.240   9.751   0.184  0.00  0.00    +0.005 C 
ATOM     30  C   UNL     1      -0.058   8.333  -0.359  0.00  0.00    -0.031 C 
ATOM     31  C   UNL     1       1.273   8.239  -1.111  0.00  0.00    -0.001 C 
ATOM     32  C   UNL     1       1.474   6.802  -1.599  0.00  0.00    -0.018 C 
ATOM     33  C   UNL     1       1.435   5.851  -0.401  0.00  0.00    -0.078 C 
ATOM     34  C   UNL     1      -0.052   7.337   0.803  0.00  0.00    -0.075 C 
ATOM     35  N   UNL     1       0.121   5.971   0.264  0.00  0.00    +0.383 N 
ATOM     36  H   UNL     1      -0.619   5.789  -0.424  0.00  0.00    -0.081 HD
ENDBRANCH  28  35
ENDBRANCH   1  28
TORSDOF 7
