REMARK  Name = ZINC55326026
REMARK  10 active torsions:
REMARK  status: ('A' for Active; 'I' for Inactive)
REMARK    1  A    between atoms: C_1  and  C_2
REMARK    2  A    between atoms: C_2  and  C_3
REMARK    3  A    between atoms: C_3  and  C_4
REMARK    4  A    between atoms: C_4  and  C_5
REMARK    5  A    between atoms: C_9  and  C_11
REMARK    6  A    between atoms: C_11  and  N_12
REMARK    7  A    between atoms: C_15  and  C_18
REMARK    8  A    between atoms: N_20  and  C_21
REMARK    9  A    between atoms: C_24  and  O_27
REMARK   10  A    between atoms: O_27  and  C_28
REMARK                            x       y       z     vdW  Elec       q    Type
REMARK                         _______ _______ _______ _____ _____    ______ ____
ROOT
ATOM      1  N   UNL     1      -8.243  -5.442   2.074  0.00  0.00    -0.297 NA
ATOM      2  C   UNL     1      -6.928  -5.691   1.471  0.00  0.00    +0.085 C 
ATOM      3  C   UNL     1      -6.585  -7.178   1.586  0.00  0.00    +0.028 C 
ATOM      4  C   UNL     1      -6.575  -7.581   3.063  0.00  0.00    +0.078 C 
ATOM      5  C   UNL     1      -7.941  -7.267   3.680  0.00  0.00    +0.028 C 
ATOM      6  C   UNL     1      -8.243  -5.777   3.504  0.00  0.00    +0.085 C 
ENDROOT
BRANCH   4   7
ATOM      7  C   UNL     1      -6.297  -9.058   3.180  0.00  0.00    +0.220 C 
ATOM      8  O   UNL     1      -6.125  -9.723   2.180  0.00  0.00    -0.275 OA
ATOM      9  N   UNL     1      -6.241  -9.639   4.394  0.00  0.00    -0.285 N 
ATOM     10  H   UNL     1      -6.273  -9.093   5.195  0.00  0.00    +0.155 HD
BRANCH   9  11
ATOM     11  C   UNL     1      -6.135 -11.032   4.500  0.00  0.00    +0.034 A 
ATOM     12  C   UNL     1      -6.712 -11.692   5.577  0.00  0.00    +0.027 A 
ATOM     13  C   UNL     1      -6.608 -13.065   5.681  0.00  0.00    +0.048 A 
ATOM     14  C   UNL     1      -5.928 -13.785   4.710  0.00  0.00    +0.129 A 
ATOM     15  C   UNL     1      -5.351 -13.126   3.633  0.00  0.00    +0.048 A 
ATOM     16  C   UNL     1      -5.460 -11.754   3.525  0.00  0.00    +0.027 A 
BRANCH  14  17
ATOM     17  O   UNL     1      -5.826 -15.137   4.812  0.00  0.00    -0.453 OA
BRANCH  17  18
ATOM     18  C   UNL     1      -6.482 -15.898   3.897  0.00  0.00    +0.163 A 
ATOM     19  C   UNL     1      -7.338 -15.302   2.983  0.00  0.00    +0.049 A 
ATOM     20  C   UNL     1      -8.004 -16.077   2.054  0.00  0.00    +0.004 A 
ATOM     21  C   UNL     1      -7.818 -17.447   2.032  0.00  0.00    +0.003 A 
ATOM     22  C   UNL     1      -6.965 -18.046   2.941  0.00  0.00    +0.042 A 
ATOM     23  C   UNL     1      -6.291 -17.274   3.870  0.00  0.00    +0.165 A 
ATOM     24  F   UNL     1      -5.454 -17.858   4.755  0.00  0.00    -0.202 F 
ENDBRANCH  17  18
ENDBRANCH  14  17
ENDBRANCH   9  11
ENDBRANCH   4   7
BRANCH   1  25
ATOM     25  C   UNL     1      -8.666  -4.051   1.860  0.00  0.00    +0.139 C 
BRANCH  25  30
ATOM     26  C   UNL     1      -8.567  -3.364  -1.729  0.00  0.00    +0.084 A 
ATOM     27  N   UNL     1      -9.836  -3.616  -1.560  0.00  0.00    -0.350 N 
ATOM     28  H   UNL     1      -6.993  -3.355  -0.372  0.00  0.00    +0.167 HD
ATOM     29  C   UNL     1     -10.063  -3.897  -0.268  0.00  0.00    +0.106 A 
ATOM     30  C   UNL     1      -8.890  -3.816   0.388  0.00  0.00    +0.047 A 
ATOM     31  N   UNL     1      -7.940  -3.484  -0.539  0.00  0.00    -0.346 N 
ATOM     32  H   UNL     1     -10.509  -3.602  -2.258  0.00  0.00    +0.166 HD
BRANCH  26  33
ATOM     33  C   UNL     1      -7.909  -3.006  -3.037  0.00  0.00    +0.072 C 
BRANCH  33  34
ATOM     34  C   UNL     1      -7.929  -1.487  -3.218  0.00  0.00    +0.007 C 
BRANCH  34  36
ATOM     35  C   UNL     1      -7.281   0.396  -4.726  0.00  0.00    +0.004 C 
ATOM     36  C   UNL     1      -7.261  -1.123  -4.545  0.00  0.00    -0.003 C 
ENDBRANCH  34  36
ENDBRANCH  33  34
ENDBRANCH  26  33
ENDBRANCH  25  30
ENDBRANCH   1  25
TORSDOF 9
