REMARK  Name = ZINC23465957
REMARK  7 active torsions:
REMARK  status: ('A' for Active; 'I' for Inactive)
REMARK    1  A    between atoms: C_1  and  C_2
REMARK    2  A    between atoms: C_4  and  C_8
REMARK    3  A    between atoms: C_5  and  C_7
REMARK    4  A    between atoms: C_12  and  C_14
REMARK    5  A    between atoms: N_19  and  C_21
REMARK    6  A    between atoms: C_21  and  C_22
REMARK    7  A    between atoms: C_21  and  C_23
REMARK                            x       y       z     vdW  Elec       q    Type
REMARK                         _______ _______ _______ _____ _____    ______ ____
ROOT
ATOM      1  C   UNL     1      -2.764   0.344   6.422  0.00  0.00    +0.065 A 
ATOM      2  C   UNL     1      -1.606   1.028   6.612  0.00  0.00    +0.110 A 
ATOM      3  N   UNL     1      -1.264   1.565   5.400  0.00  0.00    -0.349 N 
ATOM      4  H   UNL     1      -0.350   2.169   5.305  0.00  0.00    +0.166 HD
ATOM      5  C   UNL     1      -2.213   1.196   4.513  0.00  0.00    +0.090 A 
ATOM      6  N   UNL     1      -3.109   0.474   5.126  0.00  0.00    -0.343 N 
ATOM      7  H   UNL     1      -4.029  -0.001   4.751  0.00  0.00    +0.167 HD
ENDROOT
BRANCH   1  11
ATOM      8  C   UNL     1      -3.487  -1.361  11.152  0.00  0.00    +0.051 C 
ATOM      9  C   UNL     1      -3.773  -1.157   9.686  0.00  0.00    -0.012 A 
ATOM     10  C   UNL     1      -3.059  -0.462   8.771  0.00  0.00    +0.021 A 
ATOM     11  C   UNL     1      -3.517  -0.407   7.458  0.00  0.00    +0.010 A 
ATOM     12  C   UNL     1      -4.678  -1.055   7.145  0.00  0.00    -0.004 A 
ATOM     13  S   UNL     1      -5.140  -1.768   8.715  0.00  0.00    -0.098 S 
ATOM     14  C   UNL     1      -5.386  -1.145   5.817  0.00  0.00    +0.052 C 
ENDBRANCH   1  11
BRANCH   5  15
ATOM     15  C   UNL     1      -2.237   1.567   3.052  0.00  0.00    +0.079 C 
ATOM     16  C   UNL     1      -1.637   2.974   2.828  0.00  0.00    +0.108 C 
ATOM     17  C   UNL     1      -0.886   2.853   1.521  0.00  0.00    +0.217 C 
ATOM     18  O   UNL     1      -0.508   3.789   0.848  0.00  0.00    -0.276 OA
ATOM     19  N   UNL     1      -0.698   1.558   1.213  0.00  0.00    -0.298 N 
ATOM     20  C   UNL     1      -1.274   0.678   2.237  0.00  0.00    +0.119 C 
BRANCH  19  21
ATOM     21  C   UNL     1      -0.013   1.086   0.008  0.00  0.00    +0.070 C 
ATOM     22  C   UNL     1       1.423   1.615  -0.003  0.00  0.00    +0.028 C 
ATOM     23  C   UNL     1      -0.753   1.593  -1.232  0.00  0.00    +0.028 C 
ENDBRANCH  19  21
ENDBRANCH   5  15
TORSDOF 3
