REMARK  Name = ZINC36521202
REMARK  16 active torsions:
REMARK  status: ('A' for Active; 'I' for Inactive)
REMARK    1  A    between atoms: C_1  and  C_2
REMARK    2  A    between atoms: C_2  and  C_3
REMARK    3  A    between atoms: C_3  and  C_4
REMARK    4  A    between atoms: C_4  and  C_5
REMARK    5  A    between atoms: C_5  and  C_6
REMARK    6  A    between atoms: C_6  and  N_7
REMARK    7  A    between atoms: N_7  and  C_8
REMARK    8  A    between atoms: C_8  and  C_10
REMARK    9  A    between atoms: C_8  and  C_18
REMARK   10  A    between atoms: C_13  and  C_17
REMARK   11  A    between atoms: C_15  and  C_16
REMARK   12  A    between atoms: N_20  and  C_21
REMARK   13  A    between atoms: C_21  and  S_22
REMARK   14  A    between atoms: S_22  and  C_25
REMARK   15  A    between atoms: C_28  and  C_31
REMARK   16  A    between atoms: C_32  and  C_34
REMARK                            x       y       z     vdW  Elec       q    Type
REMARK                         _______ _______ _______ _____ _____    ______ ____
ROOT
ATOM      1  C   UNL     1      -3.661  -4.649  -1.468  0.00  0.00    +0.193 C 
ENDROOT
BRANCH   1   2
ATOM      2  C   UNL     1      -5.076  -4.147  -1.600  0.00  0.00    -0.015 A 
ATOM      3  C   UNL     1      -5.737  -3.645  -0.495  0.00  0.00    +0.006 A 
ATOM      4  C   UNL     1      -7.035  -3.185  -0.616  0.00  0.00    +0.004 A 
ATOM      5  C   UNL     1      -7.671  -3.226  -1.843  0.00  0.00    -0.050 A 
ATOM      6  C   UNL     1      -7.010  -3.727  -2.948  0.00  0.00    +0.007 A 
ATOM      7  C   UNL     1      -5.710  -4.184  -2.828  0.00  0.00    -0.045 A 
ATOM      8  C   UNL     1      -4.987  -4.725  -4.034  0.00  0.00    +0.044 C 
ATOM      9  C   UNL     1      -9.087  -2.726  -1.975  0.00  0.00    +0.044 C 
ENDBRANCH   1   2
BRANCH   1  10
ATOM     10  C   UNL     1      -3.669  -6.152  -1.360  0.00  0.00    +0.239 C 
ATOM     11  O   UNL     1      -3.327  -6.687  -0.326  0.00  0.00    -0.273 OA
ATOM     12  N   UNL     1      -4.056  -6.901  -2.411  0.00  0.00    -0.294 N 
ATOM     13  H   UNL     1      -4.228  -6.482  -3.268  0.00  0.00    +0.150 HD
BRANCH  12  14
ATOM     14  C   UNL     1      -4.218  -8.349  -2.258  0.00  0.00    +0.278 C 
BRANCH  14  15
ATOM     15  S   UNL     1      -5.959  -8.793  -2.507  0.00  0.00    +0.013 S 
ATOM     16  O   UNL     1      -6.114 -10.205  -2.470  0.00  0.00    -0.168 OA
ATOM     17  O   UNL     1      -6.795  -7.952  -1.725  0.00  0.00    -0.168 OA
BRANCH  15  18
ATOM     18  C   UNL     1      -6.306  -8.346  -4.176  0.00  0.00    +0.090 A 
ATOM     19  C   UNL     1      -6.767  -7.077  -4.470  0.00  0.00    +0.027 A 
ATOM     20  C   UNL     1      -7.039  -6.726  -5.779  0.00  0.00    +0.005 A 
ATOM     21  C   UNL     1      -6.850  -7.645  -6.794  0.00  0.00    -0.050 A 
ATOM     22  C   UNL     1      -6.388  -8.915  -6.500  0.00  0.00    +0.005 A 
ATOM     23  C   UNL     1      -6.112  -9.264  -5.191  0.00  0.00    +0.027 A 
ATOM     24  C   UNL     1      -7.148  -7.263  -8.221  0.00  0.00    +0.044 C 
ENDBRANCH  15  18
ENDBRANCH  14  15
ENDBRANCH  12  14
ENDBRANCH   1  10
BRANCH   1  25
ATOM     25  N   UNL     1      -3.050  -4.076  -0.266  0.00  0.00    -0.282 N 
ATOM     26  C   UNL     1      -3.417  -4.519   0.953  0.00  0.00    +0.249 C 
ATOM     27  O   UNL     1      -3.011  -3.956   1.951  0.00  0.00    -0.270 OA
BRANCH  26  28
ATOM     28  C   UNL     1      -4.312  -5.688   1.076  0.00  0.00    +0.055 A 
ATOM     29  C   UNL     1      -4.374  -6.415   2.271  0.00  0.00    +0.016 A 
ATOM     30  C   UNL     1      -5.229  -7.501   2.334  0.00  0.00    +0.020 A 
ATOM     31  C   UNL     1      -5.988  -7.831   1.226  0.00  0.00    +0.111 A 
ATOM     32  N   UNL     1      -5.909  -7.128   0.113  0.00  0.00    -0.263 NA
ATOM     33  C   UNL     1      -5.115  -6.083   0.005  0.00  0.00    +0.123 A 
ENDBRANCH  26  28
BRANCH  25  34
ATOM     34  C   UNL     1      -2.040  -3.021  -0.390  0.00  0.00    +0.109 C 
BRANCH  34  35
ATOM     35  C   UNL     1      -2.734  -1.662  -0.504  0.00  0.00    +0.019 C 
BRANCH  35  36
ATOM     36  C   UNL     1      -1.679  -0.561  -0.632  0.00  0.00    +0.002 C 
BRANCH  36  37
ATOM     37  C   UNL     1      -2.373   0.798  -0.747  0.00  0.00    -0.000 C 
BRANCH  37  39
ATOM     38  C   UNL     1      -2.012   3.258  -0.989  0.00  0.00    +0.004 C 
ATOM     39  C   UNL     1      -1.318   1.899  -0.875  0.00  0.00    -0.003 C 
ENDBRANCH  37  39
ENDBRANCH  36  37
ENDBRANCH  35  36
ENDBRANCH  34  35
ENDBRANCH  25  34
ENDBRANCH   1  25
TORSDOF 12
