REMARK  Name = ZINC19911599
REMARK  7 active torsions:
REMARK  status: ('A' for Active; 'I' for Inactive)
REMARK    1  A    between atoms: C_1  and  C_2
REMARK    2  A    between atoms: C_7  and  C_20
REMARK    3  A    between atoms: C_12  and  C_13
REMARK    4  A    between atoms: C_13  and  C_14
REMARK    5  A    between atoms: C_20  and  N_21
REMARK    6  A    between atoms: N_21  and  C_22
REMARK    7  A    between atoms: N_21  and  C_23
REMARK                            x       y       z     vdW  Elec       q    Type
REMARK                         _______ _______ _______ _____ _____    ______ ____
ROOT
ATOM      1  C   UNL     1      -1.280  -0.796   0.009  0.00  0.00    +0.045 C 
ATOM      2  C   UNL     1       0.002  -0.004   0.002  0.00  0.00    -0.029 A 
ATOM      3  C   UNL     1      -0.018   1.460   0.010  0.00  0.00    +0.023 A 
ATOM      4  C   UNL     1      -1.228   2.164   0.031  0.00  0.00    +0.035 A 
ATOM      5  C   UNL     1      -1.218   3.529   0.033  0.00  0.00    +0.089 A 
ATOM      6  C   UNL     1      -0.010   4.227   0.025  0.00  0.00    +0.202 A 
ATOM      7  C   UNL     1       1.196   3.546   0.010  0.00  0.00    +0.027 A 
ATOM      8  C   UNL     1       1.204   2.159   0.002  0.00  0.00    +0.144 A 
ATOM      9  O   UNL     1       2.369   1.475  -0.013  0.00  0.00    -0.422 OA
ATOM     10  C   UNL     1       2.394   0.134  -0.020  0.00  0.00    +0.341 A 
ATOM     11  O   UNL     1       3.468  -0.440  -0.034  0.00  0.00    -0.245 OA
ATOM     12  C   UNL     1       1.208  -0.630  -0.013  0.00  0.00    +0.045 A 
ATOM     13  O   UNL     1      -0.016   5.584   0.032  0.00  0.00    -0.286 OA
ATOM     14 CL   UNL     1      -2.718   4.403   0.052  0.00  0.00    -0.080 Cl
ENDROOT
BRANCH  12  15
ATOM     15  C   UNL     1       1.278  -2.135  -0.021  0.00  0.00    +0.077 C 
BRANCH  15  16
ATOM     16  C   UNL     1       1.288  -2.630  -1.445  0.00  0.00    -0.043 A 
ATOM     17  C   UNL     1       0.097  -2.918  -2.084  0.00  0.00    +0.004 A 
ATOM     18  C   UNL     1       0.105  -3.367  -3.392  0.00  0.00    +0.000 A 
ATOM     19  C   UNL     1       1.306  -3.537  -4.056  0.00  0.00    +0.000 A 
ATOM     20  C   UNL     1       2.497  -3.255  -3.414  0.00  0.00    +0.000 A 
ATOM     21  C   UNL     1       2.488  -2.800  -2.109  0.00  0.00    +0.004 A 
ENDBRANCH  15  16
ENDBRANCH  12  15
BRANCH   7  22
ATOM     22  C   UNL     1       2.495   4.309   0.002  0.00  0.00    -0.036 C 
BRANCH  22  23
ATOM     23  N   UNL     1       2.904   4.564  -1.386  0.00  0.00    +0.379 N 
ATOM     24  C   UNL     1       1.962   5.472  -2.054  0.00  0.00    -0.096 C 
ATOM     25  C   UNL     1       4.274   5.093  -1.442  0.00  0.00    -0.096 C 
ATOM     26  H   UNL     1       2.890   3.605  -1.924  0.00  0.00    -0.082 HD
ENDBRANCH  22  23
ENDBRANCH   7  22
TORSDOF 4
