REMARK  Name = ZINC00862432
REMARK  5 active torsions:
REMARK  status: ('A' for Active; 'I' for Inactive)
REMARK    1  A    between atoms: C_1  and  C_2
REMARK    2  A    between atoms: C_2  and  C_4
REMARK    3  A    between atoms: C_2  and  S_14
REMARK    4  A    between atoms: N_6  and  C_7
REMARK    5  A    between atoms: S_14  and  C_15
REMARK                            x       y       z     vdW  Elec       q    Type
REMARK                         _______ _______ _______ _____ _____    ______ ____
ROOT
ATOM      1  S   UNL     1       3.999  -4.769  -0.973  0.00  0.00    -0.072 S 
ENDROOT
BRANCH   1   2
ATOM      2  C   UNL     1       3.692  -6.496  -1.139  0.00  0.00    +0.212 A 
ATOM      3  N   UNL     1       4.637  -7.279  -1.644  0.00  0.00    -0.201 NA
ATOM      4  C   UNL     1       4.404  -8.582  -1.769  0.00  0.00    +0.162 A 
ATOM      5  C   UNL     1       3.151  -9.080  -1.354  0.00  0.00    +0.137 A 
ATOM      6  C   UNL     1       3.179 -10.531  -1.606  0.00  0.00    +0.029 A 
ATOM      7  C   UNL     1       2.258 -11.557  -1.409  0.00  0.00    +0.012 A 
ATOM      8  C   UNL     1       2.589 -12.850  -1.755  0.00  0.00    +0.001 A 
ATOM      9  C   UNL     1       3.833 -13.131  -2.296  0.00  0.00    +0.002 A 
ATOM     10  C   UNL     1       4.754 -12.124  -2.496  0.00  0.00    +0.026 A 
ATOM     11  C   UNL     1       4.439 -10.814  -2.154  0.00  0.00    +0.050 A 
ATOM     12  N   UNL     1       5.154  -9.630  -2.241  0.00  0.00    -0.338 N 
ATOM     13  H   UNL     1       6.057  -9.553  -2.588  0.00  0.00    +0.167 HD
ATOM     14  N   UNL     1       2.250  -8.246  -0.857  0.00  0.00    -0.143 NA
ATOM     15  N   UNL     1       2.522  -6.990  -0.750  0.00  0.00    -0.122 NA
ENDBRANCH   1   2
BRANCH   1  17
ATOM     16  C   UNL     1       2.256  -4.862   1.128  0.00  0.00    +0.029 C 
ATOM     17  C   UNL     1       2.424  -4.237  -0.258  0.00  0.00    +0.137 C 
BRANCH  17  18
ATOM     18  C   UNL     1       2.409  -2.735  -0.137  0.00  0.00    +0.230 C 
ATOM     19  O   UNL     1       3.451  -2.116  -0.144  0.00  0.00    -0.274 OA
ATOM     20  N   UNL     1       1.237  -2.080  -0.020  0.00  0.00    -0.285 N 
ATOM     21  H   UNL     1       0.409  -2.579   0.062  0.00  0.00    +0.155 HD
BRANCH  20  22
ATOM     22  C   UNL     1       1.214  -0.681  -0.019  0.00  0.00    +0.033 A 
ATOM     23  C   UNL     1       2.137   0.031  -0.774  0.00  0.00    +0.024 A 
ATOM     24  C   UNL     1       2.112   1.411  -0.771  0.00  0.00    +0.017 A 
ATOM     25  C   UNL     1       1.169   2.086  -0.017  0.00  0.00    +0.018 A 
ATOM     26  C   UNL     1       0.248   1.380   0.737  0.00  0.00    +0.017 A 
ATOM     27  C   UNL     1       0.268  -0.001   0.738  0.00  0.00    +0.024 A 
ATOM     28 BR   UNL     1       1.139   3.977  -0.015  0.00  0.00    -0.050 Br
ENDBRANCH  20  22
ENDBRANCH  17  18
ENDBRANCH   1  17
TORSDOF 4
