REMARK  Name = ZINC00039347
REMARK  3 active torsions:
REMARK  status: ('A' for Active; 'I' for Inactive)
REMARK    1  A    between atoms: C_3  and  C_8
REMARK    2  A    between atoms: N_10  and  N_11
REMARK    3  A    between atoms: C_12  and  C_13
REMARK                            x       y       z     vdW  Elec       q    Type
REMARK                         _______ _______ _______ _____ _____    ______ ____
ROOT
ATOM      1  C   UNL     1       3.656   2.161  -0.022  0.00  0.00    +0.263 C 
ATOM      2  O   UNL     1       3.642   3.377  -0.015  0.00  0.00    -0.268 OA
ATOM      3  N   UNL     1       4.831   1.501  -0.036  0.00  0.00    -0.203 N 
ATOM      4  H   UNL     1       4.843   0.531  -0.041  0.00  0.00    +0.178 HD
ENDROOT
BRANCH   1   7
ATOM      5  C   UNL     1      -0.017   1.379   0.010  0.00  0.00    +0.002 A 
ATOM      6  C   UNL     1       1.167   2.088   0.002  0.00  0.00    +0.013 A 
ATOM      7  C   UNL     1       2.385   1.408  -0.013  0.00  0.00    +0.039 A 
ATOM      8  C   UNL     1       2.398   0.012  -0.021  0.00  0.00    +0.028 A 
ATOM      9  C   UNL     1       1.207  -0.686  -0.013  0.00  0.00    +0.019 A 
ATOM     10  C   UNL     1       0.002  -0.004   0.002  0.00  0.00    +0.015 A 
ATOM     11 BR   UNL     1       1.221  -2.577  -0.024  0.00  0.00    -0.050 Br
ENDBRANCH   1   7
BRANCH   3  12
ATOM     12  N   UNL     1       6.036   2.216  -0.044  0.00  0.00    -0.186 NA
ATOM     13  C   UNL     1       7.170   1.579  -0.059  0.00  0.00    +0.156 C 
BRANCH  13  14
ATOM     14  C   UNL     1       8.432   2.327  -0.067  0.00  0.00    +0.059 A 
ATOM     15  C   UNL     1       8.565   3.698  -0.056  0.00  0.00    +0.028 A 
ATOM     16  C   UNL     1       9.938   3.980  -0.069  0.00  0.00    +0.019 A 
ATOM     17  C   UNL     1      10.603   2.803  -0.088  0.00  0.00    +0.083 A 
ATOM     18  N   UNL     1       9.696   1.787  -0.082  0.00  0.00    -0.360 N 
ATOM     19  H   UNL     1       9.907   0.840  -0.089  0.00  0.00    +0.165 HD
ENDBRANCH  13  14
ENDBRANCH   3  12
TORSDOF 3
