REMARK  Name = ZINC33569099
REMARK  5 active torsions:
REMARK  status: ('A' for Active; 'I' for Inactive)
REMARK    1  A    between atoms: C_4  and  C_7
REMARK    2  A    between atoms: C_8  and  C_9
REMARK    3  A    between atoms: N_11  and  C_12
REMARK    4  A    between atoms: C_20  and  C_21
REMARK    5  A    between atoms: C_21  and  C_23
REMARK                            x       y       z     vdW  Elec       q    Type
REMARK                         _______ _______ _______ _____ _____    ______ ____
ROOT
ATOM      1  C   UNL     1       2.300   5.692   0.070  0.00  0.00    +0.091 A 
ATOM      2  C   UNL     1       3.426   6.575  -0.254  0.00  0.00    +0.042 A 
ATOM      3  C   UNL     1       4.724   6.359  -0.721  0.00  0.00    +0.013 A 
ATOM      4  C   UNL     1       5.553   7.424  -0.937  0.00  0.00    +0.001 A 
ATOM      5  C   UNL     1       5.109   8.718  -0.701  0.00  0.00    +0.004 A 
ATOM      6  C   UNL     1       3.830   8.952  -0.245  0.00  0.00    +0.047 A 
ATOM      7  C   UNL     1       2.969   7.883  -0.018  0.00  0.00    +0.138 A 
ATOM      8  O   UNL     1       1.695   7.809   0.416  0.00  0.00    -0.450 OA
ATOM      9  C   UNL     1       1.276   6.525   0.477  0.00  0.00    +0.197 A 
ENDROOT
BRANCH   1  12
ATOM     10  C   UNL     1       3.080   3.666  -0.875  0.00  0.00    +0.241 C 
ATOM     11  O   UNL     1       3.786   4.302  -1.635  0.00  0.00    -0.270 OA
ATOM     12  N   UNL     1       2.271   4.308  -0.009  0.00  0.00    -0.278 N 
ATOM     13  H   UNL     1       1.588   3.734   0.634  0.00  0.00    +0.155 HD
BRANCH  10  15
ATOM     14  C   UNL     1       3.918   1.560  -1.769  0.00  0.00    +0.013 C 
ATOM     15  C   UNL     1       3.109   2.203  -0.902  0.00  0.00    +0.068 C 
BRANCH  14  19
ATOM     16  C   UNL     1       4.003  -2.680  -1.847  0.00  0.00    +0.000 A 
ATOM     17  C   UNL     1       4.808  -1.960  -2.713  0.00  0.00    +0.001 A 
ATOM     18  C   UNL     1       4.786  -0.581  -2.693  0.00  0.00    +0.008 A 
ATOM     19  C   UNL     1       3.948   0.089  -1.796  0.00  0.00    -0.025 A 
ATOM     20  C   UNL     1       3.142  -0.646  -0.921  0.00  0.00    +0.008 A 
ATOM     21  C   UNL     1       3.171  -2.025  -0.956  0.00  0.00    +0.001 A 
ENDBRANCH  14  19
ENDBRANCH  10  15
ENDBRANCH   1  12
BRANCH   9  22
ATOM     22  C   UNL     1      -0.010   6.102   0.893  0.00  0.00    +0.230 C 
ATOM     23  O   UNL     1      -0.255   4.913   1.000  0.00  0.00    -0.283 OA
BRANCH  22  24
ATOM     24  C   UNL     1      -1.056   7.102   1.196  0.00  0.00    +0.026 A 
ATOM     25  C   UNL     1      -0.741   8.463   1.207  0.00  0.00    +0.014 A 
ATOM     26  C   UNL     1      -1.722   9.392   1.484  0.00  0.00    +0.039 A 
ATOM     27  C   UNL     1      -3.015   8.976   1.764  0.00  0.00    +0.123 A 
ATOM     28  C   UNL     1      -3.331   7.626   1.760  0.00  0.00    +0.039 A 
ATOM     29  C   UNL     1      -2.360   6.689   1.478  0.00  0.00    +0.014 A 
ATOM     30  F   UNL     1      -3.970   9.890   2.040  0.00  0.00    -0.205 F 
ENDBRANCH  22  24
ENDBRANCH   9  22
TORSDOF 5
