REMARK  Name = ZINC18996645
REMARK  3 active torsions:
REMARK  status: ('A' for Active; 'I' for Inactive)
REMARK    1  A    between atoms: C_4  and  N_7
REMARK    2  A    between atoms: N_7  and  C_8
REMARK    3  A    between atoms: C_13  and  C_14
REMARK                            x       y       z     vdW  Elec       q    Type
REMARK                         _______ _______ _______ _____ _____    ______ ____
ROOT
ATOM      1  C   UNL     1       3.606  -2.024   0.650  0.00  0.00    +0.175 C 
ATOM      2  N   UNL     1       2.605  -2.881   0.781  0.00  0.00    -0.152 NA
ATOM      3  C   UNL     1       2.777  -4.182   0.715  0.00  0.00    +0.276 C 
ATOM      4  O   UNL     1       1.846  -4.962   0.836  0.00  0.00    -0.267 OA
ATOM      5  C   UNL     1       4.166  -4.650   0.484  0.00  0.00    +0.080 C 
ATOM      6  C   UNL     1       4.649  -5.912   0.371  0.00  0.00    +0.029 C 
ATOM      7  S   UNL     1       5.021  -3.083   0.390  0.00  0.00    -0.050 S 
ENDROOT
BRANCH   6   8
ATOM      8  C   UNL     1       3.723  -7.051   0.301  0.00  0.00    -0.006 A 
ATOM      9  C   UNL     1       2.498  -6.935  -0.375  0.00  0.00    +0.011 A 
ATOM     10  C   UNL     1       1.663  -8.037  -0.411  0.00  0.00    +0.020 A 
ATOM     11  C   UNL     1       2.058  -9.207   0.213  0.00  0.00    +0.111 A 
ATOM     12  N   UNL     1       3.215  -9.289   0.842  0.00  0.00    -0.263 NA
ATOM     13  C   UNL     1       4.049  -8.272   0.901  0.00  0.00    +0.118 A 
ENDBRANCH   6   8
BRANCH   1  14
ATOM     14  N   UNL     1       3.565  -0.655   0.698  0.00  0.00    -0.192 NA
BRANCH  14  18
ATOM     15  C   UNL     1       0.086   1.284   1.916  0.00  0.00    +0.000 A 
ATOM     16  C   UNL     1       0.334  -0.013   2.329  0.00  0.00    +0.002 A 
ATOM     17  C   UNL     1       1.487  -0.658   1.927  0.00  0.00    +0.025 A 
ATOM     18  C   UNL     1       2.397  -0.005   1.107  0.00  0.00    +0.056 A 
ATOM     19  C   UNL     1       2.145   1.297   0.694  0.00  0.00    +0.025 A 
ATOM     20  C   UNL     1       0.990   1.937   1.100  0.00  0.00    +0.002 A 
ENDBRANCH  14  18
ENDBRANCH   1  14
TORSDOF 3
