REMARK  Name = ZINC08315130
REMARK  8 active torsions:
REMARK  status: ('A' for Active; 'I' for Inactive)
REMARK    1  A    between atoms: C_1  and  C_2
REMARK    2  A    between atoms: C_5  and  S_9
REMARK    3  A    between atoms: C_6  and  C_8
REMARK    4  A    between atoms: S_9  and  C_10
REMARK    5  A    between atoms: C_10  and  C_11
REMARK    6  A    between atoms: N_13  and  C_14
REMARK    7  A    between atoms: C_14  and  C_15
REMARK    8  A    between atoms: N_17  and  C_18
REMARK                            x       y       z     vdW  Elec       q    Type
REMARK                         _______ _______ _______ _____ _____    ______ ____
ROOT
ATOM      1  C   UNL     1       1.857   3.721  -0.029  0.00  0.00    +0.224 C 
ATOM      2  O   UNL     1       0.859   4.411  -0.021  0.00  0.00    -0.275 OA
ATOM      3  N   UNL     1       3.075   4.298  -0.027  0.00  0.00    -0.306 N 
ATOM      4  H   UNL     1       3.873   3.746  -0.033  0.00  0.00    +0.149 HD
ENDROOT
BRANCH   1   5
ATOM      5  C   UNL     1       1.734   2.220  -0.040  0.00  0.00    +0.170 C 
BRANCH   5   6
ATOM      6  S   UNL     1      -0.020   1.756  -0.040  0.00  0.00    -0.116 S 
BRANCH   6  11
ATOM      7  C   UNL     1       0.064  -4.279  -0.088  0.00  0.00    +0.044 C 
ATOM      8  C   UNL     1       0.043  -2.772  -0.076  0.00  0.00    -0.050 A 
ATOM      9  C   UNL     1       1.232  -2.066  -0.074  0.00  0.00    +0.004 A 
ATOM     10  C   UNL     1       1.217  -0.685  -0.063  0.00  0.00    +0.015 A 
ATOM     11  C   UNL     1       0.004  -0.006  -0.054  0.00  0.00    +0.011 A 
ATOM     12  C   UNL     1      -1.188  -0.719  -0.052  0.00  0.00    -0.037 A 
ATOM     13  C   UNL     1      -1.165  -2.099  -0.068  0.00  0.00    +0.007 A 
ATOM     14  C   UNL     1      -2.505   0.014  -0.036  0.00  0.00    +0.045 C 
ENDBRANCH   6  11
ENDBRANCH   5   6
ENDBRANCH   1   5
BRANCH   3  15
ATOM     15  C   UNL     1       3.194   5.758  -0.015  0.00  0.00    +0.200 C 
BRANCH  15  16
ATOM     16  C   UNL     1       4.651   6.143  -0.015  0.00  0.00    +0.234 C 
ATOM     17  O   UNL     1       5.506   5.282  -0.024  0.00  0.00    -0.274 OA
ATOM     18  N   UNL     1       5.005   7.444  -0.006  0.00  0.00    -0.283 N 
ATOM     19  H   UNL     1       4.324   8.132  -0.064  0.00  0.00    +0.155 HD
BRANCH  18  20
ATOM     20  C   UNL     1       6.354   7.801   0.089  0.00  0.00    +0.047 A 
ATOM     21  C   UNL     1       7.327   7.016  -0.516  0.00  0.00    +0.024 A 
ATOM     22  C   UNL     1       8.658   7.373  -0.424  0.00  0.00    +0.002 A 
ATOM     23  C   UNL     1       9.024   8.508   0.277  0.00  0.00    +0.001 A 
ATOM     24  C   UNL     1       8.059   9.290   0.885  0.00  0.00    +0.017 A 
ATOM     25  C   UNL     1       6.725   8.940   0.793  0.00  0.00    +0.039 A 
ATOM     26 BR   UNL     1       5.406  10.010   1.625  0.00  0.00    -0.048 Br
ENDBRANCH  18  20
ENDBRANCH  15  16
ENDBRANCH   3  15
TORSDOF 6
