REMARK  Name = ZINC07541052
REMARK  11 active torsions:
REMARK  status: ('A' for Active; 'I' for Inactive)
REMARK    1  A    between atoms: C_1  and  C_2
REMARK    2  A    between atoms: C_2  and  C_4
REMARK    3  A    between atoms: C_2  and  O_28
REMARK    4  A    between atoms: C_7  and  C_10
REMARK    5  A    between atoms: C_13  and  C_15
REMARK    6  A    between atoms: C_15  and  N_51
REMARK    7  A    between atoms: C_16  and  C_17
REMARK    8  A    between atoms: C_16  and  N_51
REMARK    9  A    between atoms: C_17  and  C_18
REMARK   10  A    between atoms: C_21  and  S_24
REMARK   11  A    between atoms: S_24  and  N_27
REMARK                            x       y       z     vdW  Elec       q    Type
REMARK                         _______ _______ _______ _____ _____    ______ ____
ROOT
ATOM      1  N   UNL     1       6.554   4.156   1.358  0.00  0.00    +0.384 N 
ATOM      2  H   UNL     1       6.113   3.362   1.837  0.00  0.00    -0.085 HD
ATOM      3  H   UNL     1       6.312   5.027   1.845  0.00  0.00    -0.085 HD
ENDROOT
BRANCH   1   4
ATOM      4  C   UNL     1       6.062   4.221  -0.031  0.00  0.00    -0.007 C 
BRANCH   4   8
ATOM      5  C   UNL     1       2.420   3.937   0.001  0.00  0.00    +0.135 A 
ATOM      6  C   UNL     1       2.536   5.292   0.007  0.00  0.00    +0.050 A 
ATOM      7  C   UNL     1       3.916   5.580  -0.004  0.00  0.00    +0.043 A 
ATOM      8  C   UNL     1       4.566   4.400  -0.017  0.00  0.00    +0.089 A 
ATOM      9  O   UNL     1       3.659   3.409  -0.008  0.00  0.00    -0.462 OA
BRANCH   5  13
ATOM     10  C   UNL     1      -1.221   1.750   0.017  0.00  0.00    -0.019 A 
ATOM     11  C   UNL     1      -0.013   1.076   0.008  0.00  0.00    +0.007 A 
ATOM     12  C   UNL     1       1.173   1.780   0.000  0.00  0.00    +0.012 A 
ATOM     13  C   UNL     1       1.153   3.176   0.008  0.00  0.00    +0.017 A 
ATOM     14  C   UNL     1      -0.070   3.850   0.023  0.00  0.00    +0.012 A 
ATOM     15  C   UNL     1      -1.249   3.133   0.031  0.00  0.00    +0.007 A 
BRANCH  10  17
ATOM     16  C   UNL     1      -3.072   0.918   1.442  0.00  0.00    +0.043 C 
ATOM     17  C   UNL     1      -2.513   0.974   0.019  0.00  0.00    +0.141 C 
BRANCH  17  18
ATOM     18  O   UNL     1      -3.457   1.618  -0.839  0.00  0.00    -0.387 OA
ATOM     19  H   UNL     1      -4.313   1.171  -0.886  0.00  0.00    +0.210 HD
ENDBRANCH  17  18
ENDBRANCH  10  17
ENDBRANCH   5  13
ENDBRANCH   4   8
ENDBRANCH   1   4
BRANCH   1  20
ATOM     20  C   UNL     1       8.019   3.980   1.375  0.00  0.00    -0.077 C 
BRANCH  20  21
ATOM     21  C   UNL     1       8.500   3.916   2.826  0.00  0.00    +0.016 C 
BRANCH  21  22
ATOM     22  C   UNL     1       9.996   3.737   2.852  0.00  0.00    -0.049 A 
ATOM     23  C   UNL     1      10.540   2.466   2.864  0.00  0.00    +0.005 A 
ATOM     24  C   UNL     1      11.912   2.302   2.883  0.00  0.00    +0.029 A 
ATOM     25  C   UNL     1      12.740   3.409   2.900  0.00  0.00    +0.105 A 
ATOM     26  C   UNL     1      12.197   4.679   2.893  0.00  0.00    +0.029 A 
ATOM     27  C   UNL     1      10.824   4.844   2.869  0.00  0.00    +0.005 A 
BRANCH  25  28
ATOM     28  S   UNL     1      14.490   3.199   2.929  0.00  0.00    +0.056 S 
ATOM     29  O   UNL     1      14.754   1.915   2.380  0.00  0.00    -0.153 OA
ATOM     30  O   UNL     1      15.050   4.388   2.389  0.00  0.00    -0.153 OA
BRANCH  28  31
ATOM     31  N   UNL     1      14.949   3.138   4.519  0.00  0.00    -0.204 NA
ATOM     32  H   UNL     1      14.283   3.215   5.219  0.00  0.00    +0.144 HD
ATOM     33  H   UNL     1      15.884   3.025   4.749  0.00  0.00    +0.144 HD
ENDBRANCH  28  31
ENDBRANCH  25  28
ENDBRANCH  21  22
ENDBRANCH  20  21
ENDBRANCH   1  20
TORSDOF 10
