REMARK  Name = ZINC15947080
REMARK  9 active torsions:
REMARK  status: ('A' for Active; 'I' for Inactive)
REMARK    1  A    between atoms: C_1  and  C_2
REMARK    2  A    between atoms: C_2  and  O_3
REMARK    3  A    between atoms: O_3  and  C_4
REMARK    4  A    between atoms: C_8  and  C_11
REMARK    5  A    between atoms: C_9  and  O_10
REMARK    6  A    between atoms: N_20  and  C_23
REMARK    7  A    between atoms: C_23  and  C_24
REMARK    8  A    between atoms: C_23  and  C_25
REMARK    9  A    between atoms: C_26  and  O_28
REMARK                            x       y       z     vdW  Elec       q    Type
REMARK                         _______ _______ _______ _____ _____    ______ ____
ROOT
ATOM      1  C   UNL     1       2.147  -4.262  -3.705  0.00  0.00    +0.229 C 
ATOM      2  N   UNL     1       1.573  -5.579  -4.037  0.00  0.00    -0.313 N 
ATOM      3  C   UNL     1       0.431  -5.569  -4.806  0.00  0.00    +0.080 A 
ATOM      4  C   UNL     1       0.121  -4.503  -5.660  0.00  0.00    +0.067 A 
ATOM      5  C   UNL     1      -1.121  -4.631  -6.394  0.00  0.00    -0.027 A 
ATOM      6  C   UNL     1      -1.805  -5.775  -6.153  0.00  0.00    -0.021 A 
ATOM      7  S   UNL     1      -0.813  -6.653  -4.978  0.00  0.00    -0.080 S 
ATOM      8  C   UNL     1      -3.111  -6.169  -6.765  0.00  0.00    -0.035 C 
ATOM      9  N   UNL     1      -3.721  -4.971  -7.371  0.00  0.00    +0.384 N 
ATOM     10  C   UNL     1      -2.738  -4.300  -8.232  0.00  0.00    -0.073 C 
ATOM     11  C   UNL     1      -1.672  -3.607  -7.378  0.00  0.00    +0.018 C 
ATOM     12  C   UNL     1       1.088  -3.376  -5.724  0.00  0.00    +0.220 C 
ATOM     13  N   UNL     1       2.022  -3.327  -4.816  0.00  0.00    -0.223 NA
ATOM     14  H   UNL     1       1.977  -6.405  -3.731  0.00  0.00    +0.149 HD
ATOM     15  H   UNL     1      -4.015  -4.338  -6.642  0.00  0.00    -0.081 HD
ENDROOT
BRANCH   1  20
ATOM     16  C   UNL     1       0.654  -1.812  -1.236  0.00  0.00    +0.164 A 
ATOM     17  C   UNL     1       0.105  -2.671  -0.297  0.00  0.00    +0.071 A 
ATOM     18  C   UNL     1       0.217  -4.040  -0.463  0.00  0.00    +0.063 A 
ATOM     19  C   UNL     1       0.878  -4.554  -1.566  0.00  0.00    +0.070 A 
ATOM     20  C   UNL     1       1.428  -3.700  -2.506  0.00  0.00    +0.059 A 
ATOM     21  C   UNL     1       1.313  -2.329  -2.347  0.00  0.00    +0.167 A 
ATOM     22 CL   UNL     1       1.017  -6.272  -1.770  0.00  0.00    -0.082 Cl
ATOM     23 CL   UNL     1      -0.471  -5.115   0.713  0.00  0.00    -0.082 Cl
BRANCH  21  24
ATOM     24  O   UNL     1       1.848  -1.488  -3.273  0.00  0.00    -0.503 OA
ATOM     25  H   UNL     1       2.764  -1.237  -3.092  0.00  0.00    +0.292 HD
ENDBRANCH  21  24
BRANCH  16  26
ATOM     26  O   UNL     1       0.543  -0.466  -1.073  0.00  0.00    -0.489 OA
BRANCH  26  28
ATOM     27  C   UNL     1      -0.169   1.522   0.101  0.00  0.00    +0.048 C 
ATOM     28  C   UNL     1      -0.146  -0.007   0.091  0.00  0.00    +0.226 C 
ENDBRANCH  26  28
ENDBRANCH  16  26
ENDBRANCH   1  20
BRANCH   9  29
ATOM     29  C   UNL     1      -4.885  -5.367  -8.174  0.00  0.00    -0.074 C 
ATOM     30  C   UNL     1      -5.848  -6.183  -7.308  0.00  0.00    -0.014 C 
ATOM     31  C   UNL     1      -5.599  -4.116  -8.690  0.00  0.00    -0.014 C 
ENDBRANCH   9  29
BRANCH  12  32
ATOM     32  O   UNL     1       1.001  -2.434  -6.692  0.00  0.00    -0.492 OA
ATOM     33  H   UNL     1       1.682  -1.750  -6.637  0.00  0.00    +0.294 HD
ENDBRANCH  12  32
TORSDOF 6
