REMARK  Name = ZINC65260024
REMARK  5 active torsions:
REMARK  status: ('A' for Active; 'I' for Inactive)
REMARK    1  A    between atoms: C_1  and  O_2
REMARK    2  A    between atoms: O_2  and  C_3
REMARK    3  A    between atoms: C_6  and  C_9
REMARK    4  A    between atoms: C_9  and  N_10
REMARK    5  A    between atoms: N_28  and  C_29
REMARK                            x       y       z     vdW  Elec       q    Type
REMARK                         _______ _______ _______ _____ _____    ______ ____
ROOT
ATOM      1  N   UNL     1       1.621  -2.793   5.385  0.00  0.00    -0.295 N 
ATOM      2  C   UNL     1       2.016  -3.400   6.521  0.00  0.00    +0.303 C 
ATOM      3  O   UNL     1       3.151  -3.825   6.621  0.00  0.00    -0.253 OA
ATOM      4  N   UNL     1       1.152  -3.537   7.547  0.00  0.00    -0.283 N 
ATOM      5  C   UNL     1      -0.254  -3.138   7.401  0.00  0.00    +0.109 C 
ATOM      6  C   UNL     1      -1.146  -4.321   7.790  0.00  0.00    +0.022 C 
ATOM      7  C   UNL     1      -0.774  -4.794   9.198  0.00  0.00    +0.036 C 
ATOM      8  C   UNL     1       0.683  -5.249   9.219  0.00  0.00    +0.102 C 
ATOM      9  C   UNL     1       1.597  -4.093   8.833  0.00  0.00    +0.142 C 
ATOM     10  C   UNL     1       1.044  -5.742  10.605  0.00  0.00    +0.098 C 
ATOM     11  N   UNL     1       0.467  -6.934  11.004  0.00  0.00    -0.301 N 
ATOM     12  C   UNL     1       0.328  -7.947  10.039  0.00  0.00    +0.053 A 
ATOM     13  C   UNL     1       0.000  -9.235  10.432  0.00  0.00    +0.025 A 
ATOM     14  C   UNL     1      -0.143 -10.230   9.482  0.00  0.00    +0.002 A 
ATOM     15  C   UNL     1       0.039  -9.943   8.142  0.00  0.00    +0.002 A 
ATOM     16  C   UNL     1       0.369  -8.661   7.742  0.00  0.00    +0.025 A 
ATOM     17  C   UNL     1       0.519  -7.658   8.689  0.00  0.00    +0.049 A 
ATOM     18  N   UNL     1       0.873  -6.364   8.282  0.00  0.00    -0.329 N 
ATOM     19  N   UNL     1       1.848  -5.083  11.374  0.00  0.00    -0.372 N 
ATOM     20  H   UNL     1       0.697  -2.518   5.277  0.00  0.00    +0.151 HD
ATOM     21  H   UNL     1       1.237  -6.207   7.397  0.00  0.00    +0.147 HD
ATOM     22  H   UNL     1       2.238  -4.250  11.068  0.00  0.00    +0.161 HD
ATOM     23  H   UNL     1       0.170  -7.067  11.918  0.00  0.00    +0.153 HD
ENDROOT
BRANCH  19  24
ATOM     24  C   UNL     1       2.171  -5.596  12.708  0.00  0.00    +0.080 C 
ATOM     25  C   UNL     1       1.131  -5.096  13.732  0.00  0.00    +0.024 C 
ATOM     26  C   UNL     1       1.959  -4.828  15.013  0.00  0.00    +0.002 C 
ATOM     27  C   UNL     1       3.277  -4.241  14.452  0.00  0.00    +0.002 C 
ATOM     28  C   UNL     1       3.535  -5.053  13.166  0.00  0.00    +0.024 C 
ENDBRANCH  19  24
BRANCH   1  29
ATOM     29  C   UNL     1       2.588  -2.546   4.312  0.00  0.00    +0.141 C 
BRANCH  29  33
ATOM     30  C   UNL     1       0.632  -0.600   1.049  0.00  0.00    +0.120 A 
ATOM     31  C   UNL     1       1.212   0.152   2.060  0.00  0.00    +0.046 A 
ATOM     32  C   UNL     1       1.843  -0.479   3.114  0.00  0.00    +0.009 A 
ATOM     33  C   UNL     1       1.898  -1.860   3.162  0.00  0.00    -0.030 A 
ATOM     34  C   UNL     1       1.322  -2.612   2.155  0.00  0.00    +0.009 A 
ATOM     35  C   UNL     1       0.684  -1.986   1.102  0.00  0.00    +0.046 A 
BRANCH  30  37
ATOM     36  C   UNL     1      -0.005   1.448   0.023  0.00  0.00    +0.277 C 
ATOM     37  O   UNL     1       0.010   0.019   0.011  0.00  0.00    -0.495 OA
ENDBRANCH  30  37
ENDBRANCH  29  33
ENDBRANCH   1  29
TORSDOF 4
