REMARK  Name = ZINC25303867
REMARK  8 active torsions:
REMARK  status: ('A' for Active; 'I' for Inactive)
REMARK    1  A    between atoms: C_1  and  C_2
REMARK    2  A    between atoms: N_16  and  C_17
REMARK    3  A    between atoms: C_17  and  C_18
REMARK    4  A    between atoms: C_18  and  C_19
REMARK    5  A    between atoms: N_21  and  C_22
REMARK    6  A    between atoms: N_21  and  C_28
REMARK    7  A    between atoms: C_22  and  C_23
REMARK    8  A    between atoms: C_28  and  C_29
REMARK                            x       y       z     vdW  Elec       q    Type
REMARK                         _______ _______ _______ _____ _____    ______ ____
ROOT
ATOM      1  C   UNL     1      -1.296   7.425  -0.140  0.00  0.00    +0.119 C 
ENDROOT
BRANCH   1  17
ATOM      2  C   UNL     1       0.061   4.947   1.587  0.00  0.00    +0.054 C 
ATOM      3  C   UNL     1       0.003   5.266   0.092  0.00  0.00    +0.109 C 
ATOM      4  C   UNL     1       1.225   6.098  -0.308  0.00  0.00    +0.055 C 
ATOM      5  C   UNL     1       2.057   5.140  -1.181  0.00  0.00    +0.100 C 
ATOM      6  C   UNL     1       1.253   3.866  -1.272  0.00  0.00    +0.222 C 
ATOM      7  O   UNL     1       1.636   2.845  -1.804  0.00  0.00    -0.275 OA
ATOM      8  N   UNL     1       0.063   4.017  -0.688  0.00  0.00    -0.249 N 
ATOM      9  C   UNL     1      -1.048   3.174  -0.768  0.00  0.00    +0.050 A 
ATOM     10  C   UNL     1      -0.957   1.806  -0.902  0.00  0.00    +0.024 A 
ATOM     11  C   UNL     1      -2.115   1.050  -0.956  0.00  0.00    +0.002 A 
ATOM     12  C   UNL     1      -3.357   1.659  -0.865  0.00  0.00    +0.001 A 
ATOM     13  C   UNL     1      -3.461   3.029  -0.731  0.00  0.00    +0.015 A 
ATOM     14  C   UNL     1      -2.306   3.803  -0.686  0.00  0.00    +0.058 A 
ATOM     15  C   UNL     1      -2.349   5.273  -0.578  0.00  0.00    +0.250 C 
ATOM     16  O   UNL     1      -3.383   5.867  -0.814  0.00  0.00    -0.270 OA
ATOM     17  N   UNL     1      -1.244   5.963  -0.219  0.00  0.00    -0.275 N 
ENDBRANCH   1  17
BRANCH   1  18
ATOM     18  C   UNL     1      -1.844   7.843   1.226  0.00  0.00    +0.115 C 
BRANCH  18  19
ATOM     19  C   UNL     1      -2.017   9.340   1.261  0.00  0.00    +0.218 C 
ATOM     20  O   UNL     1      -1.730  10.006   0.290  0.00  0.00    -0.276 OA
ATOM     21  N   UNL     1      -2.490   9.937   2.373  0.00  0.00    -0.292 N 
BRANCH  21  22
ATOM     22  C   UNL     1      -2.837   9.132   3.546  0.00  0.00    +0.150 C 
BRANCH  22  23
ATOM     23  C   UNL     1      -1.630   8.997   4.438  0.00  0.00    +0.007 A 
ATOM     24  C   UNL     1      -1.226   9.797   5.455  0.00  0.00    +0.013 A 
ATOM     25  C   UNL     1      -0.074   9.473   6.146  0.00  0.00    +0.008 A 
ATOM     26  C   UNL     1       0.625   8.371   5.779  0.00  0.00    +0.045 A 
ATOM     27  S   UNL     1      -0.356   7.747   4.423  0.00  0.00    -0.100 S 
ENDBRANCH  22  23
ENDBRANCH  21  22
BRANCH  21  28
ATOM     28  C   UNL     1      -2.659  11.392   2.407  0.00  0.00    +0.150 C 
BRANCH  28  29
ATOM     29  C   UNL     1      -4.042  11.749   1.929  0.00  0.00    +0.007 A 
ATOM     30  C   UNL     1      -5.185  11.882   2.647  0.00  0.00    +0.013 A 
ATOM     31  C   UNL     1      -6.352  12.224   1.990  0.00  0.00    +0.008 A 
ATOM     32  C   UNL     1      -6.322  12.407   0.647  0.00  0.00    +0.045 A 
ATOM     33  S   UNL     1      -4.604  12.101   0.272  0.00  0.00    -0.100 S 
ENDBRANCH  28  29
ENDBRANCH  21  28
ENDBRANCH  18  19
ENDBRANCH   1  18
TORSDOF 7
