REMARK  Name = ZINC24095368
REMARK  8 active torsions:
REMARK  status: ('A' for Active; 'I' for Inactive)
REMARK    1  A    between atoms: N_13  and  C_17
REMARK    2  A    between atoms: C_17  and  C_18
REMARK    3  A    between atoms: C_18  and  C_20
REMARK    4  A    between atoms: C_18  and  O_37
REMARK    5  A    between atoms: C_20  and  O_21
REMARK    6  A    between atoms: O_21  and  C_22
REMARK    7  A    between atoms: C_22  and  C_23
REMARK    8  A    between atoms: C_22  and  C_30
REMARK                            x       y       z     vdW  Elec       q    Type
REMARK                         _______ _______ _______ _____ _____    ______ ____
ROOT
ATOM      1  C   UNL     1      -0.729   1.579   1.267  0.00  0.00    +0.158 C 
ENDROOT
BRANCH   1   2
ATOM      2  O   UNL     1      -2.030   0.991   1.336  0.00  0.00    -0.388 OA
ATOM      3  H   UNL     1      -2.696   1.230   2.178  0.00  0.00    +0.210 HD
ENDBRANCH   1   2
BRANCH   1   4
ATOM      4  C   UNL     1      -0.013   1.086   0.008  0.00  0.00    +0.151 C 
BRANCH   4  17
ATOM      5  C   UNL     1      -0.414   0.243  -5.930  0.00  0.00    +0.001 A 
ATOM      6  C   UNL     1      -1.479  -0.273  -6.645  0.00  0.00    +0.004 A 
ATOM      7  C   UNL     1      -2.766  -0.124  -6.168  0.00  0.00    +0.046 A 
ATOM      8  C   UNL     1      -2.995   0.544  -4.970  0.00  0.00    +0.126 A 
ATOM      9  C   UNL     1      -1.926   1.056  -4.254  0.00  0.00    +0.027 A 
ATOM     10  C   UNL     1      -0.638   0.905  -4.739  0.00  0.00    +0.010 A 
ATOM     11  C   UNL     1      -2.138   1.777  -2.952  0.00  0.00    +0.144 C 
ATOM     12  C   UNL     1      -3.596   2.200  -2.800  0.00  0.00    +0.081 C 
ATOM     13  C   UNL     1      -4.486   1.002  -3.159  0.00  0.00    +0.232 C 
ATOM     14  O   UNL     1      -4.275   0.678  -4.534  0.00  0.00    -0.492 OA
ATOM     15  C   UNL     1      -1.716   0.900  -1.795  0.00  0.00    +0.251 C 
ATOM     16  O   UNL     1      -2.176  -0.178  -1.486  0.00  0.00    -0.272 OA
ATOM     17  N   UNL     1      -0.721   1.571  -1.179  0.00  0.00    -0.221 N 
ATOM     18  C   UNL     1      -0.458   2.733  -1.790  0.00  0.00    +0.310 C 
ATOM     19  O   UNL     1       0.401   3.510  -1.422  0.00  0.00    -0.252 OA
ATOM     20  N   UNL     1      -1.251   2.943  -2.858  0.00  0.00    -0.281 N 
ATOM     21  H   UNL     1      -1.335   3.758  -3.592  0.00  0.00    +0.152 HD
ENDBRANCH   4  17
ENDBRANCH   1   4
BRANCH   1  22
ATOM     22  C   UNL     1       0.079   1.179   2.503  0.00  0.00    +0.194 C 
BRANCH  22  23
ATOM     23  O   UNL     1      -0.527   1.738   3.670  0.00  0.00    -0.365 OA
BRANCH  23  24
ATOM     24  C   UNL     1       0.152   1.423   4.886  0.00  0.00    +0.178 C 
BRANCH  24  25
ATOM     25  C   UNL     1       1.191   2.478   5.170  0.00  0.00    -0.014 A 
ATOM     26  C   UNL     1       0.909   3.808   4.923  0.00  0.00    +0.009 A 
ATOM     27  C   UNL     1       1.858   4.777   5.187  0.00  0.00    +0.039 A 
ATOM     28  C   UNL     1       3.096   4.413   5.689  0.00  0.00    +0.123 A 
ATOM     29  C   UNL     1       3.380   3.080   5.931  0.00  0.00    +0.039 A 
ATOM     30  C   UNL     1       2.427   2.113   5.671  0.00  0.00    +0.009 A 
ATOM     31  F   UNL     1       4.027   5.359   5.943  0.00  0.00    -0.205 F 
ENDBRANCH  24  25
BRANCH  24  32
ATOM     32  C   UNL     1      -0.840   1.377   6.019  0.00  0.00    -0.014 A 
ATOM     33  C   UNL     1      -1.913   2.249   6.033  0.00  0.00    +0.009 A 
ATOM     34  C   UNL     1      -2.826   2.205   7.069  0.00  0.00    +0.039 A 
ATOM     35  C   UNL     1      -2.661   1.295   8.099  0.00  0.00    +0.123 A 
ATOM     36  C   UNL     1      -1.583   0.426   8.087  0.00  0.00    +0.039 A 
ATOM     37  C   UNL     1      -0.674   0.468   7.047  0.00  0.00    +0.009 A 
ATOM     38  F   UNL     1      -3.551   1.255   9.115  0.00  0.00    -0.205 F 
ENDBRANCH  24  32
ENDBRANCH  23  24
ENDBRANCH  22  23
ENDBRANCH   1  22
TORSDOF 8
