REMARK  Name = ZINC15319343
REMARK  10 active torsions:
REMARK  status: ('A' for Active; 'I' for Inactive)
REMARK    1  A    between atoms: C_1  and  C_2
REMARK    2  A    between atoms: C_2  and  C_3
REMARK    3  A    between atoms: C_3  and  C_4
REMARK    4  A    between atoms: C_4  and  N_5
REMARK    5  A    between atoms: C_10  and  C_35
REMARK    6  A    between atoms: N_24  and  C_27
REMARK    7  A    between atoms: C_27  and  C_28
REMARK    8  A    between atoms: C_35  and  C_36
REMARK    9  A    between atoms: C_36  and  S_37
REMARK   10  A    between atoms: S_37  and  C_38
REMARK                            x       y       z     vdW  Elec       q    Type
REMARK                         _______ _______ _______ _____ _____    ______ ____
ROOT
ATOM      1  N   UNL     1      -0.652   3.269   0.235  0.00  0.00    -0.242 N 
ATOM      2  C   UNL     1      -1.153   2.112  -0.320  0.00  0.00    +0.227 C 
ATOM      3  O   UNL     1      -2.101   1.991  -1.066  0.00  0.00    -0.275 OA
ATOM      4  C   UNL     1      -0.288   1.080   0.191  0.00  0.00    +0.107 C 
ATOM      5  C   UNL     1       0.081  -0.333   0.017  0.00  0.00    +0.068 C 
ATOM      6  N   UNL     1       1.183  -0.449   1.043  0.00  0.00    -0.295 NA
ATOM      7  C   UNL     1       1.908   0.847   1.025  0.00  0.00    +0.136 C 
ATOM      8  C   UNL     1       1.114   1.809   0.161  0.00  0.00    +0.122 C 
ATOM      9  C   UNL     1       0.611   3.107   0.735  0.00  0.00    +0.228 C 
ATOM     10  O   UNL     1       1.203   3.855   1.484  0.00  0.00    -0.275 OA
ATOM     11  C   UNL     1       3.310   0.655   0.511  0.00  0.00    +0.004 A 
ATOM     12  C   UNL     1       3.824   0.218  -0.690  0.00  0.00    +0.008 A 
ATOM     13  C   UNL     1       5.193   0.147  -0.871  0.00  0.00    +0.000 A 
ATOM     14  C   UNL     1       6.043   0.515   0.156  0.00  0.00    +0.002 A 
ATOM     15  C   UNL     1       5.533   0.954   1.359  0.00  0.00    +0.024 A 
ATOM     16  C   UNL     1       4.155   1.030   1.550  0.00  0.00    +0.042 A 
ATOM     17  N   UNL     1       3.408   1.438   2.656  0.00  0.00    -0.265 N 
ATOM     18  C   UNL     1       2.083   1.365   2.430  0.00  0.00    +0.246 C 
ATOM     19  O   UNL     1       1.199   1.659   3.207  0.00  0.00    -0.273 OA
ATOM     20  H   UNL     1       0.744  -0.642   2.033  0.00  0.00    +0.123 HD
ENDROOT
BRANCH   1  21
ATOM     21  C   UNL     1      -1.390   4.533   0.285  0.00  0.00    +0.116 C 
BRANCH  21  22
ATOM     22  C   UNL     1      -1.093   5.347  -0.977  0.00  0.00    +0.019 C 
BRANCH  22  24
ATOM     23  C   UNL     1      -1.568   7.481  -2.186  0.00  0.00    +0.004 C 
ATOM     24  C   UNL     1      -1.865   6.667  -0.925  0.00  0.00    -0.002 C 
ENDBRANCH  22  24
ENDBRANCH  21  22
ENDBRANCH   1  21
BRANCH  17  25
ATOM     25  C   UNL     1       3.997   1.893   3.918  0.00  0.00    +0.150 C 
BRANCH  25  26
ATOM     26  C   UNL     1       4.360   3.352   3.806  0.00  0.00    -0.011 A 
ATOM     27  C   UNL     1       5.645   3.719   3.455  0.00  0.00    +0.006 A 
ATOM     28  C   UNL     1       5.977   5.057   3.348  0.00  0.00    +0.000 A 
ATOM     29  C   UNL     1       5.026   6.028   3.601  0.00  0.00    +0.001 A 
ATOM     30  C   UNL     1       3.742   5.662   3.958  0.00  0.00    +0.020 A 
ATOM     31  C   UNL     1       3.408   4.323   4.060  0.00  0.00    +0.046 A 
ATOM     32 CL   UNL     1       1.796   3.862   4.508  0.00  0.00    -0.083 Cl
ENDBRANCH  25  26
ENDBRANCH  17  25
BRANCH   5  33
ATOM     33  C   UNL     1       0.607  -0.599  -1.395  0.00  0.00    +0.030 C 
BRANCH  33  34
ATOM     34  C   UNL     1       0.907  -2.091  -1.555  0.00  0.00    +0.070 C 
BRANCH  34  35
ATOM     35  S   UNL     1       1.531  -2.406  -3.229  0.00  0.00    -0.164 S 
ATOM     36  C   UNL     1       1.835  -4.195  -3.254  0.00  0.00    +0.084 C 
ENDBRANCH  34  35
ENDBRANCH  33  34
ENDBRANCH   5  33
TORSDOF 8
