REMARK  Name = ZINC05173614
REMARK  5 active torsions:
REMARK  status: ('A' for Active; 'I' for Inactive)
REMARK    1  A    between atoms: C_5  and  C_7
REMARK    2  A    between atoms: C_10  and  S_13
REMARK    3  A    between atoms: N_11  and  N_12
REMARK    4  A    between atoms: S_13  and  C_14
REMARK    5  A    between atoms: C_14  and  C_15
REMARK                            x       y       z     vdW  Elec       q    Type
REMARK                         _______ _______ _______ _____ _____    ______ ____
ROOT
ATOM      1  C   UNL     1       1.249  -2.161  -0.022  0.00  0.00    +0.184 A 
ATOM      2  N   UNL     1       0.212  -2.961   0.075  0.00  0.00    -0.127 NA
ATOM      3  N   UNL     1       0.598  -4.186   0.032  0.00  0.00    -0.121 NA
ATOM      4  C   UNL     1       1.905  -4.243  -0.095  0.00  0.00    +0.209 A 
ATOM      5  N   UNL     1       2.364  -2.957  -0.139  0.00  0.00    -0.224 N 
ENDROOT
BRANCH   1  10
ATOM      6  C   UNL     1       1.923   1.417  -0.946  0.00  0.00    +0.001 A 
ATOM      7  C   UNL     1       1.172   2.087   0.003  0.00  0.00    +0.003 A 
ATOM      8  C   UNL     1       0.444   1.382   0.944  0.00  0.00    +0.039 A 
ATOM      9  C   UNL     1       0.464  -0.000   0.943  0.00  0.00    +0.134 A 
ATOM     10  C   UNL     1       1.222  -0.683  -0.013  0.00  0.00    +0.056 A 
ATOM     11  C   UNL     1       1.952   0.037  -0.959  0.00  0.00    +0.014 A 
ATOM     12  F   UNL     1      -0.247  -0.689   1.862  0.00  0.00    -0.205 F 
ENDBRANCH   1  10
BRANCH   5  13
ATOM     13  N   UNL     1       3.661  -2.548  -0.270  0.00  0.00    -0.295 N 
ATOM     14  H   UNL     1       4.100  -2.443   0.633  0.00  0.00    +0.163 HD
ATOM     15  H   UNL     1       4.184  -3.183  -0.854  0.00  0.00    +0.163 HD
ENDBRANCH   5  13
BRANCH   4  16
ATOM     16  S   UNL     1       2.882  -5.706  -0.196  0.00  0.00    -0.077 S 
BRANCH  16  17
ATOM     17  C   UNL     1       1.583  -6.960  -0.076  0.00  0.00    +0.151 C 
BRANCH  17  18
ATOM     18  C   UNL     1       2.203  -8.333  -0.142  0.00  0.00    +0.121 A 
ATOM     19  N   UNL     1       1.384  -9.415  -0.068  0.00  0.00    -0.309 N 
ATOM     20  H   UNL     1       0.396  -9.296   0.028  0.00  0.00    +0.170 HD
ATOM     21  C   UNL     1       1.920 -10.658  -0.126  0.00  0.00    +0.266 A 
ATOM     22  O   UNL     1       1.213 -11.650  -0.062  0.00  0.00    -0.267 OA
ATOM     23  C   UNL     1       3.304 -10.772  -0.261  0.00  0.00    +0.102 A 
ATOM     24  C   UNL     1       4.129  -9.635  -0.335  0.00  0.00    +0.085 A 
ATOM     25  N   UNL     1       3.487  -8.423  -0.272  0.00  0.00    -0.232 NA
ATOM     26  C   UNL     1       5.500  -9.893  -0.469  0.00  0.00    +0.036 A 
ATOM     27  C   UNL     1       5.951 -11.164  -0.519  0.00  0.00    +0.048 A 
ATOM     28  S   UNL     1       4.450 -12.120  -0.378  0.00  0.00    -0.090 S 
ENDBRANCH  17  18
ENDBRANCH  16  17
ENDBRANCH   4  16
TORSDOF 5
