REMARK  Name = ZINC13494557
REMARK  15 active torsions:
REMARK  status: ('A' for Active; 'I' for Inactive)
REMARK    1  A    between atoms: C_1  and  C_2
REMARK    2  A    between atoms: C_2  and  C_3
REMARK    3  A    between atoms: C_3  and  C_5
REMARK    4  A    between atoms: C_3  and  N_71
REMARK    5  A    between atoms: N_9  and  C_10
REMARK    6  A    between atoms: C_10  and  C_11
REMARK    7  A    between atoms: C_10  and  C_12
REMARK    8  A    between atoms: C_10  and  C_13
REMARK    9  A    between atoms: C_14  and  C_15
REMARK   10  A    between atoms: C_14  and  N_71
REMARK   11  A    between atoms: C_15  and  C_16
REMARK   12  A    between atoms: C_20  and  C_22
REMARK   13  A    between atoms: C_23  and  C_24
REMARK   14  A    between atoms: C_23  and  N_71
REMARK   15  A    between atoms: C_30  and  C_36
REMARK                            x       y       z     vdW  Elec       q    Type
REMARK                         _______ _______ _______ _____ _____    ______ ____
ROOT
ATOM      1  N   UNL     1      -0.138   7.370  -1.631  0.00  0.00    +0.389 N 
ATOM      2  H   UNL     1      -0.946   7.408  -0.999  0.00  0.00    -0.080 HD
ENDROOT
BRANCH   1   3
ATOM      3  C   UNL     1       0.974   8.139  -1.034  0.00  0.00    +0.003 C 
BRANCH   3   4
ATOM      4  C   UNL     1       0.822   8.118   0.465  0.00  0.00    +0.139 A 
ATOM      5  N   UNL     1       0.367   7.126   1.191  0.00  0.00    -0.115 NA
ATOM      6  N   UNL     1       0.391   7.494   2.426  0.00  0.00    -0.023 NA
ATOM      7  N   UNL     1       0.849   8.694   2.506  0.00  0.00    -0.043 NA
ATOM      8  N   UNL     1       1.131   9.112   1.318  0.00  0.00    -0.226 N 
BRANCH   8   9
ATOM      9  C   UNL     1       1.681  10.423   0.965  0.00  0.00    +0.059 C 
ATOM     10  C   UNL     1       0.638  11.217   0.175  0.00  0.00    +0.036 C 
ATOM     11  C   UNL     1       2.043  11.185   2.241  0.00  0.00    +0.036 C 
ATOM     12  C   UNL     1       2.935  10.236   0.109  0.00  0.00    +0.036 C 
ENDBRANCH   8   9
ENDBRANCH   3   4
BRANCH   3  14
ATOM     13  C   UNL     1       2.535   7.662  -2.927  0.00  0.00    +0.002 C 
ATOM     14  C   UNL     1       2.318   7.517  -1.419  0.00  0.00    -0.011 C 
ENDBRANCH   3  14
ENDBRANCH   1   3
BRANCH   1  15
ATOM     15  C   UNL     1       0.264   5.960  -1.813  0.00  0.00    -0.073 C 
BRANCH  15  16
ATOM     16  C   UNL     1       0.378   5.298  -0.438  0.00  0.00    +0.016 C 
BRANCH  16  17
ATOM     17  C   UNL     1       0.630   3.823  -0.610  0.00  0.00    -0.049 A 
ATOM     18  C   UNL     1       1.926   3.347  -0.690  0.00  0.00    +0.003 A 
ATOM     19  C   UNL     1       2.157   1.994  -0.848  0.00  0.00    +0.001 A 
ATOM     20  C   UNL     1       1.092   1.115  -0.925  0.00  0.00    +0.003 A 
ATOM     21  C   UNL     1      -0.203   1.591  -0.850  0.00  0.00    -0.050 A 
ATOM     22  C   UNL     1      -0.434   2.944  -0.687  0.00  0.00    +0.007 A 
ATOM     23  C   UNL     1      -1.364   0.634  -0.941  0.00  0.00    +0.044 C 
ENDBRANCH  16  17
ENDBRANCH  15  16
ENDBRANCH   1  15
BRANCH   1  24
ATOM     24  C   UNL     1      -0.518   7.959  -2.932  0.00  0.00    -0.037 C 
BRANCH  24  25
ATOM     25  C   UNL     1      -1.293   9.227  -2.681  0.00  0.00    +0.001 A 
ATOM     26  C   UNL     1      -0.685  10.430  -2.825  0.00  0.00    +0.017 A 
ATOM     27  C   UNL     1      -1.466  11.643  -2.578  0.00  0.00    -0.001 A 
ATOM     28  C   UNL     1      -0.895  12.913  -2.716  0.00  0.00    +0.010 A 
ATOM     29  C   UNL     1      -1.650  14.025  -2.474  0.00  0.00    +0.001 A 
ATOM     30  C   UNL     1      -2.980  13.907  -2.091  0.00  0.00    +0.005 A 
ATOM     31  C   UNL     1      -3.563  12.667  -1.949  0.00  0.00    -0.026 A 
ATOM     32  C   UNL     1      -2.814  11.520  -2.191  0.00  0.00    +0.052 A 
ATOM     33  N   UNL     1      -3.372  10.266  -2.057  0.00  0.00    -0.322 N 
ATOM     34  H   UNL     1      -4.301  10.183  -1.790  0.00  0.00    +0.169 HD
ATOM     35  C   UNL     1      -2.648   9.158  -2.291  0.00  0.00    +0.251 A 
ATOM     36  O   UNL     1      -3.174   8.066  -2.163  0.00  0.00    -0.268 OA
ATOM     37  C   UNL     1      -5.007  12.553  -1.533  0.00  0.00    +0.046 C 
ENDBRANCH  24  25
ENDBRANCH   1  24
TORSDOF 9
