REMARK  Name = ZINC35192068
REMARK  8 active torsions:
REMARK  status: ('A' for Active; 'I' for Inactive)
REMARK    1  A    between atoms: C_1  and  C_2
REMARK    2  A    between atoms: C_2  and  C_4
REMARK    3  A    between atoms: C_2  and  N_12
REMARK    4  A    between atoms: C_4  and  C_5
REMARK    5  A    between atoms: C_5  and  C_6
REMARK    6  A    between atoms: C_13  and  C_15
REMARK    7  A    between atoms: C_19  and  C_32
REMARK    8  A    between atoms: C_22  and  C_24
REMARK                            x       y       z     vdW  Elec       q    Type
REMARK                         _______ _______ _______ _____ _____    ______ ____
ROOT
ATOM      1  C   UNL     1       1.389  -1.205   4.482  0.00  0.00    +0.173 C 
ATOM      2  C   UNL     1       2.190  -2.540   4.453  0.00  0.00    +0.103 C 
ATOM      3  S   UNL     1       0.764  -3.708   4.303  0.00  0.00    -0.136 S 
ATOM      4  C   UNL     1      -0.465  -2.692   5.227  0.00  0.00    +0.138 C 
ATOM      5  N   UNL     1       0.159  -1.357   5.254  0.00  0.00    -0.273 N 
ATOM      6  C   UNL     1      -0.378  -0.336   5.950  0.00  0.00    +0.250 C 
ATOM      7  O   UNL     1      -1.416  -0.496   6.562  0.00  0.00    -0.270 OA
ENDROOT
BRANCH   6   8
ATOM      8  C   UNL     1       0.296   0.979   5.971  0.00  0.00    +0.055 A 
ATOM      9  C   UNL     1       1.105   1.368   4.901  0.00  0.00    +0.016 A 
ATOM     10  C   UNL     1       1.731   2.596   4.926  0.00  0.00    +0.021 A 
ATOM     11  C   UNL     1       1.560   3.444   6.008  0.00  0.00    +0.042 A 
ATOM     12  C   UNL     1       0.760   3.064   7.072  0.00  0.00    +0.040 A 
ATOM     13  C   UNL     1       0.121   1.840   7.057  0.00  0.00    +0.054 A 
ATOM     14 CL   UNL     1      -0.888   1.368   8.388  0.00  0.00    -0.083 Cl
ATOM     15 CL   UNL     1       2.353   4.988   6.031  0.00  0.00    -0.083 Cl
ENDBRANCH   6   8
BRANCH   4  16
ATOM     16  C   UNL     1      -1.802  -2.654   4.484  0.00  0.00    +0.020 C 
ATOM     17  C   UNL     1      -2.699  -1.580   5.103  0.00  0.00    +0.006 C 
ATOM     18  C   UNL     1      -4.036  -1.542   4.360  0.00  0.00    +0.000 C 
ATOM     19  C   UNL     1      -4.721  -2.905   4.473  0.00  0.00    +0.000 C 
ATOM     20  C   UNL     1      -3.824  -3.979   3.854  0.00  0.00    +0.000 C 
ATOM     21  C   UNL     1      -2.487  -4.017   4.597  0.00  0.00    +0.006 C 
ENDBRANCH   4  16
BRANCH   1  23
ATOM     22  N   UNL     1       2.025  -0.577   2.176  0.00  0.00    -0.311 N 
ATOM     23  C   UNL     1       1.044  -0.803   3.072  0.00  0.00    +0.235 C 
ATOM     24  O   UNL     1      -0.117  -0.683   2.742  0.00  0.00    -0.274 OA
ATOM     25  H   UNL     1       2.954  -0.673   2.439  0.00  0.00    +0.149 HD
BRANCH  22  27
ATOM     26  C   UNL     1       1.484   1.329   0.742  0.00  0.00    +0.028 C 
ATOM     27  C   UNL     1       1.689  -0.186   0.805  0.00  0.00    +0.070 C 
BRANCH  27  28
ATOM     28  C   UNL     1       2.830  -0.585  -0.133  0.00  0.00    +0.026 C 
BRANCH  28  29
ATOM     29  C   UNL     1       2.954  -2.110  -0.166  0.00  0.00    +0.037 C 
BRANCH  29  30
ATOM     30  C   UNL     1       4.078  -2.503  -1.090  0.00  0.00    -0.047 A 
ATOM     31  C   UNL     1       3.826  -2.720  -2.431  0.00  0.00    +0.003 A 
ATOM     32  C   UNL     1       4.857  -3.081  -3.279  0.00  0.00    +0.000 A 
ATOM     33  C   UNL     1       6.140  -3.224  -2.784  0.00  0.00    +0.000 A 
ATOM     34  C   UNL     1       6.392  -3.005  -1.443  0.00  0.00    +0.000 A 
ATOM     35  C   UNL     1       5.362  -2.640  -0.597  0.00  0.00    +0.003 A 
ENDBRANCH  29  30
ENDBRANCH  28  29
ENDBRANCH  27  28
ENDBRANCH  22  27
ENDBRANCH   1  23
TORSDOF 7
