REMARK  Name = ZINC23970378
REMARK  11 active torsions:
REMARK  status: ('A' for Active; 'I' for Inactive)
REMARK    1  A    between atoms: C_1  and  C_2
REMARK    2  A    between atoms: C_8  and  N_10
REMARK    3  A    between atoms: C_14  and  C_16
REMARK    4  A    between atoms: C_16  and  S_17
REMARK    5  A    between atoms: S_17  and  C_18
REMARK    6  A    between atoms: C_21  and  C_30
REMARK    7  A    between atoms: N_22  and  C_23
REMARK    8  A    between atoms: C_30  and  C_32
REMARK    9  A    between atoms: C_30  and  N_33
REMARK   10  A    between atoms: N_33  and  C_34
REMARK   11  A    between atoms: N_33  and  C_35
REMARK                            x       y       z     vdW  Elec       q    Type
REMARK                         _______ _______ _______ _____ _____    ______ ____
ROOT
ATOM      1  C   UNL     1       2.894   0.304  -1.010  0.00  0.00    +0.197 A 
ATOM      2  N   UNL     1       4.067  -0.131  -0.613  0.00  0.00    -0.122 NA
ATOM      3  N   UNL     1       4.337   0.340   0.552  0.00  0.00    -0.135 NA
ATOM      4  C   UNL     1       3.364   1.103   0.964  0.00  0.00    +0.125 A 
ATOM      5  N   UNL     1       2.405   1.103  -0.014  0.00  0.00    -0.275 N 
ENDROOT
BRANCH   5   6
ATOM      6  C   UNL     1       1.180   1.787   0.000  0.00  0.00    +0.050 A 
ATOM      7  C   UNL     1      -0.013   1.076   0.008  0.00  0.00    +0.028 A 
ATOM      8  C   UNL     1      -1.218   1.751   0.017  0.00  0.00    +0.022 A 
ATOM      9  C   UNL     1      -1.237   3.134   0.030  0.00  0.00    +0.041 A 
ATOM     10  C   UNL     1      -0.050   3.845   0.022  0.00  0.00    +0.022 A 
ATOM     11  C   UNL     1       1.158   3.175   0.008  0.00  0.00    +0.028 A 
ATOM     12 CL   UNL     1      -2.753   3.980   0.048  0.00  0.00    -0.084 Cl
ENDBRANCH   5   6
BRANCH   4  13
ATOM     13  C   UNL     1       3.304   1.845   2.274  0.00  0.00    -0.003 C 
ATOM     14  C   UNL     1       3.010   0.858   3.406  0.00  0.00    -0.005 C 
BRANCH  13  15
ATOM     15  N   UNL     1       4.592   2.506   2.523  0.00  0.00    +0.382 N 
ATOM     16  C   UNL     1       4.533   3.336   3.733  0.00  0.00    -0.096 C 
ATOM     17  C   UNL     1       5.679   1.522   2.611  0.00  0.00    -0.096 C 
ATOM     18  H   UNL     1       4.803   3.167   1.669  0.00  0.00    -0.082 HD
ENDBRANCH  13  15
ENDBRANCH   4  13
BRANCH   1  19
ATOM     19  S   UNL     1       2.099  -0.072  -2.537  0.00  0.00    -0.076 S 
BRANCH  19  20
ATOM     20  C   UNL     1       3.344  -1.154  -3.282  0.00  0.00    +0.173 C 
BRANCH  20  25
ATOM     21  N   UNL     1       3.978  -3.662  -7.334  0.00  0.00    -0.296 N 
ATOM     22  C   UNL     1       3.209  -2.842  -6.590  0.00  0.00    +0.306 C 
ATOM     23  O   UNL     1       2.131  -2.473  -7.011  0.00  0.00    -0.252 OA
ATOM     24  N   UNL     1       3.636  -2.433  -5.379  0.00  0.00    -0.239 N 
ATOM     25  C   UNL     1       2.867  -1.613  -4.636  0.00  0.00    +0.231 C 
ATOM     26  O   UNL     1       1.791  -1.244  -5.056  0.00  0.00    -0.274 OA
ATOM     27  H   UNL     1       4.954  -3.997  -6.953  0.00  0.00    +0.151 HD
ATOM     28  H   UNL     1       4.612  -2.767  -4.998  0.00  0.00    +0.159 HD
BRANCH  21  35
ATOM     29  C   UNL     1       5.615  -3.238  -9.685  0.00  0.00    +0.009 C 
ATOM     30  C   UNL     1       4.720  -4.467  -9.521  0.00  0.00    +0.006 C 
ATOM     31  C   UNL     1       4.235  -4.933 -10.896  0.00  0.00    +0.005 C 
ATOM     32  C   UNL     1       3.340  -6.162 -10.731  0.00  0.00    +0.000 C 
ATOM     33  C   UNL     1       2.134  -5.803  -9.860  0.00  0.00    +0.002 C 
ATOM     34  C   UNL     1       2.619  -5.337  -8.486  0.00  0.00    +0.022 C 
ATOM     35  C   UNL     1       3.514  -4.108  -8.650  0.00  0.00    +0.077 C 
ENDBRANCH  21  35
ENDBRANCH  20  25
ENDBRANCH  19  20
ENDBRANCH   1  19
TORSDOF 7
