REMARK  Name = ZINC09575567
REMARK  7 active torsions:
REMARK  status: ('A' for Active; 'I' for Inactive)
REMARK    1  A    between atoms: C_1  and  C_2
REMARK    2  A    between atoms: C_4  and  O_33
REMARK    3  A    between atoms: C_5  and  C_23
REMARK    4  A    between atoms: C_11  and  C_12
REMARK    5  A    between atoms: C_23  and  N_58
REMARK    6  A    between atoms: C_25  and  C_32
REMARK    7  A    between atoms: C_28  and  C_31
REMARK                            x       y       z     vdW  Elec       q    Type
REMARK                         _______ _______ _______ _____ _____    ______ ____
ROOT
ATOM      1  C   UNL     1      -2.208   3.661   7.112  0.00  0.00    +0.045 C 
ATOM      2  C   UNL     1      -1.662   2.962   5.893  0.00  0.00    -0.033 A 
ATOM      3  C   UNL     1      -0.537   3.436   5.279  0.00  0.00    +0.050 A 
ATOM      4  C   UNL     1      -0.028   2.788   4.157  0.00  0.00    +0.122 A 
ATOM      5  C   UNL     1      -0.658   1.666   3.644  0.00  0.00    +0.020 A 
ATOM      6  C   UNL     1      -1.803   1.171   4.256  0.00  0.00    +0.145 A 
ATOM      7  C   UNL     1      -2.304   1.830   5.391  0.00  0.00    +0.071 A 
ATOM      8  C   UNL     1      -3.505   1.083   5.807  0.00  0.00    +0.232 C 
ATOM      9  O   UNL     1      -4.242   1.321   6.750  0.00  0.00    -0.283 OA
ATOM     10  C   UNL     1      -3.616  -0.009   4.833  0.00  0.00    +0.179 C 
ATOM     11  C   UNL     1      -4.581  -0.971   4.809  0.00  0.00    +0.096 C 
ATOM     12  O   UNL     1      -2.587   0.112   3.962  0.00  0.00    -0.451 OA
ENDROOT
BRANCH  11  13
ATOM     13  C   UNL     1      -4.563  -1.967   3.804  0.00  0.00    +0.133 A 
ATOM     14  C   UNL     1      -5.468  -2.980   3.682  0.00  0.00    +0.058 A 
ATOM     15  C   UNL     1      -5.082  -3.741   2.550  0.00  0.00    +0.022 A 
ATOM     16  C   UNL     1      -5.604  -4.879   1.925  0.00  0.00    +0.027 A 
ATOM     17  C   UNL     1      -4.984  -5.391   0.820  0.00  0.00    +0.019 A 
ATOM     18  C   UNL     1      -3.838  -4.791   0.314  0.00  0.00    +0.019 A 
ATOM     19  C   UNL     1      -3.308  -3.669   0.915  0.00  0.00    +0.048 A 
ATOM     20  C   UNL     1      -3.921  -3.130   2.038  0.00  0.00    +0.136 A 
ATOM     21  O   UNL     1      -3.642  -2.067   2.821  0.00  0.00    -0.455 OA
ATOM     22 BR   UNL     1      -5.690  -6.929  -0.025  0.00  0.00    -0.050 Br
ENDBRANCH  11  13
BRANCH   4  23
ATOM     23  O   UNL     1       1.093   3.263   3.557  0.00  0.00    -0.506 OA
ATOM     24  H   UNL     1       0.922   3.917   2.865  0.00  0.00    +0.292 HD
ENDBRANCH   4  23
BRANCH   5  25
ATOM     25  C   UNL     1      -0.099   0.979   2.425  0.00  0.00    -0.036 C 
BRANCH  25  33
ATOM     26  C   UNL     1      -0.013   1.086   0.008  0.00  0.00    -0.075 C 
ATOM     27  C   UNL     1      -0.752   1.593  -1.232  0.00  0.00    -0.031 C 
ATOM     28  C   UNL     1      -0.788   3.123  -1.209  0.00  0.00    +0.003 C 
ATOM     29  C   UNL     1      -1.465   3.591   0.082  0.00  0.00    -0.031 C 
ATOM     30  C   UNL     1      -0.705   3.026   1.284  0.00  0.00    -0.075 C 
ATOM     31  C   UNL     1      -2.911   3.091   0.111  0.00  0.00    +0.005 C 
ATOM     32  C   UNL     1      -0.025   1.117  -2.491  0.00  0.00    +0.005 C 
ATOM     33  N   UNL     1      -0.728   1.550   1.216  0.00  0.00    +0.383 N 
ATOM     34  H   UNL     1      -1.704   1.234   1.167  0.00  0.00    -0.081 HD
ENDBRANCH  25  33
ENDBRANCH   5  25
TORSDOF 4
