REMARK  Name = ZINC36555895
REMARK  11 active torsions:
REMARK  status: ('A' for Active; 'I' for Inactive)
REMARK    1  A    between atoms: C_1  and  C_2
REMARK    2  A    between atoms: C_5  and  S_8
REMARK    3  A    between atoms: S_8  and  C_11
REMARK    4  A    between atoms: C_11  and  N_12
REMARK    5  A    between atoms: C_13  and  C_15
REMARK    6  A    between atoms: C_15  and  C_17
REMARK    7  A    between atoms: C_15  and  N_22
REMARK    8  A    between atoms: N_22  and  C_23
REMARK    9  A    between atoms: C_23  and  C_24
REMARK   10  A    between atoms: C_27  and  C_29
REMARK   11  A    between atoms: C_30  and  C_32
REMARK                            x       y       z     vdW  Elec       q    Type
REMARK                         _______ _______ _______ _____ _____    ______ ____
ROOT
ATOM      1  C   UNL     1       2.969  -5.145   3.269  0.00  0.00    +0.229 C 
ENDROOT
BRANCH   1   2
ATOM      2  C   UNL     1       4.221  -4.337   3.492  0.00  0.00    +0.134 A 
ATOM      3  C   UNL     1       4.309  -2.996   3.456  0.00  0.00    +0.047 A 
ATOM      4  C   UNL     1       5.659  -2.666   3.718  0.00  0.00    +0.041 A 
ATOM      5  C   UNL     1       6.315  -3.827   3.898  0.00  0.00    +0.195 A 
ATOM      6  O   UNL     1       5.438  -4.835   3.766  0.00  0.00    -0.465 OA
ENDBRANCH   1   2
BRANCH   1   8
ATOM      7  N   UNL     1       2.987  -5.025   0.798  0.00  0.00    -0.294 N 
ATOM      8  C   UNL     1       3.022  -5.789   1.908  0.00  0.00    +0.242 C 
ATOM      9  O   UNL     1       3.097  -6.996   1.811  0.00  0.00    -0.273 OA
ATOM     10  H   UNL     1       2.927  -4.060   0.876  0.00  0.00    +0.150 HD
BRANCH   7  11
ATOM     11  C   UNL     1       3.039  -5.652  -0.525  0.00  0.00    +0.278 C 
BRANCH  11  12
ATOM     12  S   UNL     1       1.352  -5.880  -1.153  0.00  0.00    +0.013 S 
ATOM     13  O   UNL     1       0.530  -6.457  -0.147  0.00  0.00    -0.168 OA
ATOM     14  O   UNL     1       1.388  -6.429  -2.463  0.00  0.00    -0.168 OA
BRANCH  12  19
ATOM     15  C   UNL     1      -0.804  -0.293  -1.885  0.00  0.00    +0.044 C 
ATOM     16  C   UNL     1      -0.265  -1.688  -1.702  0.00  0.00    -0.050 A 
ATOM     17  C   UNL     1       0.398  -2.314  -2.740  0.00  0.00    +0.005 A 
ATOM     18  C   UNL     1       0.892  -3.595  -2.572  0.00  0.00    +0.027 A 
ATOM     19  C   UNL     1       0.723  -4.248  -1.366  0.00  0.00    +0.090 A 
ATOM     20  C   UNL     1       0.060  -3.622  -0.327  0.00  0.00    +0.027 A 
ATOM     21  C   UNL     1      -0.430  -2.340  -0.494  0.00  0.00    +0.005 A 
ENDBRANCH  12  19
ENDBRANCH  11  12
ENDBRANCH   7  11
ENDBRANCH   1   8
BRANCH   1  22
ATOM     22  N   UNL     1       2.867  -6.183   4.297  0.00  0.00    -0.276 N 
ATOM     23  C   UNL     1       3.796  -7.158   4.364  0.00  0.00    +0.220 C 
ATOM     24  O   UNL     1       4.758  -7.131   3.627  0.00  0.00    -0.275 OA
BRANCH  23  25
ATOM     25  C   UNL     1       3.638  -8.282   5.356  0.00  0.00    +0.075 C 
ATOM     26  C   UNL     1       3.952  -7.768   6.763  0.00  0.00    +0.013 C 
ATOM     27  C   UNL     1       3.792  -8.909   7.770  0.00  0.00    +0.001 C 
ATOM     28  C   UNL     1       4.756 -10.043   7.413  0.00  0.00    +0.000 C 
ATOM     29  C   UNL     1       4.442 -10.556   6.007  0.00  0.00    +0.001 C 
ATOM     30  C   UNL     1       4.602  -9.415   5.000  0.00  0.00    +0.013 C 
ENDBRANCH  23  25
BRANCH  22  31
ATOM     31  C   UNL     1       1.757  -6.162   5.253  0.00  0.00    +0.183 C 
BRANCH  31  32
ATOM     32  C   UNL     1       0.549  -6.818   4.634  0.00  0.00    +0.122 A 
ATOM     33  C   UNL     1       0.238  -8.124   4.710  0.00  0.00    +0.046 A 
ATOM     34  C   UNL     1      -0.968  -8.300   3.993  0.00  0.00    +0.045 A 
ATOM     35  C   UNL     1      -1.321  -7.090   3.521  0.00  0.00    +0.102 A 
ATOM     36  O   UNL     1      -0.401  -6.196   3.917  0.00  0.00    -0.463 OA
ATOM     37  C   UNL     1      -2.544  -6.790   2.693  0.00  0.00    +0.086 C 
ENDBRANCH  31  32
ENDBRANCH  22  31
ENDBRANCH   1  22
TORSDOF 9
