REMARK  Name = ZINC39770956
REMARK  6 active torsions:
REMARK  status: ('A' for Active; 'I' for Inactive)
REMARK    1  A    between atoms: C_1  and  C_2
REMARK    2  A    between atoms: C_5  and  C_30
REMARK    3  A    between atoms: N_8  and  C_10
REMARK    4  A    between atoms: C_11  and  S_20
REMARK    5  A    between atoms: C_13  and  C_15
REMARK    6  A    between atoms: S_20  and  C_23
REMARK                            x       y       z     vdW  Elec       q    Type
REMARK                         _______ _______ _______ _____ _____    ______ ____
ROOT
ATOM      1  C   UNL     1       2.752   0.618   2.180  0.00  0.00    +0.236 A 
ATOM      2  C   UNL     1       2.150   1.054   3.311  0.00  0.00    +0.243 A 
ATOM      3  N   UNL     1       3.082   1.656   4.067  0.00  0.00    -0.188 NA
ATOM      4  C   UNL     1       4.234   1.603   3.436  0.00  0.00    +0.238 A 
ATOM      5  O   UNL     1       4.055   0.959   2.265  0.00  0.00    -0.419 OA
ENDROOT
BRANCH   1  11
ATOM      6  C   UNL     1       3.597   0.509  -1.368  0.00  0.00    +0.009 C 
ATOM      7  C   UNL     1       2.107   0.167  -1.301  0.00  0.00    +0.004 C 
ATOM      8  C   UNL     1       1.927  -1.351  -1.380  0.00  0.00    +0.009 C 
ATOM      9  C   UNL     1       2.684  -2.016  -0.228  0.00  0.00    +0.004 C 
ATOM     10  C   UNL     1       2.107  -1.529   1.105  0.00  0.00    +0.111 C 
ATOM     11  N   UNL     1       2.143  -0.060   1.128  0.00  0.00    -0.298 N 
ATOM     12  C   UNL     1       1.523   0.679   0.019  0.00  0.00    +0.111 C 
ATOM     13  C   UNL     1       2.531  -3.535  -0.327  0.00  0.00    +0.009 C 
ENDBRANCH   1  11
BRANCH   4  14
ATOM     14  C   UNL     1       5.506   2.150   3.927  0.00  0.00    +0.074 A 
ATOM     15  C   UNL     1       5.772   2.810   5.113  0.00  0.00    +0.021 A 
ATOM     16  C   UNL     1       7.059   3.233   5.352  0.00  0.00    +0.008 A 
ATOM     17  C   UNL     1       8.021   2.993   4.425  0.00  0.00    +0.046 A 
ATOM     18  S   UNL     1       7.115   2.130   3.152  0.00  0.00    -0.092 S 
ENDBRANCH   4  14
BRANCH   2  19
ATOM     19  S   UNL     1       0.446   0.865   3.719  0.00  0.00    +0.047 S 
ATOM     20  O   UNL     1       0.097   1.978   4.531  0.00  0.00    -0.163 OA
ATOM     21  O   UNL     1      -0.231   0.565   2.507  0.00  0.00    -0.163 OA
BRANCH  19  22
ATOM     22  C   UNL     1       0.310  -0.565   4.740  0.00  0.00    +0.095 A 
ATOM     23  C   UNL     1       0.105  -1.806   4.167  0.00  0.00    +0.028 A 
ATOM     24  C   UNL     1      -0.002  -2.928   4.967  0.00  0.00    +0.017 A 
ATOM     25  C   UNL     1       0.098  -2.809   6.341  0.00  0.00    +0.018 A 
ATOM     26  C   UNL     1       0.303  -1.567   6.914  0.00  0.00    +0.017 A 
ATOM     27  C   UNL     1       0.415  -0.446   6.113  0.00  0.00    +0.028 A 
ATOM     28 BR   UNL     1      -0.048  -4.344   7.436  0.00  0.00    -0.050 Br
ENDBRANCH  19  22
ENDBRANCH   2  19
TORSDOF 4
