REMARK  Name = ZINC61887927
REMARK  3 active torsions:
REMARK  status: ('A' for Active; 'I' for Inactive)
REMARK    1  A    between atoms: N_11  and  C_14
REMARK    2  A    between atoms: C_19  and  C_21
REMARK    3  A    between atoms: C_21  and  N_23
REMARK                            x       y       z     vdW  Elec       q    Type
REMARK                         _______ _______ _______ _____ _____    ______ ____
ROOT
ATOM      1  C   UNL     1      -0.079   1.443   0.102  0.00  0.00    +0.000 C 
ATOM      2  C   UNL     1       1.323   1.929   0.117  0.00  0.00    +0.000 C 
ATOM      3  C   UNL     1       1.901   2.157  -1.301  0.00  0.00    +0.001 C 
ATOM      4  C   UNL     1       1.500   1.074  -2.347  0.00  0.00    +0.016 C 
ATOM      5  C   UNL     1       1.528  -0.339  -1.885  0.00  0.00    +0.056 C 
ATOM      6  C   UNL     1       0.157  -0.677  -1.216  0.00  0.00    +0.016 C 
ATOM      7  C   UNL     1      -0.037  -0.099   0.045  0.00  0.00    +0.001 C 
ATOM      8  C   UNL     1       1.676  -1.292  -3.097  0.00  0.00    +0.112 C 
ATOM      9  C   UNL     1       2.973  -2.017  -2.814  0.00  0.00    +0.223 C 
ATOM     10  O   UNL     1       3.503  -2.825  -3.546  0.00  0.00    -0.275 OA
ATOM     11  N   UNL     1       3.442  -1.622  -1.625  0.00  0.00    -0.238 N 
ATOM     12  C   UNL     1       2.670  -0.716  -0.996  0.00  0.00    +0.229 C 
ATOM     13  O   UNL     1       2.907  -0.314   0.122  0.00  0.00    -0.275 OA
ENDROOT
BRANCH  11  14
ATOM     14  C   UNL     1       4.690  -2.129  -1.049  0.00  0.00    +0.093 C 
ATOM     15  C   UNL     1       5.832  -2.015  -2.080  0.00  0.00    +0.024 C 
ATOM     16  C   UNL     1       6.681  -3.290  -1.848  0.00  0.00    +0.003 C 
ATOM     17  C   UNL     1       5.608  -4.367  -1.553  0.00  0.00    +0.012 C 
ATOM     18  C   UNL     1       4.547  -3.624  -0.713  0.00  0.00    +0.061 C 
BRANCH  18  19
ATOM     19  C   UNL     1       3.167  -4.106  -1.080  0.00  0.00    +0.051 C 
ATOM     20  S   UNL     1       2.983  -5.204  -2.228  0.00  0.00    -0.040 S 
BRANCH  19  21
ATOM     21  N   UNL     1       2.089  -3.611  -0.441  0.00  0.00    -0.355 N 
ATOM     22  H   UNL     1       2.201  -2.945   0.255  0.00  0.00    +0.143 HD
ATOM     23  H   UNL     1       1.200  -3.921  -0.677  0.00  0.00    +0.143 HD
ENDBRANCH  19  21
ENDBRANCH  18  19
ENDBRANCH  11  14
TORSDOF 3
