REMARK  Name = ZINC04041114
REMARK  6 active torsions:
REMARK  status: ('A' for Active; 'I' for Inactive)
REMARK    1  A    between atoms: C_1  and  C_2
REMARK    2  A    between atoms: C_2  and  C_5
REMARK    3  A    between atoms: N_3  and  O_4
REMARK    4  A    between atoms: C_10  and  C_29
REMARK    5  A    between atoms: C_21  and  C_28
REMARK    6  A    between atoms: N_25  and  O_26
REMARK                            x       y       z     vdW  Elec       q    Type
REMARK                         _______ _______ _______ _____ _____    ______ ____
ROOT
ATOM      1  C   UNL     1       0.029  -0.673  -1.190  0.00  0.00    -0.021 C 
ATOM      2  C   UNL     1       0.136  -0.111  -2.411  0.00  0.00    -0.021 C 
ATOM      3  C   UNL     1       0.034  -1.199  -3.489  0.00  0.00    +0.032 C 
ATOM      4  C   UNL     1      -0.814  -2.229  -2.727  0.00  0.00    +0.006 C 
ATOM      5  C   UNL     1      -0.058  -2.166  -1.382  0.00  0.00    -0.002 C 
ATOM      6  C   UNL     1      -0.771  -2.997  -0.351  0.00  0.00    +0.012 C 
ATOM      7  C   UNL     1      -0.878  -4.446  -0.876  0.00  0.00    +0.005 C 
ATOM      8  C   UNL     1      -1.643  -4.479  -2.187  0.00  0.00    -0.001 C 
ATOM      9  C   UNL     1      -0.982  -3.611  -3.267  0.00  0.00    -0.003 C 
ATOM     10  C   UNL     1       0.271  -4.282  -3.799  0.00  0.00    +0.004 C 
ATOM     11  C   UNL     1      -0.104  -5.607  -4.473  0.00  0.00    +0.005 C 
ATOM     12  C   UNL     1      -1.572  -5.940  -4.213  0.00  0.00    +0.001 C 
ATOM     13  C   UNL     1      -1.890  -5.891  -2.719  0.00  0.00    -0.025 C 
ATOM     14  C   UNL     1      -3.379  -6.198  -2.501  0.00  0.00    +0.013 C 
ATOM     15  C   UNL     1      -3.740  -7.590  -3.014  0.00  0.00    +0.055 C 
ATOM     16  C   UNL     1      -3.283  -7.719  -4.450  0.00  0.00    +0.058 C 
ATOM     17  N   UNL     1      -4.079  -8.143  -5.359  0.00  0.00    -0.097 NA
ATOM     18  C   UNL     1      -1.861  -7.333  -4.783  0.00  0.00    +0.058 C 
ATOM     19  C   UNL     1      -1.047  -6.912  -1.960  0.00  0.00    +0.012 C 
ATOM     20  C   UNL     1       1.392  -2.641  -1.494  0.00  0.00    +0.016 C 
ENDROOT
BRANCH   1  22
ATOM     21  C   UNL     1       1.347   0.353   0.766  0.00  0.00    +0.069 C 
ATOM     22  C   UNL     1       0.037   0.023   0.097  0.00  0.00    +0.080 C 
ATOM     23  N   UNL     1      -1.080   0.355   0.662  0.00  0.00    -0.092 NA
BRANCH  23  24
ATOM     24  O   UNL     1      -2.305   0.147  -0.017  0.00  0.00    -0.409 OA
ATOM     25  H   UNL     1      -3.078   0.495   0.450  0.00  0.00    +0.328 HD
ENDBRANCH  23  24
ENDBRANCH   1  22
BRANCH  17  26
ATOM     26  O   UNL     1      -3.630  -8.256  -6.697  0.00  0.00    -0.409 OA
ATOM     27  H   UNL     1      -4.302  -8.584  -7.311  0.00  0.00    +0.328 HD
ENDBRANCH  17  26
TORSDOF 3
