REMARK  Name = ZINC36602389
REMARK  11 active torsions:
REMARK  status: ('A' for Active; 'I' for Inactive)
REMARK    1  A    between atoms: C_1  and  C_2
REMARK    2  A    between atoms: C_5  and  S_8
REMARK    3  A    between atoms: S_8  and  C_11
REMARK    4  A    between atoms: C_11  and  N_12
REMARK    5  A    between atoms: C_13  and  C_15
REMARK    6  A    between atoms: C_15  and  C_17
REMARK    7  A    between atoms: C_15  and  N_22
REMARK    8  A    between atoms: N_22  and  C_23
REMARK    9  A    between atoms: C_23  and  C_24
REMARK   10  A    between atoms: C_27  and  C_29
REMARK   11  A    between atoms: C_30  and  C_32
REMARK                            x       y       z     vdW  Elec       q    Type
REMARK                         _______ _______ _______ _____ _____    ______ ____
ROOT
ATOM      1  C   UNL     1       3.102  -4.678   3.752  0.00  0.00    +0.229 C 
ENDROOT
BRANCH   1   2
ATOM      2  C   UNL     1       1.804  -3.914   3.802  0.00  0.00    +0.134 A 
ATOM      3  C   UNL     1       1.656  -2.598   3.568  0.00  0.00    +0.047 A 
ATOM      4  C   UNL     1       0.281  -2.307   3.723  0.00  0.00    +0.041 A 
ATOM      5  C   UNL     1      -0.329  -3.463   4.042  0.00  0.00    +0.195 A 
ATOM      6  O   UNL     1       0.598  -4.434   4.083  0.00  0.00    -0.465 OA
ENDBRANCH   1   2
BRANCH   1   8
ATOM      7  N   UNL     1       4.146  -3.583   1.795  0.00  0.00    -0.294 N 
ATOM      8  C   UNL     1       3.618  -4.698   2.336  0.00  0.00    +0.242 C 
ATOM      9  O   UNL     1       3.557  -5.719   1.683  0.00  0.00    -0.273 OA
ATOM     10  H   UNL     1       4.192  -2.766   2.316  0.00  0.00    +0.150 HD
BRANCH   7  11
ATOM     11  C   UNL     1       4.652  -3.604   0.420  0.00  0.00    +0.278 C 
BRANCH  11  12
ATOM     12  S   UNL     1       3.256  -3.594  -0.738  0.00  0.00    +0.013 S 
ATOM     13  O   UNL     1       2.180  -4.360  -0.214  0.00  0.00    -0.168 OA
ATOM     14  O   UNL     1       3.719  -3.808  -2.064  0.00  0.00    -0.168 OA
BRANCH  12  19
ATOM     15  C   UNL     1       1.252   2.097  -0.708  0.00  0.00    +0.044 C 
ATOM     16  C   UNL     1       1.753   0.675  -0.716  0.00  0.00    -0.050 A 
ATOM     17  C   UNL     1       2.729   0.291  -1.616  0.00  0.00    +0.005 A 
ATOM     18  C   UNL     1       3.188  -1.012  -1.622  0.00  0.00    +0.027 A 
ATOM     19  C   UNL     1       2.672  -1.932  -0.729  0.00  0.00    +0.090 A 
ATOM     20  C   UNL     1       1.696  -1.548   0.172  0.00  0.00    +0.027 A 
ATOM     21  C   UNL     1       1.240  -0.243   0.181  0.00  0.00    +0.005 A 
ENDBRANCH  12  19
ENDBRANCH  11  12
ENDBRANCH   7  11
ENDBRANCH   1   8
BRANCH   1  22
ATOM     22  N   UNL     1       2.879  -6.051   4.210  0.00  0.00    -0.272 N 
ATOM     23  C   UNL     1       1.823  -6.752   3.752  0.00  0.00    +0.249 C 
ATOM     24  O   UNL     1       1.666  -7.908   4.093  0.00  0.00    -0.270 OA
BRANCH  23  25
ATOM     25  C   UNL     1       0.854  -6.113   2.835  0.00  0.00    +0.055 A 
ATOM     26  C   UNL     1      -0.393  -6.703   2.594  0.00  0.00    +0.016 A 
ATOM     27  C   UNL     1      -1.263  -6.065   1.728  0.00  0.00    +0.020 A 
ATOM     28  C   UNL     1      -0.877  -4.877   1.133  0.00  0.00    +0.111 A 
ATOM     29  N   UNL     1       0.305  -4.345   1.379  0.00  0.00    -0.263 NA
ATOM     30  C   UNL     1       1.165  -4.911   2.200  0.00  0.00    +0.123 A 
ENDBRANCH  23  25
BRANCH  22  31
ATOM     31  C   UNL     1       3.805  -6.664   5.166  0.00  0.00    +0.183 C 
BRANCH  31  32
ATOM     32  C   UNL     1       3.333  -6.386   6.570  0.00  0.00    +0.122 A 
ATOM     33  C   UNL     1       2.501  -7.162   7.288  0.00  0.00    +0.046 A 
ATOM     34  C   UNL     1       2.329  -6.529   8.540  0.00  0.00    +0.045 A 
ATOM     35  C   UNL     1       3.066  -5.404   8.513  0.00  0.00    +0.102 A 
ATOM     36  O   UNL     1       3.676  -5.326   7.319  0.00  0.00    -0.463 OA
ATOM     37  C   UNL     1       3.189  -4.404   9.633  0.00  0.00    +0.086 C 
ENDBRANCH  31  32
ENDBRANCH  22  31
ENDBRANCH   1  22
TORSDOF 9
