REMARK  Name = ZINC10433248
REMARK  6 active torsions:
REMARK  status: ('A' for Active; 'I' for Inactive)
REMARK    1  A    between atoms: C_1  and  C_2
REMARK    2  A    between atoms: C_5  and  O_24
REMARK    3  A    between atoms: C_6  and  N_8
REMARK    4  A    between atoms: C_12  and  S_14
REMARK    5  A    between atoms: S_14  and  C_15
REMARK    6  A    between atoms: O_24  and  C_25
REMARK                            x       y       z     vdW  Elec       q    Type
REMARK                         _______ _______ _______ _____ _____    ______ ____
ROOT
ATOM      1  N   UNL     1       3.593   2.116  -0.019  0.00  0.00    -0.289 N 
ATOM      2  C   UNL     1       4.802   1.436   0.071  0.00  0.00    +0.187 A 
ATOM      3  N   UNL     1       5.031   0.137   0.086  0.00  0.00    -0.125 NA
ATOM      4  N   UNL     1       6.322  -0.330   0.178  0.00  0.00    -0.133 NA
ATOM      5  C   UNL     1       7.324   0.524   0.262  0.00  0.00    +0.161 A 
ATOM      6  S   UNL     1       6.460   2.087   0.205  0.00  0.00    -0.024 S 
ATOM      7  H   UNL     1       3.572   3.081   0.071  0.00  0.00    +0.154 HD
ENDROOT
BRANCH   1  13
ATOM      8  C   UNL     1       1.325  -2.113  -1.088  0.00  0.00    +0.044 C 
ATOM      9  C   UNL     1       1.276  -0.643  -0.760  0.00  0.00    -0.048 A 
ATOM     10  C   UNL     1       0.058   0.004  -0.676  0.00  0.00    +0.007 A 
ATOM     11  C   UNL     1       0.006   1.353  -0.376  0.00  0.00    +0.048 A 
ATOM     12  C   UNL     1       1.177   2.060  -0.157  0.00  0.00    +0.141 A 
ATOM     13  C   UNL     1       2.406   1.407  -0.240  0.00  0.00    +0.075 A 
ATOM     14  C   UNL     1       2.450   0.054  -0.542  0.00  0.00    +0.030 A 
BRANCH  12  15
ATOM     15  O   UNL     1       1.128   3.386   0.138  0.00  0.00    -0.493 OA
ATOM     16  C   UNL     1      -0.166   3.988   0.206  0.00  0.00    +0.277 C 
ENDBRANCH  12  15
ENDBRANCH   1  13
BRANCH   5  17
ATOM     17  S   UNL     1       9.052   0.209   0.396  0.00  0.00    -0.084 S 
BRANCH  17  18
ATOM     18  C   UNL     1       9.169  -1.602   0.393  0.00  0.00    +0.139 C 
ATOM     19  C   UNL     1      10.640  -2.022   0.379  0.00  0.00    +0.024 C 
ATOM     20  C   UNL     1      11.485  -1.050   1.183  0.00  0.00    +0.003 C 
ATOM     21  C   UNL     1      11.188  -1.065   2.671  0.00  0.00    +0.019 C 
ATOM     22  C   UNL     1       9.782  -0.531   2.952  0.00  0.00    +0.104 C 
ATOM     23  N   UNL     1       8.824  -1.643   2.839  0.00  0.00    -0.314 N 
ATOM     24  C   UNL     1       8.523  -2.155   1.645  0.00  0.00    +0.226 C 
ATOM     25  O   UNL     1       7.728  -3.068   1.563  0.00  0.00    -0.275 OA
ATOM     26  H   UNL     1       8.410  -2.005   3.638  0.00  0.00    +0.149 HD
ENDBRANCH  17  18
ENDBRANCH   5  17
TORSDOF 4
