REMARK  Name = ZINC42355384
REMARK  4 active torsions:
REMARK  status: ('A' for Active; 'I' for Inactive)
REMARK    1  A    between atoms: C_1  and  C_2
REMARK    2  A    between atoms: C_7  and  N_10
REMARK    3  A    between atoms: N_10  and  C_11
REMARK    4  A    between atoms: C_12  and  C_14
REMARK                            x       y       z     vdW  Elec       q    Type
REMARK                         _______ _______ _______ _____ _____    ______ ____
ROOT
ATOM      1  N   UNL     1       1.454  -2.531   0.037  0.00  0.00    -0.298 N 
ATOM      2  C   UNL     1       0.760  -3.420  -0.897  0.00  0.00    +0.132 C 
ATOM      3  C   UNL     1       2.731  -2.171  -0.198  0.00  0.00    +0.247 C 
ATOM      4  O   UNL     1       3.344  -1.529   0.633  0.00  0.00    -0.270 OA
ENDROOT
BRANCH   3   5
ATOM      5  C   UNL     1       3.388  -2.557  -1.468  0.00  0.00    +0.043 A 
ATOM      6  C   UNL     1       2.636  -2.786  -2.625  0.00  0.00    +0.053 A 
ATOM      7  C   UNL     1       3.289  -3.144  -3.790  0.00  0.00    +0.132 A 
ATOM      8  N   UNL     1       4.602  -3.269  -3.819  0.00  0.00    -0.224 NA
ATOM      9  C   UNL     1       5.348  -3.062  -2.751  0.00  0.00    +0.132 A 
ATOM     10  C   UNL     1       4.777  -2.696  -1.546  0.00  0.00    +0.053 A 
ATOM     11 CL   UNL     1       7.071  -3.245  -2.860  0.00  0.00    -0.062 Cl
ATOM     12 CL   UNL     1       2.369  -3.432  -5.233  0.00  0.00    -0.062 Cl
ENDBRANCH   3   5
BRANCH   1  18
ATOM     13  C   UNL     1      -0.042   1.496  -0.089  0.00  0.00    +0.007 C 
ATOM     14  C   UNL     1      -0.010  -0.034  -0.058  0.00  0.00    -0.012 C 
ATOM     15  C   UNL     1      -1.442  -0.573  -0.040  0.00  0.00    +0.003 C 
ATOM     16  C   UNL     1      -1.410  -2.103  -0.010  0.00  0.00    +0.002 C 
ATOM     17  C   UNL     1      -0.672  -2.572   1.245  0.00  0.00    +0.022 C 
ATOM     18  C   UNL     1       0.759  -2.033   1.227  0.00  0.00    +0.076 C 
ATOM     19  C   UNL     1       0.728  -0.503   1.197  0.00  0.00    +0.025 C 
ENDBRANCH   1  18
TORSDOF 2
