REMARK  Name = ZINC32639503
REMARK  6 active torsions:
REMARK  status: ('A' for Active; 'I' for Inactive)
REMARK    1  A    between atoms: C_1  and  C_2
REMARK    2  A    between atoms: C_2  and  C_3
REMARK    3  A    between atoms: C_2  and  C_4
REMARK    4  A    between atoms: C_2  and  C_5
REMARK    5  A    between atoms: C_5  and  N_7
REMARK    6  A    between atoms: N_9  and  C_20
REMARK                            x       y       z     vdW  Elec       q    Type
REMARK                         _______ _______ _______ _____ _____    ______ ____
ROOT
ATOM      1  N   UNL     1       0.172  -1.702  -1.288  0.00  0.00    -0.158 NA
ATOM      2  C   UNL     1       0.705  -2.415  -2.274  0.00  0.00    +0.154 C 
ATOM      3  N   UNL     1       1.433  -1.961  -3.342  0.00  0.00    -0.276 N 
ATOM      4  C   UNL     1       1.599  -2.820  -4.487  0.00  0.00    +0.116 C 
ATOM      5  C   UNL     1       1.266  -2.148  -5.818  0.00  0.00    +0.190 C 
ATOM      6  S   UNL     1      -0.216  -3.061  -6.402  0.00  0.00    -0.028 S 
ATOM      7  O   UNL     1      -1.331  -2.180  -6.399  0.00  0.00    -0.174 OA
ATOM      8  O   UNL     1       0.115  -3.764  -7.591  0.00  0.00    -0.174 OA
ATOM      9  C   UNL     1      -0.410  -4.268  -5.031  0.00  0.00    +0.182 C 
ATOM     10  C   UNL     1       0.955  -4.207  -4.333  0.00  0.00    +0.097 C 
ATOM     11  S   UNL     1       0.644  -4.186  -2.507  0.00  0.00    -0.086 S 
ENDROOT
BRANCH   3  12
ATOM     12  C   UNL     1       2.006  -0.685  -3.321  0.00  0.00    +0.036 A 
ATOM     13  C   UNL     1       3.131  -0.440  -2.545  0.00  0.00    +0.025 A 
ATOM     14  C   UNL     1       3.694   0.821  -2.527  0.00  0.00    +0.022 A 
ATOM     15  C   UNL     1       3.138   1.840  -3.280  0.00  0.00    +0.041 A 
ATOM     16  C   UNL     1       2.017   1.598  -4.055  0.00  0.00    +0.022 A 
ATOM     17  C   UNL     1       1.454   0.338  -4.082  0.00  0.00    +0.025 A 
ATOM     18 CL   UNL     1       3.848   3.424  -3.254  0.00  0.00    -0.084 Cl
ENDBRANCH   3  12
BRANCH   1  19
ATOM     19  C   UNL     1       0.187  -0.373  -1.344  0.00  0.00    +0.244 C 
ATOM     20  O   UNL     1      -0.243   0.199  -2.327  0.00  0.00    -0.273 OA
BRANCH  19  22
ATOM     21  C   UNL     1       0.843   1.896  -0.590  0.00  0.00    +0.020 C 
ATOM     22  C   UNL     1       0.739   0.423  -0.190  0.00  0.00    +0.041 C 
ATOM     23  C   UNL     1       2.127  -0.105   0.178  0.00  0.00    +0.020 C 
ATOM     24  C   UNL     1      -0.194   0.287   1.015  0.00  0.00    +0.020 C 
ENDBRANCH  19  22
ENDBRANCH   1  19
TORSDOF 3
