REMARK  Name = ZINC07689112
REMARK  5 active torsions:
REMARK  status: ('A' for Active; 'I' for Inactive)
REMARK    1  A    between atoms: C_5  and  C_7
REMARK    2  A    between atoms: C_7  and  C_8
REMARK    3  A    between atoms: N_10  and  N_11
REMARK    4  A    between atoms: C_12  and  C_14
REMARK    5  A    between atoms: C_14  and  C_15
REMARK                            x       y       z     vdW  Elec       q    Type
REMARK                         _______ _______ _______ _____ _____    ______ ____
ROOT
ATOM      1  N   UNL     1      -6.329   1.169   1.513  0.00  0.00    -0.234 N 
ATOM      2  C   UNL     1      -5.045   1.513   1.289  0.00  0.00    +0.230 C 
ATOM      3  O   UNL     1      -4.457   2.214   2.085  0.00  0.00    -0.274 OA
ATOM      4  H   UNL     1      -6.799   0.608   0.875  0.00  0.00    +0.173 HD
ENDROOT
BRANCH   1   7
ATOM      5  C   UNL     1      -8.268   1.276   2.889  0.00  0.00    +0.233 C 
ATOM      6  O   UNL     1      -8.856   0.575   2.092  0.00  0.00    -0.274 OA
ATOM      7  N   UNL     1      -6.984   1.621   2.665  0.00  0.00    -0.234 N 
ATOM      8  H   UNL     1      -6.515   2.181   3.302  0.00  0.00    +0.173 HD
BRANCH   5   9
ATOM      9  C   UNL     1      -8.973   1.762   4.129  0.00  0.00    +0.135 C 
BRANCH   9  14
ATOM     10  C   UNL     1     -12.713   1.543   3.657  0.00  0.00    +0.000 A 
ATOM     11  C   UNL     1     -12.983   0.283   4.159  0.00  0.00    +0.003 A 
ATOM     12  C   UNL     1     -11.956  -0.499   4.651  0.00  0.00    +0.038 A 
ATOM     13  C   UNL     1     -10.656  -0.021   4.642  0.00  0.00    +0.127 A 
ATOM     14  C   UNL     1     -10.387   1.241   4.139  0.00  0.00    -0.003 A 
ATOM     15  C   UNL     1     -11.417   2.024   3.653  0.00  0.00    +0.007 A 
ATOM     16  F   UNL     1      -9.651  -0.785   5.123  0.00  0.00    -0.205 F 
ENDBRANCH   9  14
ENDBRANCH   5   9
ENDBRANCH   1   7
BRANCH   2  17
ATOM     17  C   UNL     1      -4.340   1.027   0.049  0.00  0.00    +0.104 C 
BRANCH  17  18
ATOM     18  C   UNL     1      -2.904   1.556   0.038  0.00  0.00    -0.020 C 
ATOM     19  C   UNL     1      -2.188   1.063  -1.221  0.00  0.00    +0.011 C 
ATOM     20  C   UNL     1      -0.753   1.593  -1.232  0.00  0.00    -0.010 C 
ATOM     21  C   UNL     1      -0.013   1.086   0.008  0.00  0.00    +0.007 C 
ATOM     22  C   UNL     1      -0.729   1.579   1.267  0.00  0.00    -0.010 C 
ATOM     23  C   UNL     1      -2.164   1.050   1.278  0.00  0.00    +0.011 C 
ATOM     24  C   UNL     1      -0.750   3.109   1.275  0.00  0.00    +0.007 C 
ATOM     25  C   UNL     1      -1.490   3.616   0.036  0.00  0.00    -0.010 C 
ATOM     26  C   UNL     1      -0.773   3.123  -1.223  0.00  0.00    +0.007 C 
ATOM     27  C   UNL     1      -2.925   3.086   0.047  0.00  0.00    +0.011 C 
ENDBRANCH  17  18
ENDBRANCH   2  17
TORSDOF 5
