REMARK  Name = ZINC08889451
REMARK  8 active torsions:
REMARK  status: ('A' for Active; 'I' for Inactive)
REMARK    1  A    between atoms: C_1  and  C_2
REMARK    2  A    between atoms: C_6  and  C_14
REMARK    3  A    between atoms: C_12  and  C_13
REMARK    4  A    between atoms: C_14  and  N_15
REMARK    5  A    between atoms: C_18  and  C_22
REMARK    6  A    between atoms: C_18  and  C_23
REMARK    7  A    between atoms: C_26  and  O_29
REMARK    8  A    between atoms: O_29  and  C_30
REMARK                            x       y       z     vdW  Elec       q    Type
REMARK                         _______ _______ _______ _____ _____    ______ ____
ROOT
ATOM      1  N   UNL     1      -0.026   1.319   0.008  0.00  0.00    -0.220 N 
ATOM      2  C   UNL     1       1.226   1.818   0.014  0.00  0.00    +0.251 C 
ATOM      3  O   UNL     1       1.549   2.986   0.035  0.00  0.00    -0.272 OA
ATOM      4  C   UNL     1       2.147   0.614  -0.010  0.00  0.00    +0.135 C 
ATOM      5  N   UNL     1       1.220  -0.531  -0.029  0.00  0.00    -0.281 N 
ATOM      6  C   UNL     1      -0.024  -0.019  -0.017  0.00  0.00    +0.310 C 
ATOM      7  O   UNL     1      -1.033  -0.696  -0.027  0.00  0.00    -0.252 OA
ATOM      8  C   UNL     1       3.020   0.579   1.246  0.00  0.00    +0.047 C 
ATOM      9  H   UNL     1       1.460  -1.470  -0.046  0.00  0.00    +0.152 HD
ENDROOT
BRANCH   4  10
ATOM     10  C   UNL     1       3.002   0.625  -1.251  0.00  0.00    -0.015 A 
ATOM     11  C   UNL     1       3.430   1.827  -1.783  0.00  0.00    +0.010 A 
ATOM     12  C   UNL     1       4.218   1.839  -2.918  0.00  0.00    +0.046 A 
ATOM     13  C   UNL     1       4.570   0.645  -3.530  0.00  0.00    +0.120 A 
ATOM     14  C   UNL     1       4.134  -0.559  -2.997  0.00  0.00    +0.046 A 
ATOM     15  C   UNL     1       3.351  -0.567  -1.859  0.00  0.00    +0.010 A 
BRANCH  13  16
ATOM     16  O   UNL     1       5.340   0.655  -4.649  0.00  0.00    -0.495 OA
ATOM     17  C   UNL     1       5.752   1.932  -5.142  0.00  0.00    +0.277 C 
ENDBRANCH  13  16
ENDBRANCH   4  10
BRANCH   1  18
ATOM     18  C   UNL     1      -1.239   2.140   0.020  0.00  0.00    +0.154 C 
BRANCH  18  24
ATOM     19  C   UNL     1      -6.676   4.934   2.637  0.00  0.00    +0.044 C 
ATOM     20  C   UNL     1      -5.374   4.244   2.324  0.00  0.00    -0.044 A 
ATOM     21  C   UNL     1      -4.966   4.111   1.004  0.00  0.00    +0.004 A 
ATOM     22  C   UNL     1      -3.788   3.488   0.702  0.00  0.00    +0.012 A 
ATOM     23  C   UNL     1      -2.985   2.986   1.730  0.00  0.00    +0.023 A 
ATOM     24  C   UNL     1      -1.719   2.306   1.438  0.00  0.00    -0.012 A 
ATOM     25  C   UNL     1      -0.990   1.835   2.481  0.00  0.00    +0.098 A 
ATOM     26  C   UNL     1      -1.462   2.003   3.801  0.00  0.00    +0.338 A 
ATOM     27  O   UNL     1      -0.798   1.576   4.728  0.00  0.00    -0.245 OA
ATOM     28  O   UNL     1      -2.624   2.622   4.060  0.00  0.00    -0.422 OA
ATOM     29  C   UNL     1      -3.398   3.113   3.068  0.00  0.00    +0.142 A 
ATOM     30  C   UNL     1      -4.599   3.750   3.353  0.00  0.00    -0.005 A 
ATOM     31  C   UNL     1      -5.055   3.901   4.781  0.00  0.00    +0.048 C 
ENDBRANCH  18  24
ENDBRANCH   1  18
TORSDOF 4
