REMARK  Name = ZINC10460502
REMARK  10 active torsions:
REMARK  status: ('A' for Active; 'I' for Inactive)
REMARK    1  A    between atoms: C_1  and  C_2
REMARK    2  A    between atoms: C_2  and  C_4
REMARK    3  A    between atoms: C_2  and  O_22
REMARK    4  A    between atoms: N_6  and  N_7
REMARK    5  A    between atoms: N_7  and  C_8
REMARK    6  A    between atoms: C_8  and  N_10
REMARK    7  A    between atoms: C_11  and  C_13
REMARK    8  A    between atoms: C_13  and  C_14
REMARK    9  A    between atoms: C_14  and  C_15
REMARK   10  A    between atoms: O_22  and  C_23
REMARK                            x       y       z     vdW  Elec       q    Type
REMARK                         _______ _______ _______ _____ _____    ______ ____
ROOT
ATOM      1  C   UNL     1      -4.793   4.113   0.298  0.00  0.00    +0.270 C 
ATOM      2  O   UNL     1      -4.840   5.312   0.476  0.00  0.00    -0.270 OA
ATOM      3  N   UNL     1      -3.607   3.473   0.329  0.00  0.00    -0.232 N 
ATOM      4  H   UNL     1      -3.570   2.514   0.187  0.00  0.00    +0.173 HD
ENDROOT
BRANCH   1   6
ATOM      5  C   UNL     1      -6.306   2.366   1.197  0.00  0.00    +0.062 C 
ATOM      6  C   UNL     1      -6.061   3.339   0.042  0.00  0.00    +0.257 C 
BRANCH   6   7
ATOM      7  O   UNL     1      -7.160   4.246  -0.058  0.00  0.00    -0.480 OA
BRANCH   7   8
ATOM      8  C   UNL     1      -8.241   3.829  -0.769  0.00  0.00    +0.122 A 
ATOM      9  C   UNL     1      -8.279   2.521  -1.263  0.00  0.00    +0.046 A 
ATOM     10  C   UNL     1      -9.346   2.075  -1.978  0.00  0.00    +0.012 A 
ATOM     11  C   UNL     1     -10.429   2.937  -2.226  0.00  0.00    -0.018 A 
ATOM     12  C   UNL     1     -11.548   2.508  -2.960  0.00  0.00    +0.008 A 
ATOM     13  C   UNL     1     -12.578   3.369  -3.182  0.00  0.00    +0.001 A 
ATOM     14  C   UNL     1     -12.542   4.673  -2.691  0.00  0.00    +0.001 A 
ATOM     15  C   UNL     1     -11.476   5.123  -1.976  0.00  0.00    +0.008 A 
ATOM     16  C   UNL     1     -10.392   4.263  -1.727  0.00  0.00    -0.014 A 
ATOM     17  C   UNL     1      -9.277   4.691  -0.988  0.00  0.00    +0.054 A 
ENDBRANCH   7   8
ENDBRANCH   6   7
ENDBRANCH   1   6
BRANCH   3  18
ATOM     18  N   UNL     1      -2.429   4.193   0.567  0.00  0.00    -0.245 N 
ATOM     19  H   UNL     1      -2.466   5.152   0.709  0.00  0.00    +0.172 HD
BRANCH  18  20
ATOM     20  C   UNL     1      -1.243   3.553   0.598  0.00  0.00    +0.153 C 
ATOM     21  S   UNL     1       0.197   4.432   0.889  0.00  0.00    -0.017 S 
BRANCH  20  22
ATOM     22  N   UNL     1      -1.191   2.220   0.401  0.00  0.00    -0.267 N 
ATOM     23  C   UNL     1      -0.005   1.581   0.432  0.00  0.00    +0.219 C 
ATOM     24  O   UNL     1       1.015   2.204   0.633  0.00  0.00    -0.275 OA
ATOM     25  H   UNL     1      -2.007   1.722   0.236  0.00  0.00    +0.157 HD
BRANCH  23  26
ATOM     26  C   UNL     1       0.053   0.091   0.211  0.00  0.00    +0.101 C 
BRANCH  26  27
ATOM     27  C   UNL     1       1.506  -0.380   0.290  0.00  0.00    +0.046 C 
BRANCH  27  28
ATOM     28  C   UNL     1       1.565  -1.869   0.069  0.00  0.00    -0.029 A 
ATOM     29  C   UNL     1       1.579  -2.729   1.152  0.00  0.00    +0.005 A 
ATOM     30  C   UNL     1       1.628  -4.095   0.949  0.00  0.00    +0.000 A 
ATOM     31  C   UNL     1       1.673  -4.603  -0.336  0.00  0.00    +0.001 A 
ATOM     32  C   UNL     1       1.663  -3.745  -1.419  0.00  0.00    +0.020 A 
ATOM     33  C   UNL     1       1.609  -2.377  -1.217  0.00  0.00    +0.044 A 
ATOM     34 CL   UNL     1       1.598  -1.298  -2.577  0.00  0.00    -0.083 Cl
ENDBRANCH  27  28
ENDBRANCH  26  27
ENDBRANCH  23  26
ENDBRANCH  20  22
ENDBRANCH  18  20
ENDBRANCH   3  18
TORSDOF 9
