REMARK  Name = ZINC07496521
REMARK  5 active torsions:
REMARK  status: ('A' for Active; 'I' for Inactive)
REMARK    1  A    between atoms: C_3  and  C_6
REMARK    2  A    between atoms: C_6  and  C_8
REMARK    3  A    between atoms: C_6  and  N_15
REMARK    4  A    between atoms: C_16  and  C_18
REMARK    5  A    between atoms: C_18  and  N_51
REMARK                            x       y       z     vdW  Elec       q    Type
REMARK                         _______ _______ _______ _____ _____    ______ ____
ROOT
ATOM      1  N   UNL     1       1.913  -2.481  -0.917  0.00  0.00    -0.306 N 
ATOM      2  C   UNL     1       2.168  -2.460  -2.240  0.00  0.00    +0.197 C 
ATOM      3  O   UNL     1       2.937  -1.641  -2.697  0.00  0.00    -0.278 OA
ATOM      4  H   UNL     1       1.298  -3.136  -0.552  0.00  0.00    +0.150 HD
ENDROOT
BRANCH   1   5
ATOM      5  C   UNL     1       2.565  -1.514  -0.030  0.00  0.00    +0.140 C 
BRANCH   5   6
ATOM      6  C   UNL     1       2.631  -2.078   1.366  0.00  0.00    -0.022 A 
ATOM      7  C   UNL     1       1.557  -2.781   1.879  0.00  0.00    +0.008 A 
ATOM      8  C   UNL     1       1.619  -3.303   3.157  0.00  0.00    +0.038 A 
ATOM      9  C   UNL     1       2.754  -3.113   3.927  0.00  0.00    +0.123 A 
ATOM     10  C   UNL     1       3.827  -2.404   3.414  0.00  0.00    +0.038 A 
ATOM     11  C   UNL     1       3.765  -1.888   2.134  0.00  0.00    +0.008 A 
ATOM     12  F   UNL     1       2.814  -3.619   5.178  0.00  0.00    -0.205 F 
ENDBRANCH   5   6
BRANCH   5  15
ATOM     13  C   UNL     1       1.300   2.079   0.001  0.00  0.00    +0.008 A 
ATOM     14  C   UNL     1       2.220   1.048  -0.013  0.00  0.00    +0.013 A 
ATOM     15  C   UNL     1       1.773  -0.232  -0.016  0.00  0.00    +0.014 A 
ATOM     16  S   UNL     1       0.002  -0.004   0.002  0.00  0.00    -0.099 S 
ATOM     17  C   UNL     1      -0.022   1.781   0.012  0.00  0.00    +0.045 A 
ENDBRANCH   5  15
ENDBRANCH   1   5
BRANCH   2  18
ATOM     18  C   UNL     1       1.498  -3.454  -3.153  0.00  0.00    +0.019 C 
BRANCH  18  30
ATOM     19  C   UNL     1       1.463  -1.926  -5.031  0.00  0.00    -0.059 C 
ATOM     20  C   UNL     1       2.009  -1.691  -6.441  0.00  0.00    +0.089 C 
ATOM     21  N   UNL     1       1.566  -2.780  -7.322  0.00  0.00    -0.303 N 
ATOM     22  C   UNL     1       2.041  -4.080  -6.827  0.00  0.00    +0.089 C 
ATOM     23  C   UNL     1       1.496  -4.315  -5.416  0.00  0.00    -0.059 C 
ATOM     24  C   UNL     1       1.982  -2.564  -8.625  0.00  0.00    +0.218 A 
ATOM     25  N   UNL     1       2.713  -3.487  -9.232  0.00  0.00    -0.223 NA
ATOM     26  C   UNL     1       3.122  -3.314 -10.478  0.00  0.00    +0.116 A 
ATOM     27  C   UNL     1       2.785  -2.147 -11.144  0.00  0.00    +0.039 A 
ATOM     28  C   UNL     1       2.023  -1.200 -10.478  0.00  0.00    +0.116 A 
ATOM     29  N   UNL     1       1.642  -1.438  -9.233  0.00  0.00    -0.223 NA
ATOM     30  N   UNL     1       1.966  -3.225  -4.536  0.00  0.00    +0.387 N 
ATOM     31  H   UNL     1       2.993  -3.209  -4.542  0.00  0.00    -0.081 HD
ENDBRANCH  18  30
ENDBRANCH   2  18
TORSDOF 5
