REMARK  Name = ZINC17101642
REMARK  11 active torsions:
REMARK  status: ('A' for Active; 'I' for Inactive)
REMARK    1  A    between atoms: C_1  and  C_2
REMARK    2  A    between atoms: C_2  and  C_3
REMARK    3  A    between atoms: C_5  and  C_26
REMARK    4  A    between atoms: C_6  and  N_8
REMARK    5  A    between atoms: N_8  and  C_9
REMARK    6  A    between atoms: C_9  and  N_11
REMARK    7  A    between atoms: N_11  and  N_12
REMARK    8  A    between atoms: C_13  and  C_15
REMARK    9  A    between atoms: C_22  and  C_25
REMARK   10  A    between atoms: C_26  and  O_28
REMARK   11  A    between atoms: O_28  and  C_29
REMARK                            x       y       z     vdW  Elec       q    Type
REMARK                         _______ _______ _______ _____ _____    ______ ____
ROOT
ATOM      1  N   UNL     1      -2.491   4.244   0.037  0.00  0.00    -0.245 N 
ATOM      2  H   UNL     1      -3.333   3.763   0.038  0.00  0.00    +0.172 HD
ENDROOT
BRANCH   1   3
ATOM      3  N   UNL     1      -1.281   3.537   0.027  0.00  0.00    -0.231 N 
ATOM      4  C   UNL     1      -1.288   2.189   0.020  0.00  0.00    +0.261 C 
ATOM      5  O   UNL     1      -2.345   1.587   0.022  0.00  0.00    -0.269 OA
ATOM      6  H   UNL     1      -0.439   4.017   0.026  0.00  0.00    +0.173 HD
BRANCH   4   7
ATOM      7  C   UNL     1      -0.018   1.446   0.010  0.00  0.00    +0.049 A 
ATOM      8  C   UNL     1       1.192   2.106   0.002  0.00  0.00    +0.058 A 
ATOM      9  S   UNL     1       2.348   0.815  -0.016  0.00  0.00    -0.101 S 
ATOM     10  C   UNL     1       1.235  -0.561  -0.013  0.00  0.00    -0.006 A 
ATOM     11  C   UNL     1       0.002  -0.004   0.002  0.00  0.00    -0.025 A 
ATOM     12  C   UNL     1      -1.250  -0.872   0.011  0.00  0.00    +0.037 C 
ATOM     13  C   UNL     1      -0.867  -2.284   0.457  0.00  0.00    +0.008 C 
ATOM     14  C   UNL     1       0.296  -2.802  -0.394  0.00  0.00    -0.009 C 
ATOM     15  C   UNL     1       1.566  -2.021  -0.025  0.00  0.00    +0.046 C 
ATOM     16  C   UNL     1       0.510  -4.291  -0.117  0.00  0.00    +0.008 C 
ENDBRANCH   4   7
ENDBRANCH   1   3
BRANCH   1  17
ATOM     17  C   UNL     1      -2.484   5.591   0.044  0.00  0.00    +0.151 C 
ATOM     18  S   UNL     1      -3.962   6.455   0.056  0.00  0.00    -0.017 S 
BRANCH  17  19
ATOM     19  N   UNL     1      -1.313   6.259   0.042  0.00  0.00    -0.290 N 
ATOM     20  H   UNL     1      -0.475   5.770   0.036  0.00  0.00    +0.154 HD
BRANCH  19  24
ATOM     21  C   UNL     1      -1.791  10.283   0.066  0.00  0.00    -0.008 A 
ATOM     22  C   UNL     1      -0.497   9.918   0.058  0.00  0.00    +0.028 A 
ATOM     23  C   UNL     1      -0.211   8.503   0.049  0.00  0.00    +0.088 A 
ATOM     24  C   UNL     1      -1.305   7.644   0.050  0.00  0.00    +0.085 A 
ATOM     25  S   UNL     1      -2.656   8.727   0.054  0.00  0.00    -0.078 S 
BRANCH  21  27
ATOM     26  C   UNL     1      -2.572  12.152  -1.365  0.00  0.00    +0.009 C 
ATOM     27  C   UNL     1      -2.370  11.675   0.075  0.00  0.00    +0.039 C 
ENDBRANCH  21  27
BRANCH  23  28
ATOM     28  C   UNL     1       1.163   7.997   0.040  0.00  0.00    +0.341 C 
ATOM     29  O   UNL     1       1.369   6.798   0.032  0.00  0.00    -0.245 OA
BRANCH  28  30
ATOM     30  O   UNL     1       2.200   8.860   0.040  0.00  0.00    -0.464 OA
ATOM     31  C   UNL     1       3.534   8.287   0.030  0.00  0.00    +0.280 C 
ENDBRANCH  28  30
ENDBRANCH  23  28
ENDBRANCH  19  24
ENDBRANCH  17  19
ENDBRANCH   1  17
TORSDOF 8
