REMARK  Name = ZINC61228874
REMARK  7 active torsions:
REMARK  status: ('A' for Active; 'I' for Inactive)
REMARK    1  A    between atoms: C_1  and  C_2
REMARK    2  A    between atoms: C_2  and  N_3
REMARK    3  A    between atoms: N_3  and  C_4
REMARK    4  A    between atoms: C_4  and  C_5
REMARK    5  A    between atoms: C_5  and  C_7
REMARK    6  A    between atoms: C_5  and  C_8
REMARK    7  A    between atoms: N_10  and  C_11
REMARK                            x       y       z     vdW  Elec       q    Type
REMARK                         _______ _______ _______ _____ _____    ______ ____
ROOT
ATOM      1  C   UNL     1       2.873  -3.753  -2.666  0.00  0.00    +0.218 C 
ATOM      2  O   UNL     1       3.636  -4.189  -1.831  0.00  0.00    -0.275 OA
ATOM      3  N   UNL     1       2.157  -4.600  -3.432  0.00  0.00    -0.284 N 
ATOM      4  H   UNL     1       1.493  -4.253  -4.049  0.00  0.00    +0.155 HD
ENDROOT
BRANCH   3   5
ATOM      5  C   UNL     1       2.370  -5.981  -3.338  0.00  0.00    +0.062 A 
ATOM      6  C   UNL     1       1.623  -6.741  -2.447  0.00  0.00    +0.041 A 
ATOM      7  C   UNL     1       1.836  -8.104  -2.357  0.00  0.00    +0.032 A 
ATOM      8  C   UNL     1       2.793  -8.710  -3.151  0.00  0.00    +0.020 A 
ATOM      9  C   UNL     1       3.538  -7.955  -4.039  0.00  0.00    +0.032 A 
ATOM     10  C   UNL     1       3.326  -6.593  -4.138  0.00  0.00    +0.041 A 
ATOM     11 BR   UNL     1       4.340  -5.564  -5.358  0.00  0.00    -0.048 Br
ATOM     12 BR   UNL     1       3.081 -10.575  -3.024  0.00  0.00    -0.050 Br
ATOM     13 BR   UNL     1       0.317  -5.913  -1.360  0.00  0.00    -0.048 Br
ENDBRANCH   3   5
BRANCH   1  14
ATOM     14  C   UNL     1       2.724  -2.265  -2.847  0.00  0.00    +0.055 C 
ATOM     15  C   UNL     1       1.272  -1.861  -2.585  0.00  0.00    +0.015 C 
BRANCH  14  16
ATOM     16  C   UNL     1       3.641  -1.537  -1.861  0.00  0.00    -0.070 C 
BRANCH  16  17
ATOM     17  N   UNL     1       3.587  -0.092  -2.118  0.00  0.00    +0.379 N 
ATOM     18  H   UNL     1       2.639   0.235  -2.000  0.00  0.00    -0.086 HD
ATOM     19  H   UNL     1       3.892   0.094  -3.061  0.00  0.00    -0.086 HD
BRANCH  17  21
ATOM     20  C   UNL     1       4.410   2.112  -1.438  0.00  0.00    -0.017 C 
ATOM     21  C   UNL     1       4.467   0.607  -1.171  0.00  0.00    -0.086 C 
ENDBRANCH  17  21
ENDBRANCH  16  17
ENDBRANCH  14  16
ENDBRANCH   1  14
TORSDOF 5
