REMARK  Name = ZINC04027581
REMARK  6 active torsions:
REMARK  status: ('A' for Active; 'I' for Inactive)
REMARK    1  A    between atoms: C_1  and  C_2
REMARK    2  A    between atoms: C_2  and  C_3
REMARK    3  A    between atoms: C_3  and  C_5
REMARK    4  A    between atoms: C_5  and  O_7
REMARK    5  A    between atoms: O_7  and  C_8
REMARK    6  A    between atoms: C_8  and  C_9
REMARK                            x       y       z     vdW  Elec       q    Type
REMARK                         _______ _______ _______ _____ _____    ______ ____
ROOT
ATOM      1  C   UNL     1      -1.454   3.589   0.067  0.00  0.00    +0.013 C 
ATOM      2  C   UNL     1      -0.760   3.122  -1.214  0.00  0.00    +0.003 C 
ATOM      3  C   UNL     1      -0.747   1.589  -1.234  0.00  0.00    -0.018 C 
ATOM      4  C   UNL     1      -0.013   1.086   0.008  0.00  0.00    -0.078 C 
ATOM      5  C   UNL     1      -0.724   3.023   1.290  0.00  0.00    -0.062 C 
ATOM      6  C   UNL     1      -1.476   3.477   2.545  0.00  0.00    -0.015 C 
ATOM      7  C   UNL     1      -0.807   2.896   3.791  0.00  0.00    -0.003 C 
ATOM      8  C   UNL     1      -0.794   1.368   3.674  0.00  0.00    -0.019 C 
ATOM      9  C   UNL     1      -0.036   0.978   2.405  0.00  0.00    -0.078 C 
ATOM     10  N   UNL     1      -0.714   1.539   1.224  0.00  0.00    +0.382 N 
ATOM     11  H   UNL     1      -1.683   1.201   1.199  0.00  0.00    -0.081 HD
ENDROOT
BRANCH   1  12
ATOM     12  C   UNL     1      -2.903   3.098   0.068  0.00  0.00    +0.234 C 
BRANCH  12  13
ATOM     13  O   UNL     1      -3.630   3.733  -1.017  0.00  0.00    -0.463 OA
BRANCH  13  14
ATOM     14  C   UNL     1      -4.925   3.408  -1.155  0.00  0.00    +0.325 C 
ATOM     15  O   UNL     1      -5.434   2.619  -0.395  0.00  0.00    -0.249 OA
BRANCH  14  16
ATOM     16  C   UNL     1      -5.743   4.027  -2.259  0.00  0.00    +0.188 C 
ATOM     17 CL   UNL     1      -6.005   2.814  -3.566  0.00  0.00    -0.110 Cl
BRANCH  16  19
ATOM     18  C   UNL     1      -7.876   5.216  -2.789  0.00  0.00    +0.006 C 
ATOM     19  C   UNL     1      -7.095   4.476  -1.701  0.00  0.00    +0.027 C 
ENDBRANCH  16  19
ENDBRANCH  14  16
ENDBRANCH  13  14
ENDBRANCH  12  13
ENDBRANCH   1  12
TORSDOF 5
