REMARK  Name = ZINC32972861
REMARK  13 active torsions:
REMARK  status: ('A' for Active; 'I' for Inactive)
REMARK    1  A    between atoms: C_1  and  C_2
REMARK    2  A    between atoms: C_2  and  C_3
REMARK    3  A    between atoms: C_3  and  N_4
REMARK    4  A    between atoms: C_6  and  C_10
REMARK    5  A    between atoms: C_7  and  C_9
REMARK    6  A    between atoms: C_10  and  N_11
REMARK    7  A    between atoms: N_13  and  C_14
REMARK    8  A    between atoms: C_17  and  C_21
REMARK    9  A    between atoms: C_19  and  C_20
REMARK   10  A    between atoms: N_22  and  C_23
REMARK   11  A    between atoms: C_23  and  C_25
REMARK   12  A    between atoms: C_27  and  C_32
REMARK   13  A    between atoms: C_29  and  C_31
REMARK                            x       y       z     vdW  Elec       q    Type
REMARK                         _______ _______ _______ _____ _____    ______ ____
ROOT
ATOM      1  N   UNL     1       2.584  -5.696   0.568  0.00  0.00    -0.353 N 
ATOM      2  C   UNL     1       3.112  -6.691  -0.201  0.00  0.00    +0.194 C 
ATOM      3  N   UNL     1       3.854  -7.680   0.378  0.00  0.00    -0.328 N 
ATOM      4  N   UNL     1       2.906  -6.697  -1.509  0.00  0.00    -0.143 NA
ATOM      5  H   UNL     1       2.142  -4.941   0.148  0.00  0.00    +0.163 HD
ATOM      6  H   UNL     1       4.088  -7.624   1.317  0.00  0.00    +0.169 HD
ENDROOT
BRANCH   3   7
ATOM      7  C   UNL     1       4.277  -8.774  -0.385  0.00  0.00    +0.045 A 
ATOM      8  C   UNL     1       3.521  -9.200  -1.469  0.00  0.00    +0.026 A 
ATOM      9  C   UNL     1       3.942 -10.280  -2.220  0.00  0.00    +0.005 A 
ATOM     10  C   UNL     1       5.114 -10.937  -1.893  0.00  0.00    -0.050 A 
ATOM     11  C   UNL     1       5.868 -10.516  -0.813  0.00  0.00    +0.008 A 
ATOM     12  C   UNL     1       5.456  -9.432  -0.062  0.00  0.00    -0.027 A 
ATOM     13  C   UNL     1       6.282  -8.970   1.111  0.00  0.00    +0.046 C 
ATOM     14  C   UNL     1       5.569 -12.116  -2.714  0.00  0.00    +0.044 C 
ENDBRANCH   3   7
BRANCH   4  15
ATOM     15  C   UNL     1       2.099  -5.783  -2.064  0.00  0.00    +0.270 C 
ATOM     16  O   UNL     1       0.968  -5.629  -1.638  0.00  0.00    -0.268 OA
BRANCH  15  17
ATOM     17  C   UNL     1       2.582  -4.959  -3.197  0.00  0.00    +0.039 A 
ATOM     18  C   UNL     1       3.874  -5.137  -3.691  0.00  0.00    +0.016 A 
ATOM     19  C   UNL     1       4.318  -4.367  -4.746  0.00  0.00    -0.049 A 
ATOM     20  C   UNL     1       3.484  -3.420  -5.314  0.00  0.00    +0.006 A 
ATOM     21  C   UNL     1       2.201  -3.239  -4.828  0.00  0.00    -0.049 A 
ATOM     22  C   UNL     1       1.744  -4.006  -3.777  0.00  0.00    +0.016 A 
ATOM     23  C   UNL     1       1.300  -2.204  -5.452  0.00  0.00    +0.044 C 
ATOM     24  C   UNL     1       5.713  -4.557  -5.282  0.00  0.00    +0.044 C 
ENDBRANCH  15  17
ENDBRANCH   4  15
BRANCH   1  25
ATOM     25  C   UNL     1       2.684  -5.767   2.028  0.00  0.00    +0.154 C 
BRANCH  25  28
ATOM     26  N   UNL     1       1.722  -2.599   3.557  0.00  0.00    -0.271 N 
ATOM     27  C   UNL     1       2.661  -3.450   3.092  0.00  0.00    +0.114 A 
ATOM     28  C   UNL     1       2.026  -4.555   2.636  0.00  0.00    +0.012 A 
ATOM     29  C   UNL     1       0.653  -4.373   2.828  0.00  0.00    +0.065 A 
ATOM     30  N   UNL     1       0.470  -3.203   3.385  0.00  0.00    -0.176 NA
ATOM     31  C   UNL     1      -0.428  -5.357   2.462  0.00  0.00    +0.068 C 
BRANCH  26  32
ATOM     32  C   UNL     1       1.969  -1.279   4.142  0.00  0.00    +0.143 C 
BRANCH  32  34
ATOM     33  C   UNL     1       1.410   1.152   4.002  0.00  0.00    +0.005 C 
ATOM     34  C   UNL     1       1.152  -0.227   3.390  0.00  0.00    +0.020 C 
ENDBRANCH  32  34
ENDBRANCH  26  32
ENDBRANCH  25  28
ENDBRANCH   1  25
TORSDOF 7
