REMARK  Name = ZINC01073803
REMARK  11 active torsions:
REMARK  status: ('A' for Active; 'I' for Inactive)
REMARK    1  A    between atoms: C_1  and  C_2
REMARK    2  A    between atoms: C_2  and  C_35
REMARK    3  A    between atoms: C_6  and  C_16
REMARK    4  A    between atoms: C_8  and  C_12
REMARK    5  A    between atoms: C_9  and  N_11
REMARK    6  A    between atoms: C_12  and  O_14
REMARK    7  A    between atoms: O_14  and  C_15
REMARK    8  A    between atoms: C_19  and  C_22
REMARK    9  A    between atoms: C_22  and  O_24
REMARK   10  A    between atoms: O_24  and  C_25
REMARK   11  A    between atoms: C_25  and  C_26
REMARK                            x       y       z     vdW  Elec       q    Type
REMARK                         _______ _______ _______ _____ _____    ______ ____
ROOT
ATOM      1  C   UNL     1       8.881   2.174 -10.141  0.00  0.00    +0.012 C 
ATOM      2  C   UNL     1       8.253   1.024  -9.351  0.00  0.00    -0.021 C 
ATOM      3  C   UNL     1       6.740   1.232  -9.256  0.00  0.00    +0.081 C 
ATOM      4  C   UNL     1       6.449   2.525  -8.530  0.00  0.00    +0.115 C 
ATOM      5  C   UNL     1       7.282   2.979  -7.576  0.00  0.00    +0.045 C 
ATOM      6  C   UNL     1       6.983   4.265  -6.843  0.00  0.00    +0.097 C 
ATOM      7  C   UNL     1       5.994   5.085  -7.623  0.00  0.00    +0.105 C 
ATOM      8  C   UNL     1       5.232   4.507  -8.587  0.00  0.00    +0.195 C 
ATOM      9  O   UNL     1       5.333   3.199  -8.866  0.00  0.00    -0.446 OA
ATOM     10  C   UNL     1       8.453   2.276  -7.231  0.00  0.00    +0.164 C 
ATOM     11  O   UNL     1       9.171   2.709  -6.352  0.00  0.00    -0.292 OA
ATOM     12  C   UNL     1       8.830   0.999  -7.931  0.00  0.00    +0.086 C 
ATOM     13  C   UNL     1       8.551  -0.303 -10.050  0.00  0.00    +0.012 C 
ENDROOT
BRANCH   6  14
ATOM     14  C   UNL     1       6.409   3.946  -5.487  0.00  0.00    -0.035 A 
ATOM     15  C   UNL     1       7.065   4.367  -4.344  0.00  0.00    +0.005 A 
ATOM     16  C   UNL     1       6.545   4.078  -3.100  0.00  0.00    +0.015 A 
ATOM     17  C   UNL     1       5.353   3.358  -2.995  0.00  0.00    +0.059 A 
ATOM     18  C   UNL     1       4.698   2.932  -4.152  0.00  0.00    +0.015 A 
ATOM     19  C   UNL     1       5.227   3.232  -5.391  0.00  0.00    +0.005 A 
BRANCH  17  20
ATOM     20  C   UNL     1       4.790   3.045  -1.666  0.00  0.00    +0.339 C 
ATOM     21  O   UNL     1       5.364   3.413  -0.661  0.00  0.00    -0.245 OA
BRANCH  20  22
ATOM     22  O   UNL     1       3.640   2.350  -1.568  0.00  0.00    -0.456 OA
BRANCH  22  23
ATOM     23  C   UNL     1       3.145   2.078  -0.230  0.00  0.00    +0.268 C 
BRANCH  23  24
ATOM     24  C   UNL     1       1.859   1.298  -0.319  0.00  0.00    -0.010 A 
ATOM     25  C   UNL     1       0.649   1.963  -0.379  0.00  0.00    +0.007 A 
ATOM     26  C   UNL     1      -0.530   1.247  -0.461  0.00  0.00    +0.000 A 
ATOM     27  C   UNL     1      -0.500  -0.135  -0.481  0.00  0.00    +0.000 A 
ATOM     28  C   UNL     1       0.710  -0.800  -0.420  0.00  0.00    +0.000 A 
ATOM     29  C   UNL     1       1.890  -0.084  -0.339  0.00  0.00    +0.007 A 
ENDBRANCH  23  24
ENDBRANCH  22  23
ENDBRANCH  20  22
ENDBRANCH  17  20
ENDBRANCH   6  14
BRANCH   8  30
ATOM     30  N   UNL     1       4.341   5.275  -9.289  0.00  0.00    -0.329 N 
ATOM     31  H   UNL     1       4.324   6.236  -9.160  0.00  0.00    +0.145 HD
ATOM     32  H   UNL     1       3.728   4.857  -9.914  0.00  0.00    +0.145 HD
ENDBRANCH   8  30
BRANCH   7  33
ATOM     33  C   UNL     1       5.858   6.456  -7.354  0.00  0.00    +0.341 C 
ATOM     34  O   UNL     1       6.678   7.246  -7.786  0.00  0.00    -0.245 OA
BRANCH  33  35
ATOM     35  O   UNL     1       4.817   6.899  -6.616  0.00  0.00    -0.465 OA
ATOM     36  C   UNL     1       4.740   8.306  -6.381  0.00  0.00    +0.280 C 
ENDBRANCH  33  35
ENDBRANCH   7  33
TORSDOF 8
