REMARK  Name = ZINC16930178
REMARK  8 active torsions:
REMARK  status: ('A' for Active; 'I' for Inactive)
REMARK    1  A    between atoms: C_1  and  C_2
REMARK    2  A    between atoms: C_5  and  C_30
REMARK    3  A    between atoms: C_6  and  N_8
REMARK    4  A    between atoms: N_9  and  C_10
REMARK    5  A    between atoms: C_11  and  C_24
REMARK    6  A    between atoms: N_13  and  C_21
REMARK    7  A    between atoms: C_14  and  C_15
REMARK    8  A    between atoms: C_21  and  N_23
REMARK                            x       y       z     vdW  Elec       q    Type
REMARK                         _______ _______ _______ _____ _____    ______ ____
ROOT
ATOM      1  C   UNL     1       0.069  -2.808   4.735  0.00  0.00    +0.140 A 
ATOM      2  C   UNL     1      -0.138  -4.255   4.855  0.00  0.00    +0.121 A 
ATOM      3  N   UNL     1      -0.454  -4.506   6.104  0.00  0.00    -0.162 NA
ATOM      4  N   UNL     1      -0.471  -3.313   6.831  0.00  0.00    -0.209 N 
ATOM      5  C   UNL     1      -0.147  -2.275   6.004  0.00  0.00    +0.104 A 
ENDROOT
BRANCH   5   6
ATOM      6  C   UNL     1      -0.047  -0.853   6.383  0.00  0.00    +0.003 A 
ATOM      7  C   UNL     1       0.896  -0.443   7.329  0.00  0.00    +0.010 A 
ATOM      8  C   UNL     1       0.984   0.888   7.679  0.00  0.00    +0.001 A 
ATOM      9  C   UNL     1       0.141   1.817   7.095  0.00  0.00    +0.000 A 
ATOM     10  C   UNL     1      -0.796   1.419   6.157  0.00  0.00    +0.001 A 
ATOM     11  C   UNL     1      -0.891   0.092   5.794  0.00  0.00    +0.010 A 
ENDBRANCH   5   6
BRANCH   2  12
ATOM     12  C   UNL     1      -0.015  -5.252   3.764  0.00  0.00    +0.004 A 
ATOM     13  C   UNL     1      -0.362  -4.907   2.459  0.00  0.00    +0.010 A 
ATOM     14  C   UNL     1      -0.244  -5.839   1.448  0.00  0.00    +0.001 A 
ATOM     15  C   UNL     1       0.216  -7.113   1.727  0.00  0.00    +0.000 A 
ATOM     16  C   UNL     1       0.561  -7.461   3.021  0.00  0.00    +0.001 A 
ATOM     17  C   UNL     1       0.454  -6.536   4.039  0.00  0.00    +0.010 A 
ENDBRANCH   2  12
BRANCH   1  19
ATOM     18  N   UNL     1      -0.257  -1.076   3.265  0.00  0.00    -0.149 NA
ATOM     19  N   UNL     1       0.411  -2.124   3.610  0.00  0.00    -0.145 NA
BRANCH  18  25
ATOM     20  C   UNL     1       2.285  -0.909  -0.915  0.00  0.00    +0.044 C 
ATOM     21  C   UNL     1       1.243  -0.346   0.018  0.00  0.00    -0.048 A 
ATOM     22  C   UNL     1       0.555   0.804  -0.329  0.00  0.00    +0.004 A 
ATOM     23  C   UNL     1      -0.403   1.327   0.521  0.00  0.00    +0.006 A 
ATOM     24  C   UNL     1      -0.679   0.706   1.721  0.00  0.00    -0.023 A 
ATOM     25  C   UNL     1       0.011  -0.455   2.077  0.00  0.00    +0.089 A 
ATOM     26  C   UNL     1       0.973  -0.982   1.211  0.00  0.00    +0.033 A 
ATOM     27  C   UNL     1      -1.723   1.279   2.645  0.00  0.00    +0.046 C 
ENDBRANCH  18  25
ENDBRANCH   1  19
BRANCH   4  28
ATOM     28  C   UNL     1      -0.756  -3.204   8.143  0.00  0.00    +0.164 C 
ATOM     29  S   UNL     1      -0.880  -1.657   8.867  0.00  0.00    -0.014 S 
BRANCH  28  30
ATOM     30  N   UNL     1      -0.945  -4.312   8.887  0.00  0.00    -0.337 N 
ATOM     31  H   UNL     1      -0.875  -5.188   8.477  0.00  0.00    +0.144 HD
ATOM     32  H   UNL     1      -1.150  -4.233   9.831  0.00  0.00    +0.144 HD
ENDBRANCH  28  30
ENDBRANCH   4  28
TORSDOF 6
