REMARK  Name = ZINC12707194
REMARK  9 active torsions:
REMARK  status: ('A' for Active; 'I' for Inactive)
REMARK    1  A    between atoms: C_1  and  C_2
REMARK    2  A    between atoms: C_2  and  C_3
REMARK    3  A    between atoms: C_10  and  C_15
REMARK    4  A    between atoms: C_15  and  N_16
REMARK    5  A    between atoms: N_16  and  C_17
REMARK    6  A    between atoms: C_17  and  C_18
REMARK    7  A    between atoms: C_18  and  N_64
REMARK    8  A    between atoms: N_25  and  C_26
REMARK    9  A    between atoms: C_26  and  C_27
REMARK                            x       y       z     vdW  Elec       q    Type
REMARK                         _______ _______ _______ _____ _____    ______ ____
ROOT
ATOM      1  N   UNL     1       1.072  -2.729   1.351  0.00  0.00    -0.283 N 
ATOM      2  C   UNL     1       2.182  -2.978   2.074  0.00  0.00    +0.303 C 
ATOM      3  O   UNL     1       3.280  -2.791   1.585  0.00  0.00    -0.253 OA
ATOM      4  N   UNL     1       2.075  -3.433   3.338  0.00  0.00    -0.295 N 
ATOM      5  H   UNL     1       1.200  -3.581   3.728  0.00  0.00    +0.151 HD
ENDROOT
BRANCH   1   6
ATOM      6  C   UNL     1       1.187  -2.235  -0.023  0.00  0.00    +0.149 C 
BRANCH   6  14
ATOM      7  C   UNL     1       3.541   3.487  -0.013  0.00  0.00    -0.047 A 
ATOM      8  C   UNL     1       2.325   4.156   0.003  0.00  0.00    +0.005 A 
ATOM      9  C   UNL     1       1.138   3.457   0.011  0.00  0.00    +0.026 A 
ATOM     10  C   UNL     1       1.156   2.065   0.002  0.00  0.00    +0.049 A 
ATOM     11  C   UNL     1       2.392   1.391  -0.013  0.00  0.00    -0.001 A 
ATOM     12  C   UNL     1       3.584   2.122  -0.021  0.00  0.00    +0.013 A 
ATOM     13  C   UNL     1       2.401  -0.073  -0.022  0.00  0.00    +0.020 A 
ATOM     14  C   UNL     1       1.213  -0.728  -0.014  0.00  0.00    +0.035 A 
ATOM     15  C   UNL     1       0.002  -0.004   0.002  0.00  0.00    +0.254 A 
ATOM     16  O   UNL     1      -1.054  -0.613   0.009  0.00  0.00    -0.268 OA
ATOM     17  N   UNL     1      -0.016   1.340   0.009  0.00  0.00    -0.322 N 
ATOM     18  H   UNL     1      -0.867   1.807   0.016  0.00  0.00    +0.169 HD
BRANCH   7  20
ATOM     19  C   UNL     1       5.247   4.549  -1.467  0.00  0.00    +0.009 C 
ATOM     20  C   UNL     1       4.826   4.275  -0.022  0.00  0.00    +0.032 C 
ENDBRANCH   7  20
ENDBRANCH   6  14
ENDBRANCH   1   6
BRANCH   1  21
ATOM     21  C   UNL     1      -0.251  -2.954   1.940  0.00  0.00    +0.091 C 
BRANCH  21  22
ATOM     22  C   UNL     1      -0.698  -4.390   1.658  0.00  0.00    -0.060 C 
BRANCH  22  27
ATOM     23  C   UNL     1      -2.986  -3.573   1.809  0.00  0.00    -0.079 C 
ATOM     24  C   UNL     1      -4.365  -4.233   2.063  0.00  0.00    -0.020 C 
ATOM     25  C   UNL     1      -4.116  -5.710   1.682  0.00  0.00    -0.020 C 
ATOM     26  C   UNL     1      -2.592  -5.904   1.797  0.00  0.00    -0.079 C 
ATOM     27  N   UNL     1      -2.051  -4.621   2.247  0.00  0.00    +0.381 N 
ATOM     28  H   UNL     1      -1.978  -4.615   3.271  0.00  0.00    -0.082 HD
ENDBRANCH  22  27
ENDBRANCH  21  22
ENDBRANCH   1  21
BRANCH   4  29
ATOM     29  C   UNL     1       3.282  -3.702   4.124  0.00  0.00    +0.141 C 
BRANCH  29  30
ATOM     30  C   UNL     1       2.891  -4.197   5.492  0.00  0.00    -0.030 A 
ATOM     31  C   UNL     1       2.705  -3.298   6.526  0.00  0.00    +0.005 A 
ATOM     32  C   UNL     1       2.341  -3.752   7.780  0.00  0.00    +0.000 A 
ATOM     33  C   UNL     1       2.173  -5.106   8.003  0.00  0.00    +0.000 A 
ATOM     34  C   UNL     1       2.364  -6.005   6.971  0.00  0.00    +0.000 A 
ATOM     35  C   UNL     1       2.723  -5.551   5.715  0.00  0.00    +0.005 A 
ENDBRANCH  29  30
ENDBRANCH   4  29
TORSDOF 8
