REMARK  Name = ZINC05286087
REMARK  6 active torsions:
REMARK  status: ('A' for Active; 'I' for Inactive)
REMARK    1  A    between atoms: C_1  and  N_2
REMARK    2  A    between atoms: C_10  and  N_11
REMARK    3  A    between atoms: C_12  and  C_13
REMARK    4  A    between atoms: C_16  and  O_24
REMARK    5  A    between atoms: C_19  and  O_23
REMARK    6  A    between atoms: O_24  and  C_25
REMARK                            x       y       z     vdW  Elec       q    Type
REMARK                         _______ _______ _______ _____ _____    ______ ____
ROOT
ATOM      1  C   UNL     1      -5.205   1.810  -0.482  0.00  0.00    +0.005 A 
ATOM      2  C   UNL     1      -6.562   2.002  -0.222  0.00  0.00    +0.014 A 
ATOM      3  C   UNL     1      -7.499   1.862  -1.230  0.00  0.00    +0.047 A 
ATOM      4  C   UNL     1      -7.133   1.518  -2.515  0.00  0.00    +0.128 A 
ATOM      5  C   UNL     1      -5.776   1.305  -2.841  0.00  0.00    +0.028 A 
ATOM      6  C   UNL     1      -4.791   1.446  -1.837  0.00  0.00    +0.036 A 
ATOM      7  C   UNL     1      -3.441   1.234  -2.157  0.00  0.00    +0.125 A 
ATOM      8  C   UNL     1      -3.096   0.891  -3.447  0.00  0.00    +0.046 A 
ATOM      9  C   UNL     1      -4.071   0.755  -4.430  0.00  0.00    +0.004 A 
ATOM     10  C   UNL     1      -5.388   0.955  -4.144  0.00  0.00    +0.012 A 
ENDROOT
BRANCH   1  12
ATOM     11  N   UNL     1      -4.580   2.409   1.760  0.00  0.00    -0.220 NA
ATOM     12  C   UNL     1      -4.214   1.965   0.583  0.00  0.00    +0.123 C 
BRANCH  11  22
ATOM     13  C   UNL     1      -5.237   3.415   4.532  0.00  0.00    +0.152 C 
ATOM     14  N   UNL     1      -3.930   3.006   4.011  0.00  0.00    -0.311 N 
ATOM     15  C   UNL     1      -2.735   2.998   4.707  0.00  0.00    +0.070 A 
ATOM     16  C   UNL     1      -2.374   3.337   6.003  0.00  0.00    +0.028 A 
ATOM     17  C   UNL     1      -1.059   3.214   6.401  0.00  0.00    +0.002 A 
ATOM     18  C   UNL     1      -0.096   2.754   5.514  0.00  0.00    +0.002 A 
ATOM     19  C   UNL     1      -0.432   2.416   4.234  0.00  0.00    +0.030 A 
ATOM     20  C   UNL     1      -1.759   2.533   3.808  0.00  0.00    +0.091 A 
ATOM     21  N   UNL     1      -2.383   2.281   2.631  0.00  0.00    -0.211 NA
ATOM     22  C   UNL     1      -3.665   2.552   2.744  0.00  0.00    +0.231 A 
ENDBRANCH  11  22
ENDBRANCH   1  12
BRANCH   7  23
ATOM     23  O   UNL     1      -2.482   1.365  -1.204  0.00  0.00    -0.506 OA
ATOM     24  H   UNL     1      -2.232   0.533  -0.779  0.00  0.00    +0.292 HD
ENDBRANCH   7  23
BRANCH   4  25
ATOM     25  O   UNL     1      -8.084   1.385  -3.472  0.00  0.00    -0.495 OA
ATOM     26  C   UNL     1      -9.438   1.615  -3.077  0.00  0.00    +0.277 C 
ENDBRANCH   4  25
TORSDOF 4
