REMARK  Name = ZINC39576275
REMARK  7 active torsions:
REMARK  status: ('A' for Active; 'I' for Inactive)
REMARK    1  A    between atoms: C_1  and  C_2
REMARK    2  A    between atoms: C_7  and  C_8
REMARK    3  A    between atoms: C_8  and  C_10
REMARK    4  A    between atoms: C_8  and  N_11
REMARK    5  A    between atoms: C_12  and  C_14
REMARK    6  A    between atoms: C_14  and  N_15
REMARK    7  A    between atoms: N_24  and  C_27
REMARK                            x       y       z     vdW  Elec       q    Type
REMARK                         _______ _______ _______ _____ _____    ______ ____
ROOT
ATOM      1  C   UNL     1       1.781  -0.957   5.617  0.00  0.00    +0.213 C 
ENDROOT
BRANCH   1   2
ATOM      2  N   UNL     1       2.350  -0.175   6.717  0.00  0.00    -0.215 N 
ATOM      3  C   UNL     1       3.640   0.213   6.784  0.00  0.00    +0.247 C 
ATOM      4  O   UNL     1       4.516  -0.010   5.976  0.00  0.00    -0.273 OA
ATOM      5  C   UNL     1       3.764   0.985   8.078  0.00  0.00    +0.115 C 
ATOM      6  C   UNL     1       4.758   0.303   9.011  0.00  0.00    +0.035 C 
ATOM      7  C   UNL     1       4.845   1.082  10.325  0.00  0.00    +0.003 C 
ATOM      8  C   UNL     1       5.292   2.517  10.037  0.00  0.00    +0.000 C 
ATOM      9  C   UNL     1       4.272   3.195   9.120  0.00  0.00    +0.003 C 
ATOM     10  C   UNL     1       4.183   2.424   7.800  0.00  0.00    +0.035 C 
ATOM     11  N   UNL     1       2.411   0.943   8.648  0.00  0.00    -0.274 N 
ATOM     12  C   UNL     1       1.653   0.248   7.779  0.00  0.00    +0.312 C 
ATOM     13  O   UNL     1       0.469   0.026   7.942  0.00  0.00    -0.252 OA
ATOM     14  C   UNL     1       1.972   1.543   9.911  0.00  0.00    +0.134 C 
ENDBRANCH   1   2
BRANCH   1  16
ATOM     15  N   UNL     1       0.695  -0.522   3.437  0.00  0.00    -0.307 N 
ATOM     16  C   UNL     1       1.266  -0.023   4.551  0.00  0.00    +0.231 C 
ATOM     17  O   UNL     1       1.364   1.177   4.697  0.00  0.00    -0.274 OA
ATOM     18  H   UNL     1       0.617  -1.482   3.320  0.00  0.00    +0.149 HD
BRANCH  15  19
ATOM     19  C   UNL     1       0.195   0.386   2.401  0.00  0.00    +0.100 C 
ATOM     20  C   UNL     1      -1.227   0.827   2.754  0.00  0.00    +0.033 C 
BRANCH  19  27
ATOM     21  C   UNL     1       0.355   1.905  -0.051  0.00  0.00    +0.044 C 
ATOM     22  C   UNL     1       0.261   0.401  -0.101  0.00  0.00    -0.046 A 
ATOM     23  C   UNL     1       0.258  -0.251  -1.319  0.00  0.00    +0.004 A 
ATOM     24  C   UNL     1       0.172  -1.630  -1.365  0.00  0.00    +0.000 A 
ATOM     25  C   UNL     1       0.090  -2.357  -0.192  0.00  0.00    +0.000 A 
ATOM     26  C   UNL     1       0.095  -1.704   1.027  0.00  0.00    +0.006 A 
ATOM     27  C   UNL     1       0.185  -0.325   1.073  0.00  0.00    -0.025 A 
ENDBRANCH  19  27
ENDBRANCH  15  19
ENDBRANCH   1  16
TORSDOF 4
