REMARK  Name = ZINC13375924
REMARK  4 active torsions:
REMARK  status: ('A' for Active; 'I' for Inactive)
REMARK    1  A    between atoms: C_2  and  N_25
REMARK    2  A    between atoms: C_6  and  C_7
REMARK    3  A    between atoms: N_8  and  C_9
REMARK    4  A    between atoms: C_9  and  C_10
REMARK                            x       y       z     vdW  Elec       q    Type
REMARK                         _______ _______ _______ _____ _____    ______ ____
ROOT
ATOM      1  C   UNL     1      -1.189  -0.735   0.010  0.00  0.00    +0.090 C 
ATOM      2  N   UNL     1      -1.157  -2.071  -0.099  0.00  0.00    -0.389 N 
ATOM      3  H   UNL     1      -0.306  -2.536  -0.110  0.00  0.00    +0.159 HD
ENDROOT
BRANCH   1   9
ATOM      4  C   UNL     1      -0.017   1.408   0.000  0.00  0.00    +0.046 A 
ATOM      5  C   UNL     1       1.152   2.101  -0.008  0.00  0.00    +0.128 A 
ATOM      6  C   UNL     1       2.383   1.451  -0.015  0.00  0.00    +0.051 A 
ATOM      7  C   UNL     1       2.471   0.092  -0.014  0.00  0.00    +0.067 A 
ATOM      8  C   UNL     1       1.301  -0.688  -0.006  0.00  0.00    +0.201 A 
ATOM      9  C   UNL     1       0.002  -0.004   0.002  0.00  0.00    +0.041 A 
ATOM     10  O   UNL     1       1.365  -1.909  -0.005  0.00  0.00    -0.286 OA
ATOM     11 BR   UNL     1       4.166  -0.746  -0.024  0.00  0.00    -0.046 Br
BRANCH   5  12
ATOM     12  N   UNL     1       1.116   3.581  -0.010  0.00  0.00    +0.056 N 
ATOM     13  O   UNL     1       0.054   4.159  -0.004  0.00  0.00    -0.126 OA
ATOM     14  O   UNL     1       2.147   4.211  -0.017  0.00  0.00    -0.126 OA
ENDBRANCH   5  12
ENDBRANCH   1   9
BRANCH   2  15
ATOM     15  C   UNL     1      -2.408  -2.828  -0.201  0.00  0.00    +0.119 C 
BRANCH  15  16
ATOM     16  C   UNL     1      -2.484  -3.504  -1.571  0.00  0.00    -0.011 C 
ATOM     17  C   UNL     1      -2.330  -2.402  -2.582  0.00  0.00    +0.009 C 
ATOM     18  C   UNL     1      -2.971  -2.659  -3.909  0.00  0.00    +0.004 C 
ATOM     19  C   UNL     1      -2.920  -4.084  -4.363  0.00  0.00    -0.010 C 
ATOM     20  C   UNL     1      -4.106  -4.924  -3.961  0.00  0.00    +0.007 C 
ATOM     21  C   UNL     1      -3.917  -5.412  -2.522  0.00  0.00    -0.010 C 
ATOM     22  C   UNL     1      -3.783  -4.250  -1.591  0.00  0.00    +0.012 C 
ATOM     23  C   UNL     1      -2.681  -6.311  -2.478  0.00  0.00    +0.007 C 
ATOM     24  C   UNL     1      -1.460  -5.437  -2.776  0.00  0.00    -0.010 C 
ATOM     25  C   UNL     1      -1.589  -4.767  -4.131  0.00  0.00    +0.007 C 
ATOM     26  C   UNL     1      -1.270  -4.428  -1.644  0.00  0.00    +0.012 C 
ENDBRANCH  15  16
ENDBRANCH   2  15
TORSDOF 4
