REMARK  Name = ZINC67467922
REMARK  8 active torsions:
REMARK  status: ('A' for Active; 'I' for Inactive)
REMARK    1  A    between atoms: C_1  and  C_2
REMARK    2  A    between atoms: C_2  and  N_3
REMARK    3  A    between atoms: C_4  and  C_27
REMARK    4  A    between atoms: C_5  and  C_9
REMARK    5  A    between atoms: C_6  and  C_8
REMARK    6  A    between atoms: C_9  and  N_10
REMARK    7  A    between atoms: N_17  and  C_20
REMARK    8  A    between atoms: C_20  and  C_21
REMARK                            x       y       z     vdW  Elec       q    Type
REMARK                         _______ _______ _______ _____ _____    ______ ____
ROOT
ATOM      1  N   UNL     1       0.220  -1.590  -7.973  0.00  0.00    -0.295 N 
ATOM      2  C   UNL     1       0.475  -0.419  -7.357  0.00  0.00    +0.302 C 
ATOM      3  O   UNL     1       0.363  -0.331  -6.150  0.00  0.00    -0.253 OA
ATOM      4  N   UNL     1       0.853   0.654  -8.079  0.00  0.00    -0.287 N 
ATOM      5  C   UNL     1       1.242   1.889  -7.369  0.00  0.00    +0.107 C 
ATOM      6  C   UNL     1       2.479   2.536  -8.018  0.00  0.00    +0.000 C 
ATOM      7  C   UNL     1       3.457   1.455  -8.424  0.00  0.00    -0.077 C 
ATOM      8  N   UNL     1       3.216   1.085  -9.817  0.00  0.00    +0.381 N 
ATOM      9  C   UNL     1       2.252   0.070 -10.006  0.00  0.00    -0.060 C 
ATOM     10  C   UNL     1       0.870   0.553  -9.524  0.00  0.00    +0.091 C 
ATOM     11  H   UNL     1       0.239  -1.643  -8.942  0.00  0.00    +0.151 HD
ATOM     12  H   UNL     1       2.915   1.908 -10.317  0.00  0.00    -0.082 HD
ENDROOT
BRANCH   1  13
ATOM     13  C   UNL     1      -0.085  -2.784  -7.181  0.00  0.00    +0.144 C 
BRANCH  13  16
ATOM     14  N   UNL     1      -0.013  -5.712  -9.353  0.00  0.00    -0.268 N 
ATOM     15  C   UNL     1       0.607  -4.816  -8.556  0.00  0.00    +0.041 A 
ATOM     16  C   UNL     1      -0.329  -3.950  -8.103  0.00  0.00    +0.013 A 
ATOM     17  C   UNL     1      -1.563  -4.330  -8.641  0.00  0.00    +0.065 A 
ATOM     18  N   UNL     1      -1.374  -5.382  -9.396  0.00  0.00    -0.176 NA
ATOM     19  C   UNL     1      -2.882  -3.642  -8.400  0.00  0.00    +0.068 C 
ATOM     20  C   UNL     1       2.078  -4.786  -8.230  0.00  0.00    +0.065 C 
BRANCH  14  22
ATOM     21  C   UNL     1       1.090  -6.363 -11.437  0.00  0.00    +0.029 C 
ATOM     22  C   UNL     1       0.626  -6.828 -10.055  0.00  0.00    +0.140 C 
ENDBRANCH  14  22
ENDBRANCH  13  16
ENDBRANCH   1  13
BRANCH   8  23
ATOM     23  C   UNL     1       4.485   0.633 -10.402  0.00  0.00    -0.075 C 
BRANCH  23  24
ATOM     24  C   UNL     1       5.457   1.812 -10.486  0.00  0.00    -0.028 C 
ATOM     25  C   UNL     1       4.897   2.868 -11.441  0.00  0.00    +0.002 C 
ATOM     26  C   UNL     1       5.869   4.046 -11.525  0.00  0.00    +0.000 C 
ATOM     27  C   UNL     1       7.222   3.556 -12.044  0.00  0.00    +0.000 C 
ATOM     28  C   UNL     1       7.782   2.500 -11.089  0.00  0.00    +0.000 C 
ATOM     29  C   UNL     1       6.810   1.321 -11.005  0.00  0.00    +0.002 C 
ENDBRANCH  23  24
ENDBRANCH   8  23
TORSDOF 5
