REMARK  Name = ZINC34814453
REMARK  4 active torsions:
REMARK  status: ('A' for Active; 'I' for Inactive)
REMARK    1  A    between atoms: C_1  and  C_2
REMARK    2  A    between atoms: C_12  and  C_17
REMARK    3  A    between atoms: N_30  and  C_31
REMARK    4  A    between atoms: C_31  and  C_32
REMARK                            x       y       z     vdW  Elec       q    Type
REMARK                         _______ _______ _______ _____ _____    ______ ____
ROOT
ATOM      1  C   UNL     1      -0.674  -7.483   4.123  0.00  0.00    +0.044 C 
ATOM      2  C   UNL     1       0.193  -6.440   3.466  0.00  0.00    -0.050 A 
ATOM      3  C   UNL     1       1.484  -6.758   3.084  0.00  0.00    +0.007 A 
ATOM      4  C   UNL     1       2.283  -5.811   2.470  0.00  0.00    +0.047 A 
ATOM      5  C   UNL     1       1.796  -4.535   2.239  0.00  0.00    +0.139 A 
ATOM      6  C   UNL     1       0.498  -4.202   2.642  0.00  0.00    +0.057 A 
ATOM      7  C   UNL     1      -0.306  -5.173   3.243  0.00  0.00    +0.018 A 
ATOM      8  C   UNL     1      -0.013  -2.834   2.463  0.00  0.00    +0.133 C 
ATOM      9  N   UNL     1       0.215  -2.080   1.444  0.00  0.00    -0.228 NA
ATOM     10  C   UNL     1       0.940  -2.400   0.336  0.00  0.00    +0.109 A 
ATOM     11  C   UNL     1       0.480  -1.982  -0.917  0.00  0.00    +0.044 A 
ATOM     12  C   UNL     1       1.210  -2.265  -2.054  0.00  0.00    +0.057 A 
ATOM     13  C   UNL     1       2.400  -2.961  -1.960  0.00  0.00    +0.016 A 
ATOM     14  C   UNL     1       2.859  -3.390  -0.727  0.00  0.00    +0.049 A 
ATOM     15  C   UNL     1       2.130  -3.126   0.420  0.00  0.00    +0.154 A 
ATOM     16  O   UNL     1       2.569  -3.619   1.607  0.00  0.00    -0.453 OA
ATOM     17  N   UNL     1      -0.799  -2.317   3.468  0.00  0.00    -0.313 N 
ATOM     18  C   UNL     1      -0.941  -3.090   4.712  0.00  0.00    +0.108 C 
ATOM     19  C   UNL     1      -0.847  -2.212   5.963  0.00  0.00    +0.038 C 
ATOM     20  C   UNL     1       0.250  -1.179   5.801  0.00  0.00    +0.111 C 
ATOM     21  N   UNL     1      -0.322  -0.015   5.124  0.00  0.00    -0.284 N 
ATOM     22  C   UNL     1      -0.493   0.096   3.717  0.00  0.00    +0.128 C 
ATOM     23  C   UNL     1      -1.443  -1.034   3.250  0.00  0.00    +0.125 C 
ATOM     24  C   UNL     1      -0.713   1.025   5.887  0.00  0.00    +0.302 C 
ATOM     25  O   UNL     1      -1.274   1.976   5.377  0.00  0.00    -0.253 OA
ATOM     26  N   UNL     1      -0.483   1.011   7.215  0.00  0.00    -0.296 N 
ATOM     27  H   UNL     1       0.028   0.288   7.611  0.00  0.00    +0.151 HD
ENDROOT
BRANCH  12  28
ATOM     28  C   UNL     1       0.707  -1.814  -3.401  0.00  0.00    +0.417 C 
ATOM     29  F   UNL     1       1.206  -0.537  -3.682  0.00  0.00    -0.166 F 
ATOM     30  F   UNL     1       1.140  -2.710  -4.384  0.00  0.00    -0.166 F 
ATOM     31  F   UNL     1      -0.692  -1.776  -3.388  0.00  0.00    -0.166 F 
ENDBRANCH  12  28
BRANCH  26  32
ATOM     32  C   UNL     1      -1.005   2.087   8.060  0.00  0.00    +0.132 C 
BRANCH  32  33
ATOM     33  C   UNL     1      -0.611   1.837   9.493  0.00  0.00    -0.016 C 
ATOM     34  C   UNL     1       0.037   2.756  10.165  0.00  0.00    +0.005 C 
ENDBRANCH  32  33
ENDBRANCH  26  32
TORSDOF 3
