REMARK  Name = ZINC10385555
REMARK  13 active torsions:
REMARK  status: ('A' for Active; 'I' for Inactive)
REMARK    1  A    between atoms: C_1  and  C_2
REMARK    2  A    between atoms: C_2  and  N_71
REMARK    3  A    between atoms: N_12  and  C_13
REMARK    4  A    between atoms: C_13  and  C_14
REMARK    5  A    between atoms: C_14  and  C_16
REMARK    6  A    between atoms: C_14  and  O_28
REMARK    7  A    between atoms: C_16  and  O_17
REMARK    8  A    between atoms: O_17  and  C_18
REMARK    9  A    between atoms: C_20  and  C_27
REMARK   10  A    between atoms: C_23  and  C_24
REMARK   11  A    between atoms: C_24  and  C_25
REMARK   12  A    between atoms: C_24  and  C_26
REMARK   13  A    between atoms: N_35  and  C_36
REMARK                            x       y       z     vdW  Elec       q    Type
REMARK                         _______ _______ _______ _____ _____    ______ ____
ROOT
ATOM      1  C   UNL     1       1.451   1.723  -0.748  0.00  0.00    -0.060 C 
ATOM      2  C   UNL     1       0.530   2.143  -1.896  0.00  0.00    +0.089 C 
ATOM      3  N   UNL     1      -0.434   3.139  -1.407  0.00  0.00    -0.304 N 
ATOM      4  C   UNL     1      -1.243   2.591  -0.309  0.00  0.00    +0.089 C 
ATOM      5  C   UNL     1      -0.322   2.171   0.839  0.00  0.00    -0.060 C 
ATOM      6  C   UNL     1      -1.235   3.593  -2.430  0.00  0.00    +0.201 A 
ATOM      7  N   UNL     1      -1.676   2.861  -3.434  0.00  0.00    -0.196 NA
ATOM      8  C   UNL     1      -2.428   3.607  -4.245  0.00  0.00    +0.170 A 
ATOM      9  C   UNL     1      -2.456   4.896  -3.723  0.00  0.00    +0.153 A 
ATOM     10  N   UNL     1      -1.690   4.867  -2.566  0.00  0.00    -0.304 N 
ATOM     11  C   UNL     1      -3.183   5.894  -4.396  0.00  0.00    +0.280 A 
ATOM     12  O   UNL     1      -3.222   7.030  -3.957  0.00  0.00    -0.265 OA
ATOM     13  N   UNL     1      -3.838   5.580  -5.534  0.00  0.00    -0.273 N 
ATOM     14  H   UNL     1      -4.356   6.287  -6.015  0.00  0.00    +0.173 HD
ATOM     15  C   UNL     1      -3.804   4.331  -6.029  0.00  0.00    +0.331 A 
ATOM     16  O   UNL     1      -4.406   4.084  -7.057  0.00  0.00    -0.246 OA
ATOM     17  N   UNL     1      -3.120   3.346  -5.416  0.00  0.00    -0.280 N 
ATOM     18  C   UNL     1      -3.108   1.998  -5.988  0.00  0.00    +0.155 C 
ATOM     19  N   UNL     1       0.628   1.154   0.340  0.00  0.00    +0.382 N 
ATOM     20  H   UNL     1       0.099   0.354  -0.026  0.00  0.00    -0.082 HD
ENDROOT
BRANCH  19  22
ATOM     21  C   UNL     1       0.633   0.362   2.660  0.00  0.00    -0.017 C 
ATOM     22  C   UNL     1       1.498   0.691   1.442  0.00  0.00    -0.082 C 
ENDBRANCH  19  22
BRANCH  10  23
ATOM     23  C   UNL     1      -1.422   5.991  -1.665  0.00  0.00    +0.160 C 
BRANCH  23  24
ATOM     24  C   UNL     1      -0.086   6.637  -2.040  0.00  0.00    +0.172 C 
BRANCH  24  25
ATOM     25  O   UNL     1      -0.185   7.212  -3.344  0.00  0.00    -0.387 OA
ATOM     26  H   UNL     1      -0.864   7.896  -3.422  0.00  0.00    +0.210 HD
ENDBRANCH  24  25
BRANCH  24  27
ATOM     27  C   UNL     1       0.253   7.730  -1.024  0.00  0.00    +0.262 C 
BRANCH  27  28
ATOM     28  O   UNL     1       1.553   8.254  -1.305  0.00  0.00    -0.489 OA
BRANCH  28  29
ATOM     29  C   UNL     1       2.010   9.240  -0.490  0.00  0.00    +0.124 A 
ATOM     30  C   UNL     1       1.224   9.695   0.559  0.00  0.00    +0.049 A 
ATOM     31  C   UNL     1       1.691  10.698   1.386  0.00  0.00    -0.047 A 
ATOM     32  C   UNL     1       2.941  11.248   1.169  0.00  0.00    +0.004 A 
ATOM     33  C   UNL     1       3.726  10.797   0.125  0.00  0.00    +0.008 A 
ATOM     34  C   UNL     1       3.266   9.790  -0.702  0.00  0.00    -0.003 A 
ATOM     35  C   UNL     1       0.837  11.193   2.525  0.00  0.00    +0.044 C 
BRANCH  34  36
ATOM     36  C   UNL     1       4.125   9.294  -1.836  0.00  0.00    +0.016 C 
ATOM     37  C   UNL     1       4.429  10.452  -2.789  0.00  0.00    +0.012 C 
ATOM     38  C   UNL     1       5.435   8.736  -1.277  0.00  0.00    +0.012 C 
ENDBRANCH  34  36
ENDBRANCH  28  29
ENDBRANCH  27  28
ENDBRANCH  24  27
ENDBRANCH  23  24
ENDBRANCH  10  23
TORSDOF 8
