REMARK  Name = ZINC40806179
REMARK  5 active torsions:
REMARK  status: ('A' for Active; 'I' for Inactive)
REMARK    1  A    between atoms: C_1  and  C_2
REMARK    2  A    between atoms: C_2  and  O_3
REMARK    3  A    between atoms: O_3  and  C_4
REMARK    4  A    between atoms: C_14  and  C_16
REMARK    5  A    between atoms: N_20  and  C_21
REMARK                            x       y       z     vdW  Elec       q    Type
REMARK                         _______ _______ _______ _____ _____    ______ ____
ROOT
ATOM      1  C   UNL     1      -1.113  -2.170   2.462  0.00  0.00    +0.122 A 
ATOM      2  C   UNL     1      -1.728  -3.073   1.601  0.00  0.00    +0.048 A 
ATOM      3  C   UNL     1      -1.379  -4.398   1.586  0.00  0.00    +0.032 A 
ATOM      4  C   UNL     1      -0.376  -4.892   2.451  0.00  0.00    +0.081 A 
ATOM      5  C   UNL     1       0.228  -3.949   3.312  0.00  0.00    +0.044 A 
ATOM      6  C   UNL     1      -0.121  -2.621   3.320  0.00  0.00    +0.063 A 
ATOM      7  S   UNL     1       1.397  -4.945   4.205  0.00  0.00    -0.052 S 
ATOM      8  C   UNL     1       1.024  -6.500   3.407  0.00  0.00    +0.166 A 
ATOM      9  N   UNL     1       0.081  -6.160   2.559  0.00  0.00    -0.225 NA
ATOM     10  N   UNL     1       1.586  -7.745   3.626  0.00  0.00    -0.259 N 
ATOM     11  C   UNL     1       1.165  -8.810   2.914  0.00  0.00    +0.266 C 
ATOM     12  O   UNL     1       0.249  -8.688   2.122  0.00  0.00    -0.268 OA
ATOM     13  H   UNL     1       2.283  -7.853   4.292  0.00  0.00    +0.157 HD
ENDROOT
BRANCH  11  14
ATOM     14  C   UNL     1       1.808 -10.112   3.095  0.00  0.00    +0.107 A 
ATOM     15  C   UNL     1       1.613 -11.225   2.305  0.00  0.00    +0.048 A 
ATOM     16  C   UNL     1       2.407 -12.239   2.816  0.00  0.00    +0.038 A 
ATOM     17  C   UNL     1       3.105 -11.763   3.933  0.00  0.00    +0.057 A 
ATOM     18  N   UNL     1       2.718 -10.433   4.081  0.00  0.00    -0.333 N 
ATOM     19  C   UNL     1       3.954 -12.684   4.560  0.00  0.00    +0.034 A 
ATOM     20  C   UNL     1       4.061 -13.942   4.081  0.00  0.00    +0.048 A 
ATOM     21  S   UNL     1       2.950 -13.923   2.684  0.00  0.00    -0.095 S 
BRANCH  18  22
ATOM     22  C   UNL     1       3.199  -9.520   5.121  0.00  0.00    +0.088 C 
ATOM     23  C   UNL     1       4.070 -10.288   6.137  0.00  0.00    +0.025 C 
ATOM     24  C   UNL     1       3.720  -9.644   7.501  0.00  0.00    +0.002 C 
ATOM     25  C   UNL     1       2.198  -9.384   7.376  0.00  0.00    +0.002 C 
ATOM     26  C   UNL     1       2.009  -8.945   5.909  0.00  0.00    +0.025 C 
ENDBRANCH  18  22
ENDBRANCH  11  14
BRANCH   1  27
ATOM     27  O   UNL     1      -1.476  -0.859   2.458  0.00  0.00    -0.492 OA
BRANCH  27  29
ATOM     28  C   UNL     1      -2.775   1.026   1.685  0.00  0.00    +0.048 C 
ATOM     29  C   UNL     1      -2.505  -0.474   1.546  0.00  0.00    +0.225 C 
ENDBRANCH  27  29
ENDBRANCH   1  27
TORSDOF 4
