REMARK  Name = ZINC08429029
REMARK  5 active torsions:
REMARK  status: ('A' for Active; 'I' for Inactive)
REMARK    1  A    between atoms: C_4  and  C_7
REMARK    2  A    between atoms: C_10  and  C_12
REMARK    3  A    between atoms: C_12  and  C_13
REMARK    4  A    between atoms: C_13  and  C_14
REMARK    5  A    between atoms: C_25  and  C_27
REMARK                            x       y       z     vdW  Elec       q    Type
REMARK                         _______ _______ _______ _____ _____    ______ ____
ROOT
ATOM      1  C   UNL     1       0.447  -1.130  -2.085  0.00  0.00    +0.217 C 
ATOM      2  O   UNL     1      -0.744  -1.312  -2.229  0.00  0.00    -0.276 OA
ATOM      3  N   UNL     1       0.899  -0.438  -1.021  0.00  0.00    -0.285 N 
ATOM      4  C   UNL     1       2.319  -0.100  -0.878  0.00  0.00    +0.144 C 
ATOM      5  C   UNL     1       2.457   1.335  -0.437  0.00  0.00    -0.027 A 
ATOM      6  C   UNL     1       3.723   1.905  -0.473  0.00  0.00    +0.005 A 
ATOM      7  C   UNL     1       3.915   3.211  -0.073  0.00  0.00    +0.000 A 
ATOM      8  C   UNL     1       2.838   3.958   0.368  0.00  0.00    +0.000 A 
ATOM      9  C   UNL     1       1.580   3.394   0.401  0.00  0.00    +0.004 A 
ATOM     10  C   UNL     1       1.383   2.080  -0.006  0.00  0.00    -0.040 A 
ATOM     11  C   UNL     1      -0.021   1.536   0.047  0.00  0.00    +0.067 C 
ATOM     12  C   UNL     1      -0.012   0.008   0.046  0.00  0.00    +0.166 C 
ENDROOT
BRANCH  12  13
ATOM     13  C   UNL     1      -1.402  -0.509  -0.221  0.00  0.00    +0.231 C 
ATOM     14  O   UNL     1      -2.200   0.178  -0.823  0.00  0.00    -0.274 OA
ATOM     15  N   UNL     1      -1.759  -1.736   0.209  0.00  0.00    -0.328 N 
ATOM     16  H   UNL     1      -1.121  -2.285   0.691  0.00  0.00    +0.145 HD
ATOM     17  H   UNL     1      -2.654  -2.068   0.037  0.00  0.00    +0.145 HD
ENDBRANCH  12  13
BRANCH   1  18
ATOM     18  C   UNL     1       1.420  -1.678  -3.097  0.00  0.00    +0.104 C 
BRANCH  18  19
ATOM     19  C   UNL     1       0.652  -2.416  -4.196  0.00  0.00    +0.083 C 
BRANCH  19  23
ATOM     20  C   UNL     1       2.919  -3.110  -6.976  0.00  0.00    +0.135 A 
ATOM     21  C   UNL     1       3.039  -4.280  -6.294  0.00  0.00    +0.050 A 
ATOM     22  C   UNL     1       2.210  -4.176  -5.160  0.00  0.00    +0.045 A 
ATOM     23  C   UNL     1       1.625  -2.963  -5.208  0.00  0.00    +0.106 A 
ATOM     24  O   UNL     1       2.058  -2.321  -6.305  0.00  0.00    -0.460 OA
BRANCH  20  28
ATOM     25  C   UNL     1       4.913  -2.116 -10.592  0.00  0.00    +0.000 A 
ATOM     26  C   UNL     1       4.051  -1.205 -10.008  0.00  0.00    +0.001 A 
ATOM     27  C   UNL     1       3.400  -1.522  -8.833  0.00  0.00    +0.011 A 
ATOM     28  C   UNL     1       3.613  -2.764  -8.234  0.00  0.00    +0.017 A 
ATOM     29  C   UNL     1       4.489  -3.676  -8.825  0.00  0.00    +0.011 A 
ATOM     30  C   UNL     1       5.129  -3.349 -10.003  0.00  0.00    +0.001 A 
ENDBRANCH  20  28
ENDBRANCH  19  23
ENDBRANCH  18  19
ENDBRANCH   1  18
TORSDOF 5
