REMARK  Name = ZINC59040512
REMARK  4 active torsions:
REMARK  status: ('A' for Active; 'I' for Inactive)
REMARK    1  A    between atoms: C_3  and  C_8
REMARK    2  A    between atoms: C_20  and  C_22
REMARK    3  A    between atoms: N_24  and  C_25
REMARK    4  A    between atoms: C_25  and  C_26
REMARK                            x       y       z     vdW  Elec       q    Type
REMARK                         _______ _______ _______ _____ _____    ______ ____
ROOT
ATOM      1  C   UNL     1       3.657   2.162  -0.022  0.00  0.00    +0.248 C 
ATOM      2  O   UNL     1       3.644   3.374  -0.118  0.00  0.00    -0.270 OA
ATOM      3  N   UNL     1       4.830   1.506   0.065  0.00  0.00    -0.283 N 
ATOM      4  C   UNL     1       6.150   2.106   0.177  0.00  0.00    +0.080 C 
ATOM      5  C   UNL     1       6.261   3.435   0.895  0.00  0.00    +0.023 C 
ATOM      6  C   UNL     1       7.737   3.864   0.841  0.00  0.00    +0.002 C 
ATOM      7  C   UNL     1       8.646   2.806   1.460  0.00  0.00    +0.000 C 
ATOM      8  C   UNL     1       8.437   1.431   0.807  0.00  0.00    +0.005 C 
ATOM      9  C   UNL     1       6.967   1.074   1.000  0.00  0.00    +0.012 C 
ATOM     10  C   UNL     1       6.529  -0.230   0.314  0.00  0.00    +0.037 C 
ATOM     11  C   UNL     1       5.019   0.036   0.071  0.00  0.00    +0.163 C 
ENDROOT
BRANCH   1  14
ATOM     12  C   UNL     1       1.031  -0.362   0.895  0.00  0.00    +0.002 A 
ATOM     13  C   UNL     1       2.220   0.337   0.878  0.00  0.00    +0.013 A 
ATOM     14  C   UNL     1       2.385   1.409   0.000  0.00  0.00    +0.038 A 
ATOM     15  C   UNL     1       1.343   1.767  -0.857  0.00  0.00    +0.033 A 
ATOM     16  C   UNL     1       0.158   1.060  -0.831  0.00  0.00    +0.042 A 
ATOM     17  C   UNL     1       0.002  -0.003   0.043  0.00  0.00    +0.020 A 
ATOM     18 CL   UNL     1      -1.139   1.503  -1.896  0.00  0.00    -0.084 Cl
ENDBRANCH   1  14
BRANCH  11  19
ATOM     19  C   UNL     1       4.607  -0.540  -1.259  0.00  0.00    +0.234 C 
ATOM     20  O   UNL     1       4.521   0.180  -2.231  0.00  0.00    -0.274 OA
ATOM     21  N   UNL     1       4.335  -1.856  -1.370  0.00  0.00    -0.310 N 
ATOM     22  H   UNL     1       4.405  -2.432  -0.592  0.00  0.00    +0.149 HD
BRANCH  21  23
ATOM     23  C   UNL     1       3.936  -2.415  -2.663  0.00  0.00    +0.141 C 
BRANCH  23  24
ATOM     24  C   UNL     1       3.692  -3.895  -2.516  0.00  0.00    -0.012 A 
ATOM     25  C   UNL     1       4.728  -4.799  -2.704  0.00  0.00    +0.010 A 
ATOM     26  C   UNL     1       4.461  -6.149  -2.560  0.00  0.00    +0.047 A 
ATOM     27  C   UNL     1       3.172  -6.552  -2.234  0.00  0.00    +0.139 A 
ATOM     28  N   UNL     1       2.210  -5.660  -2.063  0.00  0.00    -0.237 NA
ATOM     29  C   UNL     1       2.436  -4.366  -2.188  0.00  0.00    +0.118 A 
ATOM     30  N   UNL     1       2.889  -7.913  -2.086  0.00  0.00    -0.290 N 
ATOM     31  C   UNL     1       1.654  -8.470  -1.867  0.00  0.00    +0.114 A 
ATOM     32  C   UNL     1       1.836  -9.802  -1.788  0.00  0.00    +0.130 A 
ATOM     33  N   UNL     1       3.143 -10.057  -1.952  0.00  0.00    -0.244 NA
ATOM     34  C   UNL     1       3.783  -8.935  -2.136  0.00  0.00    +0.205 A 
ENDBRANCH  23  24
ENDBRANCH  21  23
ENDBRANCH  11  19
TORSDOF 4
