REMARK  Name = ZINC01390439
REMARK  8 active torsions:
REMARK  status: ('A' for Active; 'I' for Inactive)
REMARK    1  A    between atoms: C_1  and  C_2
REMARK    2  A    between atoms: C_5  and  C_8
REMARK    3  A    between atoms: C_8  and  S_9
REMARK    4  A    between atoms: S_9  and  C_10
REMARK    5  A    between atoms: C_24  and  O_35
REMARK    6  A    between atoms: C_25  and  O_33
REMARK    7  A    between atoms: O_33  and  C_34
REMARK    8  A    between atoms: O_35  and  C_36
REMARK                            x       y       z     vdW  Elec       q    Type
REMARK                         _______ _______ _______ _____ _____    ______ ____
ROOT
ATOM      1  C   UNL     1      -4.533  -0.236   1.565  0.00  0.00    +0.211 A 
ATOM      2  N   UNL     1      -5.111  -0.564   0.406  0.00  0.00    -0.183 NA
ATOM      3  C   UNL     1      -6.221  -1.231   0.638  0.00  0.00    +0.254 A 
ATOM      4  N   UNL     1      -7.120  -1.758  -0.209  0.00  0.00    -0.218 NA
ATOM      5  C   UNL     1      -8.172  -2.374   0.292  0.00  0.00    +0.129 A 
ATOM      6  C   UNL     1      -8.359  -2.485   1.684  0.00  0.00    +0.076 A 
ATOM      7  C   UNL     1      -7.415  -1.962   2.555  0.00  0.00    +0.062 A 
ATOM      8  N   UNL     1      -6.364  -1.329   2.008  0.00  0.00    -0.199 N 
ATOM      9  N   UNL     1      -5.269  -0.682   2.567  0.00  0.00    -0.137 NA
ATOM     10  C   UNL     1      -7.585  -2.139   4.033  0.00  0.00    +0.083 C 
ATOM     11  C   UNL     1      -9.069  -2.110   4.407  0.00  0.00    +0.113 C 
ATOM     12  C   UNL     1      -9.198  -2.432   5.871  0.00  0.00    -0.020 A 
ATOM     13  C   UNL     1      -8.510  -1.626   6.771  0.00  0.00    +0.055 A 
ATOM     14  C   UNL     1      -8.597  -1.857   8.131  0.00  0.00    +0.162 A 
ATOM     15  C   UNL     1      -9.382  -2.906   8.602  0.00  0.00    +0.162 A 
ATOM     16  C   UNL     1     -10.062  -3.707   7.703  0.00  0.00    +0.053 A 
ATOM     17  C   UNL     1      -9.968  -3.472   6.337  0.00  0.00    -0.037 A 
ATOM     18  C   UNL     1     -10.725  -4.382   5.413  0.00  0.00    +0.054 C 
ATOM     19  C   UNL     1     -11.002  -3.735   4.073  0.00  0.00    +0.113 C 
ATOM     20  N   UNL     1      -9.850  -2.997   3.563  0.00  0.00    -0.290 N 
ATOM     21  C   UNL     1      -9.556  -3.132   2.246  0.00  0.00    +0.250 C 
ATOM     22  O   UNL     1     -10.284  -3.789   1.527  0.00  0.00    -0.270 OA
ENDROOT
BRANCH  15  23
ATOM     23  O   UNL     1      -9.478  -3.142   9.938  0.00  0.00    -0.491 OA
ATOM     24  C   UNL     1     -10.301  -4.237  10.346  0.00  0.00    +0.277 C 
ENDBRANCH  15  23
BRANCH  14  25
ATOM     25  O   UNL     1      -7.920  -1.064   9.004  0.00  0.00    -0.491 OA
ATOM     26  C   UNL     1      -7.135  -0.008   8.446  0.00  0.00    +0.277 C 
ENDBRANCH  14  25
BRANCH   1  27
ATOM     27  S   UNL     1      -3.025   0.661   1.730  0.00  0.00    -0.080 S 
BRANCH  27  28
ATOM     28  C   UNL     1      -2.514   0.980   0.019  0.00  0.00    +0.112 C 
BRANCH  28  33
ATOM     29  C   UNL     1       2.451   3.937   0.000  0.00  0.00    +0.044 C 
ATOM     30  C   UNL     1       1.156   3.165   0.008  0.00  0.00    -0.050 A 
ATOM     31  C   UNL     1       1.175   1.783   0.000  0.00  0.00    +0.003 A 
ATOM     32  C   UNL     1      -0.013   1.076   0.008  0.00  0.00    +0.005 A 
ATOM     33  C   UNL     1      -1.219   1.751   0.017  0.00  0.00    -0.037 A 
ATOM     34  C   UNL     1      -1.238   3.133   0.029  0.00  0.00    +0.005 A 
ATOM     35  C   UNL     1      -0.050   3.840   0.022  0.00  0.00    +0.003 A 
ENDBRANCH  28  33
ENDBRANCH  27  28
ENDBRANCH   1  27
TORSDOF 5
