REMARK  Name = ZINC09091436
REMARK  9 active torsions:
REMARK  status: ('A' for Active; 'I' for Inactive)
REMARK    1  A    between atoms: C_1  and  C_2
REMARK    2  A    between atoms: C_2  and  C_3
REMARK    3  A    between atoms: C_2  and  C_4
REMARK    4  A    between atoms: C_4  and  N_5
REMARK    5  A    between atoms: C_15  and  S_16
REMARK    6  A    between atoms: S_16  and  C_17
REMARK    7  A    between atoms: C_17  and  C_18
REMARK    8  A    between atoms: N_20  and  N_21
REMARK    9  A    between atoms: C_22  and  C_24
REMARK                            x       y       z     vdW  Elec       q    Type
REMARK                         _______ _______ _______ _____ _____    ______ ____
ROOT
ATOM      1  S   UNL     1       6.199   2.366  -0.044  0.00  0.00    -0.078 S 
ENDROOT
BRANCH   1  12
ATOM      2  N   UNL     1       8.832   1.795  -0.073  0.00  0.00    -0.287 N 
ATOM      3  C   UNL     1       9.918   0.987  -0.087  0.00  0.00    +0.262 A 
ATOM      4  O   UNL     1      11.046   1.446  -0.096  0.00  0.00    -0.267 OA
ATOM      5  C   UNL     1       9.687  -0.463  -0.092  0.00  0.00    +0.066 A 
ATOM      6  C   UNL     1      10.740  -1.377  -0.107  0.00  0.00    +0.035 A 
ATOM      7  C   UNL     1      10.464  -2.728  -0.110  0.00  0.00    +0.042 A 
ATOM      8  C   UNL     1       9.150  -3.180  -0.100  0.00  0.00    +0.022 A 
ATOM      9  C   UNL     1       8.104  -2.302  -0.085  0.00  0.00    +0.030 A 
ATOM     10  C   UNL     1       8.351  -0.926  -0.082  0.00  0.00    +0.079 A 
ATOM     11  N   UNL     1       7.341  -0.025  -0.063  0.00  0.00    -0.223 NA
ATOM     12  C   UNL     1       7.574   1.265  -0.064  0.00  0.00    +0.173 A 
ATOM     13 CL   UNL     1      11.769  -3.873  -0.129  0.00  0.00    -0.084 Cl
BRANCH   2  14
ATOM     14  C   UNL     1       9.008   3.249  -0.067  0.00  0.00    +0.130 C 
BRANCH  14  16
ATOM     15  C   UNL     1       9.391   5.247   1.384  0.00  0.00    +0.009 C 
ATOM     16  C   UNL     1       9.083   3.748   1.377  0.00  0.00    +0.003 C 
ATOM     17  C   UNL     1       7.743   3.500   2.073  0.00  0.00    +0.009 C 
ENDBRANCH  14  16
ENDBRANCH   2  14
ENDBRANCH   1  12
BRANCH   1  18
ATOM     18  C   UNL     1       4.839   1.171  -0.038  0.00  0.00    +0.174 C 
BRANCH  18  19
ATOM     19  C   UNL     1       3.524   1.907  -0.021  0.00  0.00    +0.239 C 
ATOM     20  O   UNL     1       3.508   3.120  -0.015  0.00  0.00    -0.273 OA
ATOM     21  N   UNL     1       2.366   1.217  -0.014  0.00  0.00    -0.233 N 
ATOM     22  H   UNL     1       2.379   0.247  -0.019  0.00  0.00    +0.173 HD
BRANCH  21  23
ATOM     23  N   UNL     1       1.143   1.901   0.001  0.00  0.00    -0.230 N 
ATOM     24  C   UNL     1      -0.014   1.211   0.009  0.00  0.00    +0.260 C 
ATOM     25  O   UNL     1       0.002  -0.004   0.002  0.00  0.00    -0.269 OA
ATOM     26  H   UNL     1       1.130   2.871   0.007  0.00  0.00    +0.173 HD
BRANCH  24  27
ATOM     27  C   UNL     1      -1.304   1.933   0.019  0.00  0.00    +0.038 A 
ATOM     28  C   UNL     1      -1.326   3.329   0.032  0.00  0.00    +0.014 A 
ATOM     29  C   UNL     1      -2.533   3.996   0.035  0.00  0.00    +0.021 A 
ATOM     30  C   UNL     1      -3.721   3.285   0.037  0.00  0.00    +0.041 A 
ATOM     31  C   UNL     1      -3.706   1.900   0.030  0.00  0.00    +0.021 A 
ATOM     32  C   UNL     1      -2.505   1.221   0.021  0.00  0.00    +0.014 A 
ATOM     33 CL   UNL     1      -5.236   4.132   0.048  0.00  0.00    -0.084 Cl
ENDBRANCH  24  27
ENDBRANCH  21  23
ENDBRANCH  18  19
ENDBRANCH   1  18
TORSDOF 7
