REMARK  Name = ZINC61749491
REMARK  7 active torsions:
REMARK  status: ('A' for Active; 'I' for Inactive)
REMARK    1  A    between atoms: C_1  and  C_2
REMARK    2  A    between atoms: C_2  and  C_3
REMARK    3  A    between atoms: C_2  and  C_4
REMARK    4  A    between atoms: N_6  and  C_7
REMARK    5  A    between atoms: C_11  and  N_13
REMARK    6  A    between atoms: N_19  and  C_22
REMARK    7  A    between atoms: C_22  and  C_23
REMARK                            x       y       z     vdW  Elec       q    Type
REMARK                         _______ _______ _______ _____ _____    ______ ____
ROOT
ATOM      1  N   UNL     1      -7.324  -0.689  -2.212  0.00  0.00    -0.269 N 
ATOM      2  C   UNL     1      -8.667  -0.782  -2.254  0.00  0.00    +0.307 C 
ATOM      3  O   UNL     1      -9.278  -1.212  -1.294  0.00  0.00    -0.252 OA
ATOM      4  N   UNL     1      -9.335  -0.400  -3.361  0.00  0.00    -0.283 N 
ATOM      5  C   UNL     1      -8.612  -0.007  -4.580  0.00  0.00    +0.124 C 
ATOM      6  C   UNL     1      -9.188  -0.794  -5.762  0.00  0.00    +0.103 C 
ATOM      7  N   UNL     1     -10.643  -0.601  -5.813  0.00  0.00    -0.294 NA
ATOM      8  C   UNL     1     -11.294  -1.137  -4.610  0.00  0.00    +0.103 C 
ATOM      9  C   UNL     1     -10.805  -0.369  -3.383  0.00  0.00    +0.124 C 
ATOM     10  H   UNL     1      -6.831  -0.416  -3.001  0.00  0.00    +0.156 HD
ENDROOT
BRANCH   1  15
ATOM     11  C   UNL     1      -4.772  -0.636   0.442  0.00  0.00    +0.035 A 
ATOM     12  C   UNL     1      -5.288  -1.584   1.317  0.00  0.00    +0.023 A 
ATOM     13  C   UNL     1      -6.472  -2.229   1.019  0.00  0.00    +0.004 A 
ATOM     14  C   UNL     1      -7.149  -1.934  -0.149  0.00  0.00    +0.023 A 
ATOM     15  C   UNL     1      -6.638  -0.987  -1.028  0.00  0.00    +0.037 A 
ATOM     16  C   UNL     1      -5.452  -0.333  -0.729  0.00  0.00    +0.046 A 
BRANCH  11  19
ATOM     17  C   UNL     1      -3.411   1.315   0.418  0.00  0.00    +0.220 C 
ATOM     18  O   UNL     1      -4.278   1.898  -0.197  0.00  0.00    -0.275 OA
ATOM     19  N   UNL     1      -3.573   0.017   0.744  0.00  0.00    -0.285 N 
ATOM     20  H   UNL     1      -2.857  -0.464   1.189  0.00  0.00    +0.155 HD
BRANCH  17  22
ATOM     21  C   UNL     1      -0.942   1.347   0.187  0.00  0.00    +0.017 C 
ATOM     22  C   UNL     1      -2.152   2.041   0.817  0.00  0.00    +0.069 C 
ATOM     23  C   UNL     1      -2.221   3.489   0.328  0.00  0.00    +0.017 C 
ENDBRANCH  17  22
ENDBRANCH  11  19
ENDBRANCH   1  15
BRANCH   7  24
ATOM     24  C   UNL     1     -11.211  -1.198  -7.029  0.00  0.00    +0.156 C 
BRANCH  24  25
ATOM     25  C   UNL     1     -11.033  -0.232  -8.202  0.00  0.00    +0.355 C 
ATOM     26  F   UNL     1     -11.513   1.032  -7.843  0.00  0.00    -0.208 F 
ATOM     27  F   UNL     1      -9.675  -0.140  -8.528  0.00  0.00    -0.208 F 
ENDBRANCH  24  25
ENDBRANCH   7  24
TORSDOF 5
