REMARK  Name = ZINC04260994
REMARK  7 active torsions:
REMARK  status: ('A' for Active; 'I' for Inactive)
REMARK    1  A    between atoms: C_4  and  O_7
REMARK    2  A    between atoms: O_7  and  C_8
REMARK    3  A    between atoms: C_8  and  C_9
REMARK    4  A    between atoms: N_11  and  C_14
REMARK    5  A    between atoms: C_24  and  N_26
REMARK    6  A    between atoms: N_26  and  S_27
REMARK    7  A    between atoms: S_27  and  C_30
REMARK                            x       y       z     vdW  Elec       q    Type
REMARK                         _______ _______ _______ _____ _____    ______ ____
ROOT
ATOM      1  C   UNL     1       1.139  10.162   0.531  0.00  0.00    +0.166 C 
ATOM      2  C   UNL     1       2.549   9.775   1.018  0.00  0.00    +0.189 C 
ATOM      3  O   UNL     1       3.282   9.346  -0.133  0.00  0.00    -0.370 OA
ATOM      4  C   UNL     1       2.668   9.825  -1.326  0.00  0.00    +0.170 C 
ATOM      5  C   UNL     1       1.378  10.587  -0.937  0.00  0.00    +0.175 C 
ATOM      6  O   UNL     1       1.751  11.982  -0.936  0.00  0.00    -0.370 OA
ATOM      7  C   UNL     1       2.671  12.150  -2.034  0.00  0.00    +0.183 C 
ATOM      8  C   UNL     1       3.556  10.885  -2.005  0.00  0.00    +0.133 C 
ENDROOT
BRANCH   1  11
ATOM      9  C   UNL     1      -0.543   6.991   0.600  0.00  0.00    +0.120 A 
ATOM     10  C   UNL     1       0.598   7.711   0.485  0.00  0.00    +0.137 A 
ATOM     11  N   UNL     1       0.236   9.011   0.596  0.00  0.00    -0.243 N 
ATOM     12  N   UNL     1      -1.038   9.061   0.774  0.00  0.00    -0.065 NA
ATOM     13  N   UNL     1      -1.532   7.873   0.781  0.00  0.00    -0.131 NA
BRANCH   9  14
ATOM     14  C   UNL     1      -0.672   5.491   0.540  0.00  0.00    +0.287 C 
BRANCH  14  15
ATOM     15  O   UNL     1       0.617   4.910   0.333  0.00  0.00    -0.486 OA
BRANCH  15  19
ATOM     16  C   UNL     1       0.801   0.795   0.096  0.00  0.00    +0.000 A 
ATOM     17  C   UNL     1      -0.416   1.422   0.289  0.00  0.00    +0.004 A 
ATOM     18  C   UNL     1      -0.480   2.799   0.376  0.00  0.00    +0.045 A 
ATOM     19  C   UNL     1       0.678   3.555   0.256  0.00  0.00    +0.121 A 
ATOM     20  C   UNL     1       1.897   2.924   0.056  0.00  0.00    +0.045 A 
ATOM     21  C   UNL     1       1.956   1.546  -0.024  0.00  0.00    +0.004 A 
ENDBRANCH  15  19
ENDBRANCH  14  15
ENDBRANCH   9  14
ENDBRANCH   1  11
BRANCH   8  22
ATOM     22  N   UNL     1       3.906  10.471  -3.366  0.00  0.00    -0.182 NA
ATOM     23  H   UNL     1       3.292   9.923  -3.879  0.00  0.00    +0.148 HD
BRANCH  22  24
ATOM     24  S   UNL     1       5.350  10.940  -4.028  0.00  0.00    +0.061 S 
ATOM     25  O   UNL     1       6.353  10.642  -3.066  0.00  0.00    -0.153 OA
ATOM     26  O   UNL     1       5.380  10.415  -5.348  0.00  0.00    -0.153 OA
BRANCH  24  27
ATOM     27  C   UNL     1       5.307  12.694  -4.184  0.00  0.00    +0.131 A 
ATOM     28  C   UNL     1       6.172  13.465  -3.470  0.00  0.00    +0.031 A 
ATOM     29  C   UNL     1       6.155  14.854  -3.579  0.00  0.00    +0.003 A 
ATOM     30  C   UNL     1       5.270  15.480  -4.403  0.00  0.00    +0.010 A 
ATOM     31  C   UNL     1       4.363  14.716  -5.155  0.00  0.00    +0.002 A 
ATOM     32  C   UNL     1       4.382  13.303  -5.050  0.00  0.00    +0.097 A 
ATOM     33  N   UNL     1       3.516  12.572  -5.760  0.00  0.00    -0.253 NA
ATOM     34  C   UNL     1       2.649  13.134  -6.565  0.00  0.00    +0.111 A 
ATOM     35  C   UNL     1       2.580  14.517  -6.718  0.00  0.00    +0.020 A 
ATOM     36  C   UNL     1       3.432  15.324  -6.019  0.00  0.00    +0.011 A 
ENDBRANCH  24  27
ENDBRANCH  22  24
ENDBRANCH   8  22
TORSDOF 7
