REMARK  Name = ZINC15900528
REMARK  6 active torsions:
REMARK  status: ('A' for Active; 'I' for Inactive)
REMARK    1  A    between atoms: C_1  and  N_2
REMARK    2  A    between atoms: N_2  and  C_3
REMARK    3  A    between atoms: C_6  and  C_12
REMARK    4  A    between atoms: C_8  and  N_9
REMARK    5  A    between atoms: N_14  and  N_15
REMARK    6  A    between atoms: C_16  and  C_18
REMARK                            x       y       z     vdW  Elec       q    Type
REMARK                         _______ _______ _______ _____ _____    ______ ____
ROOT
ATOM      1  C   UNL     1      -1.765   4.813   2.923  0.00  0.00    +0.260 C 
ATOM      2  O   UNL     1      -1.279   5.507   2.051  0.00  0.00    -0.269 OA
ATOM      3  N   UNL     1      -1.722   3.470   2.818  0.00  0.00    -0.230 N 
ATOM      4  H   UNL     1      -2.110   2.917   3.514  0.00  0.00    +0.173 HD
ENDROOT
BRANCH   1   8
ATOM      5  C   UNL     1      -3.594   6.621   6.302  0.00  0.00    +0.058 A 
ATOM      6  C   UNL     1      -3.551   5.234   6.195  0.00  0.00    +0.026 A 
ATOM      7  C   UNL     1      -2.964   4.645   5.098  0.00  0.00    +0.015 A 
ATOM      8  C   UNL     1      -2.400   5.441   4.097  0.00  0.00    +0.040 A 
ATOM      9  C   UNL     1      -2.445   6.834   4.208  0.00  0.00    +0.047 A 
ATOM     10  C   UNL     1      -3.038   7.417   5.304  0.00  0.00    +0.148 A 
BRANCH   5  12
ATOM     11  C   UNL     1      -4.665   6.382   8.519  0.00  0.00    +0.125 C 
ATOM     12  N   UNL     1      -4.193   7.213   7.408  0.00  0.00    -0.345 N 
ATOM     13  H   UNL     1      -4.299   8.177   7.445  0.00  0.00    +0.146 HD
ENDBRANCH   5  12
BRANCH  10  14
ATOM     14  N   UNL     1      -3.086   8.892   5.423  0.00  0.00    +0.058 N 
ATOM     15  O   UNL     1      -2.503   9.587   4.610  0.00  0.00    -0.126 OA
ATOM     16  O   UNL     1      -3.707   9.410   6.333  0.00  0.00    -0.126 OA
ENDBRANCH  10  14
ENDBRANCH   1   8
BRANCH   3  17
ATOM     17  N   UNL     1      -1.119   2.874   1.703  0.00  0.00    -0.234 N 
ATOM     18  C   UNL     1      -1.077   1.531   1.597  0.00  0.00    +0.235 C 
ATOM     19  O   UNL     1      -1.561   0.839   2.468  0.00  0.00    -0.274 OA
ATOM     20  H   UNL     1      -0.732   3.428   1.007  0.00  0.00    +0.173 HD
BRANCH  18  21
ATOM     21  C   UNL     1      -0.428   0.889   0.398  0.00  0.00    +0.049 C 
ATOM     22  C   UNL     1       1.041   1.312   0.326  0.00  0.00    +0.019 C 
ATOM     23  C   UNL     1       1.700   0.661  -0.892  0.00  0.00    -0.009 C 
ATOM     24  C   UNL     1       1.613  -0.861  -0.765  0.00  0.00    +0.007 C 
ATOM     25  C   UNL     1       0.145  -1.284  -0.693  0.00  0.00    -0.009 C 
ATOM     26  C   UNL     1      -0.514  -0.633   0.525  0.00  0.00    +0.019 C 
ATOM     27  C   UNL     1      -0.579  -0.836  -1.965  0.00  0.00    +0.007 C 
ATOM     28  C   UNL     1      -0.492   0.686  -2.091  0.00  0.00    -0.009 C 
ATOM     29  C   UNL     1       0.977   1.109  -2.164  0.00  0.00    +0.007 C 
ATOM     30  C   UNL     1      -1.151   1.337  -0.874  0.00  0.00    +0.019 C 
ENDBRANCH  18  21
ENDBRANCH   3  17
TORSDOF 5
