REMARK  Name = ZINC04540062
REMARK  2 active torsions:
REMARK  status: ('A' for Active; 'I' for Inactive)
REMARK    1  A    between atoms: C_1  and  C_2
REMARK    2  A    between atoms: C_11  and  C_14
REMARK                            x       y       z     vdW  Elec       q    Type
REMARK                         _______ _______ _______ _____ _____    ______ ____
ROOT
ATOM      1  C   UNL     1       1.141   2.075   0.002  0.00  0.00    +0.260 C 
ATOM      2  O   UNL     1       2.200   1.483  -0.011  0.00  0.00    -0.271 OA
ATOM      3  N   UNL     1      -0.017   1.386   0.010  0.00  0.00    -0.262 N 
ATOM      4  C   UNL     1       0.002  -0.004   0.002  0.00  0.00    +0.165 A 
ATOM      5  N   UNL     1       1.037  -0.818  -0.018  0.00  0.00    -0.229 NA
ATOM      6  C   UNL     1       0.899  -2.141  -0.018  0.00  0.00    +0.054 A 
ATOM      7  C   UNL     1      -0.377  -2.607  -0.008  0.00  0.00    +0.014 A 
ATOM      8  S   UNL     1      -1.335  -1.115   0.009  0.00  0.00    -0.057 S 
ATOM      9  C   UNL     1      -0.834  -4.026  -0.013  0.00  0.00    +0.044 C 
ATOM     10  C   UNL     1       0.360  -4.914  -0.398  0.00  0.00    +0.006 C 
ATOM     11  C   UNL     1       1.577  -4.487   0.428  0.00  0.00    +0.006 C 
ATOM     12  C   UNL     1       2.071  -3.115  -0.033  0.00  0.00    +0.056 C 
ATOM     13  H   UNL     1      -0.863   1.859   0.016  0.00  0.00    +0.157 HD
ENDROOT
BRANCH   1  24
ATOM     14  C   UNL     1       1.252   9.794   1.887  0.00  0.00    +0.044 C 
ATOM     15  C   UNL     1       1.068   8.307   1.732  0.00  0.00    -0.050 A 
ATOM     16  C   UNL     1       0.077   7.655   2.445  0.00  0.00    +0.003 A 
ATOM     17  C   UNL     1      -0.101   6.290   2.312  0.00  0.00    +0.005 A 
ATOM     18  C   UNL     1       0.712   5.564   1.463  0.00  0.00    -0.029 A 
ATOM     19  C   UNL     1       1.710   6.219   0.741  0.00  0.00    +0.063 A 
ATOM     20  C   UNL     1       1.887   7.595   0.879  0.00  0.00    +0.018 A 
ATOM     21  C   UNL     1       2.575   5.441  -0.176  0.00  0.00    +0.340 C 
ATOM     22  O   UNL     1       3.334   5.989  -0.950  0.00  0.00    -0.245 OA
ATOM     23  O   UNL     1       2.482   4.088  -0.115  0.00  0.00    -0.448 OA
ATOM     24  C   UNL     1       1.121   3.582   0.011  0.00  0.00    +0.266 C 
ATOM     25  C   UNL     1       0.517   4.077   1.325  0.00  0.00    +0.090 C 
ENDBRANCH   1  24
TORSDOF 1
