REMARK  Name = ZINC36026556
REMARK  5 active torsions:
REMARK  status: ('A' for Active; 'I' for Inactive)
REMARK    1  A    between atoms: C_4  and  C_7
REMARK    2  A    between atoms: C_7  and  C_8
REMARK    3  A    between atoms: N_12  and  C_27
REMARK    4  A    between atoms: C_20  and  C_22
REMARK    5  A    between atoms: C_27  and  C_28
REMARK                            x       y       z     vdW  Elec       q    Type
REMARK                         _______ _______ _______ _____ _____    ______ ____
ROOT
ATOM      1  C   UNL     1       4.197  -0.859   1.125  0.00  0.00    +0.023 C 
ATOM      2  C   UNL     1       5.444  -1.717   1.107  0.00  0.00    +0.201 C 
ATOM      3  O   UNL     1       5.672  -2.619   0.330  0.00  0.00    -0.277 OA
ATOM      4  N   UNL     1       6.258  -1.309   2.102  0.00  0.00    -0.311 N 
ATOM      5  C   UNL     1       5.630  -0.199   2.824  0.00  0.00    +0.006 C 
ATOM      6  N   UNL     1       4.559   0.322   1.946  0.00  0.00    +0.401 N 
ATOM      7  C   UNL     1       5.023  -0.698   4.134  0.00  0.00    +0.025 C 
ATOM      8  C   UNL     1       6.132  -1.272   5.022  0.00  0.00    +0.108 C 
ATOM      9  N   UNL     1       7.182  -0.257   5.181  0.00  0.00    -0.301 N 
ATOM     10  C   UNL     1       7.778   0.340   3.978  0.00  0.00    +0.108 C 
ATOM     11  C   UNL     1       6.655   0.900   3.099  0.00  0.00    +0.025 C 
ATOM     12  C   UNL     1       7.593   0.119   6.409  0.00  0.00    +0.219 C 
ATOM     13  O   UNL     1       8.386   1.028   6.531  0.00  0.00    -0.275 OA
ATOM     14  H   UNL     1       4.909   1.068   1.363  0.00  0.00    -0.082 HD
ATOM     15  H   UNL     1       3.769   0.633   2.490  0.00  0.00    -0.082 HD
ENDROOT
BRANCH  12  16
ATOM     16  C   UNL     1       7.066  -0.590   7.630  0.00  0.00    +0.075 C 
ATOM     17  C   UNL     1       7.663  -2.016   7.728  0.00  0.00    +0.013 C 
ATOM     18  C   UNL     1       7.536  -2.337   9.238  0.00  0.00    +0.001 C 
ATOM     19  C   UNL     1       7.851  -0.998   9.936  0.00  0.00    +0.001 C 
ATOM     20  C   UNL     1       7.552   0.112   8.914  0.00  0.00    +0.013 C 
ENDBRANCH  12  16
BRANCH   1  21
ATOM     21  C   UNL     1       3.828  -0.427  -0.296  0.00  0.00    +0.028 C 
BRANCH  21  25
ATOM     22  C   UNL     1       0.229   1.871  -0.198  0.00  0.00    +0.000 A 
ATOM     23  C   UNL     1       1.454   2.500  -0.075  0.00  0.00    +0.000 A 
ATOM     24  C   UNL     1       2.618   1.756  -0.107  0.00  0.00    +0.003 A 
ATOM     25  C   UNL     1       2.558   0.384  -0.261  0.00  0.00    -0.048 A 
ATOM     26  C   UNL     1       1.333  -0.245  -0.382  0.00  0.00    +0.003 A 
ATOM     27  C   UNL     1       0.169   0.499  -0.352  0.00  0.00    +0.000 A 
ENDBRANCH  21  25
ENDBRANCH   1  21
BRANCH   4  28
ATOM     28  C   UNL     1       7.569  -1.886   2.413  0.00  0.00    +0.137 C 
BRANCH  28  29
ATOM     29  C   UNL     1       8.627  -1.272   1.495  0.00  0.00    +0.136 C 
ATOM     30  C   UNL     1      10.023  -1.820   1.865  0.00  0.00    +0.035 C 
ATOM     31  C   UNL     1      10.921  -0.563   1.710  0.00  0.00    +0.031 C 
ATOM     32  C   UNL     1       9.947   0.554   2.162  0.00  0.00    +0.160 C 
ATOM     33  O   UNL     1       8.657   0.149   1.670  0.00  0.00    -0.375 OA
ENDBRANCH  28  29
ENDBRANCH   4  28
TORSDOF 5
