REMARK  Name = ZINC12148768
REMARK  10 active torsions:
REMARK  status: ('A' for Active; 'I' for Inactive)
REMARK    1  A    between atoms: C_1  and  N_72
REMARK    2  A    between atoms: C_2  and  N_72
REMARK    3  A    between atoms: C_3  and  C_4
REMARK    4  A    between atoms: C_3  and  N_72
REMARK    5  A    between atoms: C_4  and  C_5
REMARK    6  A    between atoms: C_5  and  N_6
REMARK    7  A    between atoms: C_9  and  C_13
REMARK    8  A    between atoms: C_9  and  C_21
REMARK    9  A    between atoms: C_13  and  C_14
REMARK   10  A    between atoms: C_27  and  C_29
REMARK                            x       y       z     vdW  Elec       q    Type
REMARK                         _______ _______ _______ _____ _____    ______ ____
ROOT
ATOM      1  N   UNL     1      -1.166   0.969   2.905  0.00  0.00    -0.224 N 
ATOM      2  C   UNL     1      -2.126   0.928   1.960  0.00  0.00    +0.247 C 
ATOM      3  O   UNL     1      -2.908   0.025   1.749  0.00  0.00    -0.273 OA
ATOM      4  C   UNL     1      -2.023   2.243   1.213  0.00  0.00    +0.119 C 
ATOM      5  N   UNL     1      -0.915   2.942   1.888  0.00  0.00    -0.284 N 
ATOM      6  C   UNL     1      -0.479   2.116   2.861  0.00  0.00    +0.309 C 
ATOM      7  O   UNL     1       0.436   2.386   3.614  0.00  0.00    -0.252 OA
ATOM      8  H   UNL     1      -0.569   3.822   1.672  0.00  0.00    +0.151 HD
ENDROOT
BRANCH   4   9
ATOM      9  C   UNL     1      -3.322   3.040   1.346  0.00  0.00    +0.025 C 
ATOM     10  C   UNL     1      -3.166   4.391   0.644  0.00  0.00    +0.025 C 
ATOM     11  C   UNL     1      -4.480   5.171   0.748  0.00  0.00    +0.108 C 
ATOM     12  N   UNL     1      -4.861   5.268   2.164  0.00  0.00    -0.298 N 
ATOM     13  C   UNL     1      -4.952   4.034   2.957  0.00  0.00    +0.108 C 
ATOM     14  C   UNL     1      -3.633   3.267   2.827  0.00  0.00    +0.025 C 
ATOM     15  C   UNL     1      -5.122   6.465   2.725  0.00  0.00    +0.242 C 
ATOM     16  O   UNL     1      -5.525   6.526   3.870  0.00  0.00    -0.270 OA
BRANCH  15  17
ATOM     17  C   UNL     1      -4.918   7.700   1.951  0.00  0.00    +0.011 C 
ATOM     18  C   UNL     1      -5.855   8.060   1.100  0.00  0.00    -0.018 C 
ATOM     19  C   UNL     1      -5.777   9.291   0.245  0.00  0.00    +0.027 C 
ATOM     20  C   UNL     1      -4.710  10.244   0.786  0.00  0.00    +0.004 C 
ATOM     21  C   UNL     1      -3.419   9.449   1.018  0.00  0.00    +0.005 C 
ATOM     22  C   UNL     1      -3.651   8.473   2.173  0.00  0.00    +0.040 C 
ENDBRANCH  15  17
ENDBRANCH   4   9
BRANCH   1  23
ATOM     23  C   UNL     1      -0.908  -0.108   3.864  0.00  0.00    +0.116 C 
BRANCH  23  24
ATOM     24  C   UNL     1       0.116  -1.080   3.276  0.00  0.00    +0.001 C 
BRANCH  24  25
ATOM     25  C   UNL     1       0.386  -2.205   4.277  0.00  0.00    -0.078 C 
BRANCH  25  28
ATOM     26  C   UNL     1       2.679  -2.490   3.553  0.00  0.00    -0.097 C 
ATOM     27  C   UNL     1       1.478  -4.350   4.534  0.00  0.00    -0.097 C 
ATOM     28  N   UNL     1       1.360  -3.146   3.686  0.00  0.00    +0.376 N 
ATOM     29  H   UNL     1       1.032  -3.425   2.754  0.00  0.00    -0.083 HD
ENDBRANCH  25  28
ENDBRANCH  24  25
ENDBRANCH  23  24
ENDBRANCH   1  23
BRANCH   4  30
ATOM     30  C   UNL     1      -1.690   2.002  -0.260  0.00  0.00    +0.070 C 
BRANCH  30  31
ATOM     31  C   UNL     1      -0.407   1.216  -0.363  0.00  0.00    -0.042 A 
ATOM     32  C   UNL     1      -0.443  -0.166  -0.384  0.00  0.00    +0.004 A 
ATOM     33  C   UNL     1       0.731  -0.887  -0.484  0.00  0.00    +0.003 A 
ATOM     34  C   UNL     1       1.943  -0.228  -0.563  0.00  0.00    +0.038 A 
ATOM     35  C   UNL     1       1.981   1.156  -0.542  0.00  0.00    +0.124 A 
ATOM     36  C   UNL     1       0.803   1.878  -0.442  0.00  0.00    +0.042 A 
ATOM     37  F   UNL     1       3.165   1.802  -0.620  0.00  0.00    -0.205 F 
ENDBRANCH  30  31
ENDBRANCH   4  30
TORSDOF 8
