REMARK  Name = ZINC12616150
REMARK  4 active torsions:
REMARK  status: ('A' for Active; 'I' for Inactive)
REMARK    1  A    between atoms: N_8  and  N_9
REMARK    2  A    between atoms: C_10  and  C_12
REMARK    3  A    between atoms: N_17  and  C_18
REMARK    4  A    between atoms: C_18  and  C_19
REMARK                            x       y       z     vdW  Elec       q    Type
REMARK                         _______ _______ _______ _____ _____    ______ ____
ROOT
ATOM      1  C   UNL     1      -0.556   5.847   0.036  0.00  0.00    +0.001 A 
ATOM      2  C   UNL     1       0.825   5.757   0.022  0.00  0.00    +0.002 A 
ATOM      3  C   UNL     1       1.449   4.526   0.011  0.00  0.00    +0.024 A 
ATOM      4  C   UNL     1       0.692   3.359   0.013  0.00  0.00    +0.046 A 
ATOM      5  C   UNL     1      -0.705   3.455   0.026  0.00  0.00    +0.028 A 
ATOM      6  C   UNL     1      -1.325   4.700   0.037  0.00  0.00    +0.012 A 
ATOM      7  C   UNL     1      -1.220   2.066   0.018  0.00  0.00    +0.153 C 
ATOM      8  N   UNL     1      -2.472   1.679   0.021  0.00  0.00    -0.175 NA
ATOM      9  C   UNL     1      -0.014   1.213   0.009  0.00  0.00    +0.272 C 
ATOM     10  O   UNL     1       0.002  -0.004   0.002  0.00  0.00    -0.268 OA
ATOM     11  N   UNL     1       1.061   2.018   0.003  0.00  0.00    -0.261 N 
ENDROOT
BRANCH   8  12
ATOM     12  N   UNL     1      -2.783   0.312   0.016  0.00  0.00    -0.206 N 
ATOM     13  C   UNL     1      -4.071  -0.086   0.019  0.00  0.00    +0.235 C 
ATOM     14  O   UNL     1      -4.960   0.738   0.027  0.00  0.00    -0.274 OA
ATOM     15  H   UNL     1      -1.976  -0.435   0.009  0.00  0.00    +0.177 HD
BRANCH  13  16
ATOM     16  C   UNL     1      -4.405  -1.555   0.013  0.00  0.00    +0.077 C 
ATOM     17  C   UNL     1      -5.049  -2.128  -1.251  0.00  0.00    +0.013 C 
ATOM     18  C   UNL     1      -5.885  -1.943   0.017  0.00  0.00    +0.013 C 
ENDBRANCH  13  16
ENDBRANCH   8  12
BRANCH  11  19
ATOM     19  C   UNL     1       2.447   1.544  -0.013  0.00  0.00    +0.149 C 
BRANCH  19  20
ATOM     20  C   UNL     1       2.909   1.388  -1.438  0.00  0.00    -0.030 A 
ATOM     21  C   UNL     1       2.738   0.182  -2.092  0.00  0.00    +0.006 A 
ATOM     22  C   UNL     1       3.157   0.040  -3.402  0.00  0.00    +0.020 A 
ATOM     23  C   UNL     1       3.756   1.102  -4.055  0.00  0.00    +0.041 A 
ATOM     24  C   UNL     1       3.932   2.308  -3.398  0.00  0.00    +0.020 A 
ATOM     25  C   UNL     1       3.508   2.450  -2.091  0.00  0.00    +0.006 A 
ATOM     26 CL   UNL     1       4.289   0.922  -5.697  0.00  0.00    -0.084 Cl
ENDBRANCH  19  20
ENDBRANCH  11  19
TORSDOF 4
