REMARK  Name = ZINC54642923
REMARK  13 active torsions:
REMARK  status: ('A' for Active; 'I' for Inactive)
REMARK    1  A    between atoms: C_1  and  C_2
REMARK    2  A    between atoms: C_3  and  C_30
REMARK    3  A    between atoms: C_4  and  C_20
REMARK    4  A    between atoms: C_9  and  S_11
REMARK    5  A    between atoms: S_11  and  C_12
REMARK    6  A    between atoms: C_12  and  C_13
REMARK    7  A    between atoms: C_23  and  O_26
REMARK    8  A    between atoms: O_26  and  C_27
REMARK    9  A    between atoms: C_27  and  C_28
REMARK   10  A    between atoms: C_27  and  C_29
REMARK   11  A    between atoms: C_30  and  O_32
REMARK   12  A    between atoms: O_32  and  C_33
REMARK   13  A    between atoms: C_33  and  C_34
REMARK                            x       y       z     vdW  Elec       q    Type
REMARK                         _______ _______ _______ _____ _____    ______ ____
ROOT
ATOM      1  C   UNL     1      -0.995   2.366   0.567  0.00  0.00    +0.061 C 
ATOM      2  C   UNL     1      -0.763   0.887   0.396  0.00  0.00    +0.020 C 
ATOM      3  C   UNL     1      -1.823   0.065   0.350  0.00  0.00    +0.082 C 
ATOM      4  C   UNL     1      -1.700  -1.427   0.193  0.00  0.00    +0.179 C 
ATOM      5  N   UNL     1      -0.330  -1.764  -0.184  0.00  0.00    -0.220 N 
ATOM      6  C   UNL     1       0.702  -0.887  -0.126  0.00  0.00    +0.219 A 
ATOM      7  N   UNL     1       1.782  -1.504  -0.521  0.00  0.00    -0.187 NA
ATOM      8  C   UNL     1       1.482  -2.771  -0.843  0.00  0.00    +0.211 A 
ATOM      9  N   UNL     1       0.196  -2.968  -0.650  0.00  0.00    -0.141 NA
ATOM     10  N   UNL     1       0.525   0.426   0.287  0.00  0.00    -0.287 N 
ATOM     11  H   UNL     1       1.283   0.995   0.493  0.00  0.00    +0.155 HD
ENDROOT
BRANCH   4  12
ATOM     12  C   UNL     1      -2.042  -2.099   1.498  0.00  0.00    -0.018 A 
ATOM     13  C   UNL     1      -1.307  -1.815   2.634  0.00  0.00    +0.009 A 
ATOM     14  C   UNL     1      -1.619  -2.431   3.831  0.00  0.00    +0.046 A 
ATOM     15  C   UNL     1      -2.670  -3.334   3.892  0.00  0.00    +0.121 A 
ATOM     16  C   UNL     1      -3.406  -3.616   2.751  0.00  0.00    +0.046 A 
ATOM     17  C   UNL     1      -3.094  -2.994   1.558  0.00  0.00    +0.009 A 
BRANCH  15  18
ATOM     18  O   UNL     1      -2.978  -3.941   5.069  0.00  0.00    -0.489 OA
BRANCH  18  19
ATOM     19  C   UNL     1      -2.107  -3.694   6.174  0.00  0.00    +0.167 C 
ATOM     20  C   UNL     1      -2.521  -2.396   6.870  0.00  0.00    +0.051 C 
ATOM     21  C   UNL     1      -2.199  -4.856   7.165  0.00  0.00    +0.051 C 
ENDBRANCH  18  19
ENDBRANCH  15  18
ENDBRANCH   4  12
BRANCH   3  22
ATOM     22  C   UNL     1      -3.115   0.627   0.453  0.00  0.00    +0.339 C 
ATOM     23  O   UNL     1      -3.247   1.830   0.580  0.00  0.00    -0.245 OA
BRANCH  22  24
ATOM     24  O   UNL     1      -4.203  -0.171   0.411  0.00  0.00    -0.457 OA
BRANCH  24  25
ATOM     25  C   UNL     1      -5.478   0.465   0.521  0.00  0.00    +0.268 C 
BRANCH  25  26
ATOM     26  C   UNL     1      -6.566  -0.576   0.454  0.00  0.00    -0.010 A 
ATOM     27  C   UNL     1      -7.103  -0.937  -0.768  0.00  0.00    +0.007 A 
ATOM     28  C   UNL     1      -8.101  -1.892  -0.829  0.00  0.00    +0.000 A 
ATOM     29  C   UNL     1      -8.561  -2.486   0.331  0.00  0.00    +0.000 A 
ATOM     30  C   UNL     1      -8.023  -2.127   1.552  0.00  0.00    +0.000 A 
ATOM     31  C   UNL     1      -7.022  -1.175   1.613  0.00  0.00    +0.007 A 
ENDBRANCH  25  26
ENDBRANCH  24  25
ENDBRANCH  22  24
ENDBRANCH   3  22
BRANCH   8  32
ATOM     32  S   UNL     1       2.626  -3.976  -1.429  0.00  0.00    -0.080 S 
BRANCH  32  33
ATOM     33  C   UNL     1       4.210  -3.093  -1.474  0.00  0.00    +0.112 C 
BRANCH  33  34
ATOM     34  C   UNL     1       5.290  -4.022  -1.965  0.00  0.00    -0.037 A 
ATOM     35  C   UNL     1       6.002  -4.791  -1.064  0.00  0.00    +0.004 A 
ATOM     36  C   UNL     1       6.992  -5.644  -1.514  0.00  0.00    +0.000 A 
ATOM     37  C   UNL     1       7.271  -5.728  -2.865  0.00  0.00    +0.000 A 
ATOM     38  C   UNL     1       6.558  -4.959  -3.767  0.00  0.00    +0.000 A 
ATOM     39  C   UNL     1       5.564  -4.110  -3.317  0.00  0.00    +0.004 A 
ENDBRANCH  33  34
ENDBRANCH  32  33
ENDBRANCH   8  32
TORSDOF 10
