REMARK  Name = ZINC38705192
REMARK  13 active torsions:
REMARK  status: ('A' for Active; 'I' for Inactive)
REMARK    1  A    between atoms: C_1  and  C_2
REMARK    2  A    between atoms: C_2  and  C_3
REMARK    3  A    between atoms: C_3  and  C_4
REMARK    4  A    between atoms: C_4  and  O_5
REMARK    5  A    between atoms: O_5  and  C_6
REMARK    6  A    between atoms: C_9  and  C_12
REMARK    7  A    between atoms: C_15  and  C_31
REMARK    8  A    between atoms: N_22  and  C_23
REMARK    9  A    between atoms: C_23  and  C_24
REMARK   10  A    between atoms: C_27  and  C_30
REMARK   11  A    between atoms: C_32  and  C_39
REMARK   12  A    between atoms: C_34  and  C_38
REMARK   13  A    between atoms: C_36  and  O_37
REMARK                            x       y       z     vdW  Elec       q    Type
REMARK                         _______ _______ _______ _____ _____    ______ ____
ROOT
ATOM      1  C   UNL     1      -3.401  -8.178  -0.004  0.00  0.00    +0.142 C 
ATOM      2  C   UNL     1      -3.862  -8.624  -1.364  0.00  0.00    +0.035 A 
ATOM      3  C   UNL     1      -3.591  -8.702  -2.735  0.00  0.00    +0.102 A 
ATOM      4  N   UNL     1      -4.613  -9.309  -3.305  0.00  0.00    -0.173 NA
ATOM      5  N   UNL     1      -5.502  -9.622  -2.431  0.00  0.00    -0.272 N 
ATOM      6  H   UNL     1      -6.337 -10.076  -2.625  0.00  0.00    +0.189 HD
ATOM      7  C   UNL     1      -5.096  -9.222  -1.190  0.00  0.00    +0.126 A 
ATOM      8  C   UNL     1      -5.441  -9.172   0.235  0.00  0.00    +0.266 C 
ATOM      9  O   UNL     1      -6.466  -9.616   0.717  0.00  0.00    -0.268 OA
ATOM     10  N   UNL     1      -4.462  -8.568   0.934  0.00  0.00    -0.281 N 
ENDROOT
BRANCH   3  11
ATOM     11  C   UNL     1      -2.376  -8.195  -3.420  0.00  0.00    +0.047 A 
ATOM     12  C   UNL     1      -2.495  -7.395  -4.554  0.00  0.00    -0.037 A 
ATOM     13  C   UNL     1      -1.363  -6.925  -5.188  0.00  0.00    +0.007 A 
ATOM     14  C   UNL     1      -0.108  -7.246  -4.701  0.00  0.00    -0.047 A 
ATOM     15  C   UNL     1       0.022  -8.039  -3.577  0.00  0.00    +0.049 A 
ATOM     16  C   UNL     1      -1.107  -8.512  -2.927  0.00  0.00    +0.127 A 
ATOM     17  C   UNL     1       1.123  -6.729  -5.400  0.00  0.00    +0.044 C 
ATOM     18  C   UNL     1      -3.860  -7.043  -5.088  0.00  0.00    +0.044 C 
BRANCH  16  19
ATOM     19  O   UNL     1      -0.981  -9.287  -1.818  0.00  0.00    -0.506 OA
ATOM     20  H   UNL     1      -0.852 -10.226  -2.007  0.00  0.00    +0.292 HD
ENDBRANCH  16  19
ENDBRANCH   3  11
BRANCH   1  24
ATOM     21  C   UNL     1      -2.875  -3.937   0.052  0.00  0.00    +0.121 A 
ATOM     22  C   UNL     1      -1.778  -4.775   0.188  0.00  0.00    +0.046 A 
ATOM     23  C   UNL     1      -1.951  -6.146   0.170  0.00  0.00    +0.009 A 
ATOM     24  C   UNL     1      -3.216  -6.682   0.016  0.00  0.00    -0.022 A 
ATOM     25  C   UNL     1      -4.311  -5.849  -0.121  0.00  0.00    +0.009 A 
ATOM     26  C   UNL     1      -4.144  -4.478  -0.097  0.00  0.00    +0.046 A 
BRANCH  21  27
ATOM     27  O   UNL     1      -2.708  -2.589   0.069  0.00  0.00    -0.492 OA
BRANCH  27  28
ATOM     28  C   UNL     1      -1.373  -2.103   0.226  0.00  0.00    +0.229 C 
BRANCH  28  29
ATOM     29  C   UNL     1      -1.384  -0.573   0.223  0.00  0.00    +0.041 C 
BRANCH  29  31
ATOM     30  C   UNL     1       0.034   1.478   0.387  0.00  0.00    +0.004 C 
ATOM     31  C   UNL     1       0.045  -0.052   0.391  0.00  0.00    -0.000 C 
ENDBRANCH  29  31
ENDBRANCH  28  29
ENDBRANCH  27  28
ENDBRANCH  21  27
ENDBRANCH   1  24
BRANCH  10  32
ATOM     32  C   UNL     1      -4.454  -8.338   2.381  0.00  0.00    +0.144 C 
BRANCH  32  33
ATOM     33  C   UNL     1      -5.088  -7.004   2.681  0.00  0.00    -0.030 A 
ATOM     34  C   UNL     1      -4.308  -5.863   2.724  0.00  0.00    +0.005 A 
ATOM     35  C   UNL     1      -4.889  -4.640   3.000  0.00  0.00    +0.003 A 
ATOM     36  C   UNL     1      -6.249  -4.556   3.231  0.00  0.00    -0.050 A 
ATOM     37  C   UNL     1      -7.029  -5.697   3.188  0.00  0.00    +0.003 A 
ATOM     38  C   UNL     1      -6.449  -6.920   2.908  0.00  0.00    +0.005 A 
ATOM     39  C   UNL     1      -6.882  -3.223   3.532  0.00  0.00    +0.044 C 
ENDBRANCH  32  33
ENDBRANCH  10  32
TORSDOF 9
