REMARK  Name = ZINC63869432
REMARK  5 active torsions:
REMARK  status: ('A' for Active; 'I' for Inactive)
REMARK    1  A    between atoms: C_1  and  C_2
REMARK    2  A    between atoms: C_4  and  C_17
REMARK    3  A    between atoms: N_12  and  C_13
REMARK    4  A    between atoms: C_13  and  C_14
REMARK    5  A    between atoms: C_23  and  C_27
REMARK                            x       y       z     vdW  Elec       q    Type
REMARK                         _______ _______ _______ _____ _____    ______ ____
ROOT
ATOM      1  C   UNL     1       0.470   1.494   0.199  0.00  0.00    +0.029 C 
ATOM      2  C   UNL     1       0.291  -0.023   0.114  0.00  0.00    +0.082 C 
ATOM      3  C   UNL     1       0.637  -0.522  -1.299  0.00  0.00    +0.083 C 
ATOM      4  C   UNL     1       1.795  -1.473  -1.092  0.00  0.00    -0.018 A 
ATOM      5  C   UNL     1       2.524  -2.223  -1.995  0.00  0.00    +0.006 A 
ATOM      6  C   UNL     1       3.554  -3.032  -1.554  0.00  0.00    +0.000 A 
ATOM      7  C   UNL     1       3.854  -3.090  -0.205  0.00  0.00    +0.002 A 
ATOM      8  C   UNL     1       3.129  -2.344   0.700  0.00  0.00    +0.023 A 
ATOM      9  C   UNL     1       2.087  -1.524   0.262  0.00  0.00    +0.034 A 
ATOM     10  N   UNL     1       1.238  -0.698   1.005  0.00  0.00    -0.317 N 
ENDROOT
BRANCH   3  11
ATOM     11  C   UNL     1       1.057   0.648  -2.191  0.00  0.00    +0.183 C 
ATOM     12  N   UNL     1      -0.104   1.494  -2.493  0.00  0.00    -0.363 N 
ATOM     13  C   UNL     1      -0.266   1.487  -3.787  0.00  0.00    +0.060 A 
ATOM     14  C   UNL     1      -1.249   2.141  -4.661  0.00  0.00    +0.028 A 
ATOM     15  C   UNL     1      -1.188   1.962  -5.993  0.00  0.00    +0.017 A 
ATOM     16  C   UNL     1      -0.163   1.128  -6.614  0.00  0.00    +0.065 A 
ATOM     17  C   UNL     1       0.784   0.489  -5.873  0.00  0.00    +0.042 A 
ATOM     18  C   UNL     1       0.782   0.636  -4.409  0.00  0.00    +0.061 A 
ATOM     19  N   UNL     1       1.552   0.148  -3.478  0.00  0.00    -0.363 N 
ATOM     20  H   UNL     1       2.314  -0.438  -3.612  0.00  0.00    +0.162 HD
ATOM     21  H   UNL     1      -0.651   1.970  -1.848  0.00  0.00    +0.162 HD
BRANCH  16  22
ATOM     22  C   UNL     1      -0.153   0.974  -8.082  0.00  0.00    +0.387 C 
ATOM     23  O   UNL     1      -0.996   1.541  -8.763  0.00  0.00    -0.241 OA
ATOM     24  O   UNL     1       0.699   0.279  -8.618  0.00  0.00    -0.241 OA
ENDBRANCH  16  22
ENDBRANCH   3  11
BRANCH  10  25
ATOM     25  C   UNL     1       1.288  -0.530   2.459  0.00  0.00    +0.200 C 
BRANCH  25  26
ATOM     26  C   UNL     1       0.391  -1.550   3.113  0.00  0.00    +0.228 C 
ATOM     27  O   UNL     1      -0.228  -2.339   2.431  0.00  0.00    -0.274 OA
ATOM     28  N   UNL     1       0.278  -1.585   4.456  0.00  0.00    -0.328 N 
ATOM     29  H   UNL     1       0.773  -0.954   5.001  0.00  0.00    +0.145 HD
ATOM     30  H   UNL     1      -0.299  -2.241   4.877  0.00  0.00    +0.145 HD
ENDBRANCH  25  26
ENDBRANCH  10  25
TORSDOF 4
