REMARK  Name = ZINC21598887
REMARK  3 active torsions:
REMARK  status: ('A' for Active; 'I' for Inactive)
REMARK    1  A    between atoms: C_8  and  C_11
REMARK    2  A    between atoms: N_13  and  C_14
REMARK    3  A    between atoms: C_17  and  C_20
REMARK                            x       y       z     vdW  Elec       q    Type
REMARK                         _______ _______ _______ _____ _____    ______ ____
ROOT
ATOM      1  C   UNL     1      -6.867   1.762   0.850  0.00  0.00    +0.034 A 
ATOM      2  C   UNL     1      -7.051   2.790   1.768  0.00  0.00    +0.024 A 
ATOM      3  C   UNL     1      -8.207   2.849   2.516  0.00  0.00    +0.012 A 
ATOM      4  C   UNL     1      -9.189   1.868   2.359  0.00  0.00    +0.007 A 
ATOM      5  C   UNL     1      -8.998   0.834   1.440  0.00  0.00    +0.012 A 
ATOM      6  C   UNL     1      -7.842   0.784   0.692  0.00  0.00    +0.024 A 
ENDROOT
BRANCH   4   7
ATOM      7  C   UNL     1     -10.427   1.924   3.163  0.00  0.00    +0.109 A 
ATOM      8  N   UNL     1     -10.783   2.810   4.069  0.00  0.00    -0.239 NA
ATOM      9  C   UNL     1     -11.954   2.737   4.731  0.00  0.00    +0.079 A 
ATOM     10  C   UNL     1     -12.455   3.617   5.721  0.00  0.00    +0.029 A 
ATOM     11  C   UNL     1     -13.668   3.400   6.296  0.00  0.00    +0.002 A 
ATOM     12  C   UNL     1     -14.460   2.316   5.942  0.00  0.00    +0.001 A 
ATOM     13  C   UNL     1     -14.007   1.432   4.980  0.00  0.00    +0.017 A 
ATOM     14  C   UNL     1     -12.784   1.642   4.392  0.00  0.00    +0.040 A 
ATOM     15  S   UNL     1     -11.825   0.811   3.149  0.00  0.00    -0.067 S 
ENDBRANCH   4   7
BRANCH   1  18
ATOM     16  C   UNL     1      -5.094   2.850  -0.300  0.00  0.00    +0.258 C 
ATOM     17  O   UNL     1      -5.617   3.921  -0.073  0.00  0.00    -0.271 OA
ATOM     18  N   UNL     1      -5.697   1.710   0.089  0.00  0.00    -0.282 N 
ATOM     19  H   UNL     1      -5.267   0.737  -0.192  0.00  0.00    +0.155 HD
BRANCH  16  27
ATOM     20  C   UNL     1       0.795   3.779  -0.814  0.00  0.00    +0.000 A 
ATOM     21  C   UNL     1       0.339   4.859  -1.548  0.00  0.00    +0.004 A 
ATOM     22  C   UNL     1      -1.013   5.037  -1.757  0.00  0.00    +0.046 A 
ATOM     23  C   UNL     1      -1.930   4.131  -1.231  0.00  0.00    +0.125 A 
ATOM     24  C   UNL     1      -1.459   3.044  -0.506  0.00  0.00    -0.002 A 
ATOM     25  C   UNL     1      -0.109   2.873  -0.291  0.00  0.00    +0.007 A 
ATOM     26  C   UNL     1      -2.668   2.228  -0.092  0.00  0.00    +0.093 C 
ATOM     27  C   UNL     1      -3.770   2.796  -1.018  0.00  0.00    +0.263 C 
ATOM     28  O   UNL     1      -3.290   4.125  -1.300  0.00  0.00    -0.479 OA
ENDBRANCH  16  27
ENDBRANCH   1  18
TORSDOF 3
