REMARK  Name = ZINC35554586
REMARK  5 active torsions:
REMARK  status: ('A' for Active; 'I' for Inactive)
REMARK    1  A    between atoms: C_1  and  C_2
REMARK    2  A    between atoms: C_2  and  C_3
REMARK    3  A    between atoms: C_2  and  C_4
REMARK    4  A    between atoms: C_4  and  N_5
REMARK    5  A    between atoms: C_6  and  C_8
REMARK                            x       y       z     vdW  Elec       q    Type
REMARK                         _______ _______ _______ _____ _____    ______ ____
ROOT
ATOM      1  C   UNL     1      -4.071  -0.066  -2.704  0.00  0.00    +0.101 C 
ATOM      2  C   UNL     1      -3.299  -0.656  -3.882  0.00  0.00    +0.051 C 
ATOM      3  C   UNL     1      -4.047  -0.348  -5.153  0.00  0.00    -0.026 A 
ATOM      4  C   UNL     1      -3.349  -0.211  -6.339  0.00  0.00    +0.005 A 
ATOM      5  C   UNL     1      -4.025   0.082  -7.509  0.00  0.00    +0.000 A 
ATOM      6  C   UNL     1      -5.399   0.239  -7.496  0.00  0.00    +0.002 A 
ATOM      7  C   UNL     1      -6.100   0.098  -6.315  0.00  0.00    +0.023 A 
ATOM      8  C   UNL     1      -5.422  -0.202  -5.136  0.00  0.00    +0.033 A 
ATOM      9  N   UNL     1      -6.167  -0.363  -3.955  0.00  0.00    -0.323 N 
ATOM     10  C   UNL     1      -5.501  -0.616  -2.689  0.00  0.00    +0.103 C 
ATOM     11  C   UNL     1      -6.231  -0.021  -1.496  0.00  0.00    +0.129 C 
ATOM     12  N   UNL     1      -7.671  -0.004  -1.662  0.00  0.00    -0.313 N 
ATOM     13  C   UNL     1      -8.309   0.344  -2.921  0.00  0.00    +0.125 C 
ATOM     14  C   UNL     1      -7.622  -0.321  -4.092  0.00  0.00    +0.124 C 
ATOM     15  C   UNL     1      -8.472  -0.333  -0.575  0.00  0.00    +0.099 A 
ATOM     16  C   UNL     1      -9.854  -0.205  -0.674  0.00  0.00    +0.042 A 
ATOM     17  C   UNL     1     -10.640  -0.536   0.415  0.00  0.00    +0.005 A 
ATOM     18  C   UNL     1     -10.015  -0.986   1.571  0.00  0.00    +0.018 A 
ATOM     19  C   UNL     1      -8.639  -1.089   1.599  0.00  0.00    +0.084 A 
ATOM     20  N   UNL     1      -7.915  -0.771   0.543  0.00  0.00    -0.350 N 
ATOM     21  H   UNL     1      -6.949  -0.857   0.588  0.00  0.00    +0.166 HD
ENDROOT
BRANCH   1  23
ATOM     22  N   UNL     1      -2.106  -0.052  -1.202  0.00  0.00    -0.315 N 
ATOM     23  C   UNL     1      -3.380  -0.435  -1.417  0.00  0.00    +0.218 C 
ATOM     24  O   UNL     1      -3.970  -1.077  -0.574  0.00  0.00    -0.275 OA
ATOM     25  H   UNL     1      -1.634   0.462  -1.876  0.00  0.00    +0.149 HD
BRANCH  22  26
ATOM     26  C   UNL     1      -1.434  -0.411   0.050  0.00  0.00    +0.107 C 
BRANCH  26  28
ATOM     27  C   UNL     1      -0.053   1.671   0.029  0.00  0.00    +0.009 C 
ATOM     28  C   UNL     1      -0.007   0.142   0.039  0.00  0.00    -0.000 C 
ATOM     29  C   UNL     1       0.734  -0.338   1.288  0.00  0.00    +0.009 C 
ENDBRANCH  26  28
ENDBRANCH  22  26
ENDBRANCH   1  23
TORSDOF 3
