REMARK  Name = ZINC20681881
REMARK  7 active torsions:
REMARK  status: ('A' for Active; 'I' for Inactive)
REMARK    1  A    between atoms: C_4  and  C_7
REMARK    2  A    between atoms: C_7  and  C_8
REMARK    3  A    between atoms: C_8  and  N_9
REMARK    4  A    between atoms: C_10  and  C_12
REMARK    5  A    between atoms: C_19  and  C_28
REMARK    6  A    between atoms: C_31  and  O_35
REMARK    7  A    between atoms: C_33  and  O_34
REMARK                            x       y       z     vdW  Elec       q    Type
REMARK                         _______ _______ _______ _____ _____    ______ ____
ROOT
ATOM      1  C   UNL     1       3.633  -2.951  -1.693  0.00  0.00    +0.058 A 
ATOM      2  C   UNL     1       2.772  -4.037  -1.835  0.00  0.00    +0.015 A 
ATOM      3  C   UNL     1       1.473  -3.952  -1.384  0.00  0.00    +0.001 A 
ATOM      4  C   UNL     1       1.027  -2.786  -0.783  0.00  0.00    +0.006 A 
ATOM      5  C   UNL     1       1.866  -1.704  -0.629  0.00  0.00    -0.019 A 
ATOM      6  C   UNL     1       3.185  -1.758  -1.089  0.00  0.00    +0.044 A 
ATOM      7  N   UNL     1       4.080  -0.705  -1.010  0.00  0.00    -0.336 N 
ATOM      8  C   UNL     1       3.625   0.505  -0.306  0.00  0.00    +0.108 C 
ATOM      9  C   UNL     1       2.171   0.715  -0.676  0.00  0.00    +0.029 C 
ATOM     10  C   UNL     1       1.414  -0.456   0.024  0.00  0.00    +0.049 C 
ATOM     11  C   UNL     1       0.002  -0.004   0.002  0.00  0.00    -0.023 C 
ATOM     12  C   UNL     1      -0.016   1.325   0.009  0.00  0.00    -0.030 C 
ATOM     13  C   UNL     1       1.416   1.866  -0.001  0.00  0.00    +0.033 C 
ATOM     14  H   UNL     1       5.090  -0.741  -1.444  0.00  0.00    +0.147 HD
ENDROOT
BRANCH   8  15
ATOM     15  C   UNL     1       4.444   1.692  -0.743  0.00  0.00    +0.015 A 
ATOM     16  C   UNL     1       5.058   1.690  -1.980  0.00  0.00    +0.012 A 
ATOM     17  C   UNL     1       5.809   2.777  -2.384  0.00  0.00    +0.046 A 
ATOM     18  C   UNL     1       5.948   3.875  -1.547  0.00  0.00    +0.120 A 
ATOM     19  C   UNL     1       5.332   3.880  -0.305  0.00  0.00    +0.091 A 
ATOM     20  C   UNL     1       4.575   2.790   0.096  0.00  0.00    +0.125 A 
BRANCH  20  21
ATOM     21  O   UNL     1       3.966   2.794   1.310  0.00  0.00    -0.506 OA
ATOM     22  H   UNL     1       4.070   3.665   1.975  0.00  0.00    +0.292 HD
ENDBRANCH  20  21
BRANCH  18  23
ATOM     23  O   UNL     1       6.686   4.944  -1.944  0.00  0.00    -0.507 OA
ATOM     24  H   UNL     1       6.796   5.814  -1.280  0.00  0.00    +0.292 HD
ENDBRANCH  18  23
ENDBRANCH   8  15
BRANCH   1  26
ATOM     25  N   UNL     1       5.454  -4.187  -2.756  0.00  0.00    -0.311 N 
ATOM     26  C   UNL     1       5.022  -3.050  -2.178  0.00  0.00    +0.246 C 
ATOM     27  O   UNL     1       5.777  -2.104  -2.056  0.00  0.00    -0.270 OA
ATOM     28  H   UNL     1       4.771  -5.043  -2.867  0.00  0.00    +0.149 HD
BRANCH  25  29
ATOM     29  C   UNL     1       6.834  -4.285  -3.238  0.00  0.00    +0.109 C 
BRANCH  29  30
ATOM     30  C   UNL     1       7.065  -5.670  -3.847  0.00  0.00    +0.054 C 
BRANCH  30  34
ATOM     31  C   UNL     1      11.089  -5.956  -5.252  0.00  0.00    +0.000 A 
ATOM     32  C   UNL     1      10.782  -6.323  -3.955  0.00  0.00    +0.000 A 
ATOM     33  C   UNL     1       9.480  -6.230  -3.500  0.00  0.00    +0.004 A 
ATOM     34  C   UNL     1       8.485  -5.771  -4.342  0.00  0.00    -0.046 A 
ATOM     35  C   UNL     1       8.790  -5.410  -5.641  0.00  0.00    +0.004 A 
ATOM     36  C   UNL     1      10.094  -5.497  -6.094  0.00  0.00    +0.000 A 
ENDBRANCH  30  34
ENDBRANCH  29  30
ENDBRANCH  25  29
ENDBRANCH   1  26
TORSDOF 7
