REMARK  Name = ZINC45342463
REMARK  12 active torsions:
REMARK  status: ('A' for Active; 'I' for Inactive)
REMARK    1  A    between atoms: C_1  and  C_2
REMARK    2  A    between atoms: C_2  and  C_3
REMARK    3  A    between atoms: C_3  and  N_4
REMARK    4  A    between atoms: C_8  and  S_31
REMARK    5  A    between atoms: C_12  and  S_13
REMARK    6  A    between atoms: S_13  and  C_14
REMARK    7  A    between atoms: C_14  and  C_16
REMARK    8  A    between atoms: C_14  and  C_17
REMARK    9  A    between atoms: N_19  and  C_20
REMARK   10  A    between atoms: C_25  and  C_30
REMARK   11  A    between atoms: C_27  and  C_29
REMARK   12  A    between atoms: S_31  and  N_34
REMARK                            x       y       z     vdW  Elec       q    Type
REMARK                         _______ _______ _______ _____ _____    ______ ____
ROOT
ATOM      1  N   UNL     1       0.738  -1.962  -1.265  0.00  0.00    -0.319 N 
ATOM      2  C   UNL     1       1.718  -2.774  -0.716  0.00  0.00    +0.070 A 
ATOM      3  C   UNL     1       2.901  -2.527  -0.037  0.00  0.00    +0.030 A 
ATOM      4  C   UNL     1       3.679  -3.582   0.394  0.00  0.00    +0.030 A 
ATOM      5  C   UNL     1       3.285  -4.890   0.151  0.00  0.00    +0.107 A 
ATOM      6  C   UNL     1       2.113  -5.154  -0.522  0.00  0.00    +0.058 A 
ATOM      7  C   UNL     1       1.314  -4.096  -0.964  0.00  0.00    +0.092 A 
ATOM      8  N   UNL     1       0.135  -4.035  -1.637  0.00  0.00    -0.222 NA
ATOM      9  C   UNL     1      -0.209  -2.783  -1.810  0.00  0.00    +0.171 A 
ENDROOT
BRANCH   5  10
ATOM     10  S   UNL     1       4.293  -6.224   0.708  0.00  0.00    +0.056 S 
ATOM     11  O   UNL     1       3.984  -7.338  -0.118  0.00  0.00    -0.153 OA
ATOM     12  O   UNL     1       5.612  -5.712   0.834  0.00  0.00    -0.153 OA
BRANCH  10  13
ATOM     13  N   UNL     1       3.788  -6.614   2.236  0.00  0.00    -0.204 NA
ATOM     14  H   UNL     1       3.058  -6.123   2.646  0.00  0.00    +0.144 HD
ATOM     15  H   UNL     1       4.222  -7.332   2.722  0.00  0.00    +0.144 HD
ENDBRANCH  10  13
ENDBRANCH   5  10
BRANCH   1  16
ATOM     16  C   UNL     1       0.718  -0.497  -1.257  0.00  0.00    +0.124 C 
BRANCH  16  18
ATOM     17  C   UNL     1      -0.019   1.526   0.010  0.00  0.00    +0.005 C 
ATOM     18  C   UNL     1       0.002  -0.004   0.002  0.00  0.00    +0.018 C 
ENDBRANCH  16  18
ENDBRANCH   1  16
BRANCH   9  19
ATOM     19  S   UNL     1      -1.671  -2.238  -2.628  0.00  0.00    -0.075 S 
BRANCH  19  20
ATOM     20  C   UNL     1      -2.500  -3.776  -3.115  0.00  0.00    +0.137 C 
ATOM     21  C   UNL     1      -1.639  -4.516  -4.141  0.00  0.00    +0.029 C 
BRANCH  20  22
ATOM     22  C   UNL     1      -3.840  -3.453  -3.725  0.00  0.00    +0.226 C 
ATOM     23  O   UNL     1      -4.029  -2.369  -4.236  0.00  0.00    -0.275 OA
ATOM     24  N   UNL     1      -4.829  -4.368  -3.702  0.00  0.00    -0.311 N 
ATOM     25  H   UNL     1      -4.678  -5.235  -3.294  0.00  0.00    +0.149 HD
BRANCH  24  26
ATOM     26  C   UNL     1      -6.132  -4.054  -4.295  0.00  0.00    +0.076 C 
ATOM     27  C   UNL     1      -6.093  -4.348  -5.796  0.00  0.00    +0.022 C 
ATOM     28  C   UNL     1      -7.454  -4.020  -6.415  0.00  0.00    +0.002 C 
ATOM     29  C   UNL     1      -8.535  -4.878  -5.754  0.00  0.00    +0.003 C 
ATOM     30  C   UNL     1      -8.573  -4.585  -4.253  0.00  0.00    -0.009 C 
ATOM     31  C   UNL     1      -7.213  -4.913  -3.635  0.00  0.00    +0.009 C 
ATOM     32  C   UNL     1      -7.251  -4.619  -2.134  0.00  0.00    +0.009 C 
ATOM     33  C   UNL     1      -8.891  -3.105  -4.031  0.00  0.00    +0.008 C 
ENDBRANCH  24  26
ENDBRANCH  20  22
ENDBRANCH  19  20
ENDBRANCH   9  19
TORSDOF 8
