REMARK  Name = ZINC06407447
REMARK  8 active torsions:
REMARK  status: ('A' for Active; 'I' for Inactive)
REMARK    1  A    between atoms: C_1  and  C_2
REMARK    2  A    between atoms: C_5  and  S_9
REMARK    3  A    between atoms: S_9  and  N_12
REMARK    4  A    between atoms: N_12  and  C_13
REMARK    5  A    between atoms: N_12  and  C_28
REMARK    6  A    between atoms: C_13  and  C_14
REMARK    7  A    between atoms: C_18  and  C_27
REMARK    8  A    between atoms: C_20  and  C_26
REMARK                            x       y       z     vdW  Elec       q    Type
REMARK                         _______ _______ _______ _____ _____    ______ ____
ROOT
ATOM      1  N   UNL     1      -3.232   4.101  -1.371  0.00  0.00    -0.169 NA
ENDROOT
BRANCH   1   2
ATOM      2  C   UNL     1      -3.107   5.532  -1.662  0.00  0.00    +0.080 C 
ATOM      3  C   UNL     1      -4.493   6.207  -1.597  0.00  0.00    +0.020 C 
ATOM      4  C   UNL     1      -4.457   7.258  -2.734  0.00  0.00    +0.002 C 
ATOM      5  C   UNL     1      -3.673   6.526  -3.852  0.00  0.00    +0.002 C 
ATOM      6  C   UNL     1      -2.586   5.734  -3.096  0.00  0.00    +0.020 C 
ENDBRANCH   1   2
BRANCH   1   7
ATOM      7  S   UNL     1      -2.535   3.470  -0.008  0.00  0.00    +0.061 S 
ATOM      8  O   UNL     1      -3.252   2.283   0.302  0.00  0.00    -0.153 OA
ATOM      9  O   UNL     1      -2.402   4.543   0.914  0.00  0.00    -0.153 OA
BRANCH   7  14
ATOM     10  C   UNL     1       3.060   1.765  -1.493  0.00  0.00    +0.045 C 
ATOM     11  C   UNL     1       1.663   2.191  -1.122  0.00  0.00    -0.032 A 
ATOM     12  C   UNL     1       0.613   1.300  -1.246  0.00  0.00    +0.007 A 
ATOM     13  C   UNL     1      -0.669   1.693  -0.911  0.00  0.00    +0.029 A 
ATOM     14  C   UNL     1      -0.901   2.973  -0.441  0.00  0.00    +0.107 A 
ATOM     15  C   UNL     1       0.148   3.864  -0.317  0.00  0.00    +0.048 A 
ATOM     16  C   UNL     1       1.431   3.473  -0.657  0.00  0.00    +0.046 A 
ATOM     17 CL   UNL     1       2.750   4.592  -0.502  0.00  0.00    -0.083 Cl
ENDBRANCH   7  14
ENDBRANCH   1   7
BRANCH   1  18
ATOM     18  C   UNL     1      -3.973   3.230  -2.286  0.00  0.00    +0.150 C 
BRANCH  18  19
ATOM     19  C   UNL     1      -5.448   3.517  -2.170  0.00  0.00    +0.033 A 
ATOM     20  C   UNL     1      -6.094   4.151  -3.179  0.00  0.00    +0.020 A 
ATOM     21  C   UNL     1      -7.527   4.415  -3.035  0.00  0.00    -0.001 A 
ATOM     22  C   UNL     1      -8.248   5.065  -4.043  0.00  0.00    +0.013 A 
ATOM     23  C   UNL     1      -9.584   5.296  -3.878  0.00  0.00    -0.050 A 
ATOM     24  C   UNL     1     -10.233   4.893  -2.719  0.00  0.00    +0.008 A 
ATOM     25  C   UNL     1      -9.543   4.252  -1.713  0.00  0.00    -0.026 A 
ATOM     26  C   UNL     1      -8.182   4.005  -1.858  0.00  0.00    +0.052 A 
ATOM     27  N   UNL     1      -7.467   3.365  -0.869  0.00  0.00    -0.322 N 
ATOM     28  H   UNL     1      -7.920   3.083  -0.059  0.00  0.00    +0.169 HD
ATOM     29  C   UNL     1      -6.152   3.121  -1.012  0.00  0.00    +0.254 A 
ATOM     30  O   UNL     1      -5.553   2.549  -0.119  0.00  0.00    -0.268 OA
ATOM     31  C   UNL     1     -10.260   3.819  -0.460  0.00  0.00    +0.046 C 
ATOM     32  C   UNL     1     -10.360   5.997  -4.963  0.00  0.00    +0.044 C 
ENDBRANCH  18  19
ENDBRANCH   1  18
TORSDOF 5
