REMARK  Name = ZINC11866177
REMARK  11 active torsions:
REMARK  status: ('A' for Active; 'I' for Inactive)
REMARK    1  A    between atoms: C_1  and  C_2
REMARK    2  A    between atoms: C_7  and  C_8
REMARK    3  A    between atoms: C_7  and  N_61
REMARK    4  A    between atoms: C_9  and  O_31
REMARK    5  A    between atoms: C_16  and  C_17
REMARK    6  A    between atoms: C_20  and  O_27
REMARK    7  A    between atoms: C_21  and  O_25
REMARK    8  A    between atoms: C_22  and  O_23
REMARK    9  A    between atoms: O_23  and  C_24
REMARK   10  A    between atoms: O_25  and  C_26
REMARK   11  A    between atoms: O_27  and  C_28
REMARK                            x       y       z     vdW  Elec       q    Type
REMARK                         _______ _______ _______ _____ _____    ______ ____
ROOT
ATOM      1  C   UNL     1       0.476   2.057  -4.378  0.00  0.00    +0.020 A 
ATOM      2  C   UNL     1      -0.492   1.163  -4.808  0.00  0.00    +0.122 A 
ATOM      3  C   UNL     1      -1.259   1.438  -5.936  0.00  0.00    +0.046 A 
ATOM      4  C   UNL     1      -1.056   2.593  -6.639  0.00  0.00    +0.019 A 
ATOM      5  C   UNL     1      -0.083   3.499  -6.220  0.00  0.00    +0.068 A 
ATOM      6  C   UNL     1       0.694   3.235  -5.080  0.00  0.00    +0.144 A 
ATOM      7  O   UNL     1       1.562   4.249  -4.877  0.00  0.00    -0.451 OA
ATOM      8  C   UNL     1       1.437   5.216  -5.817  0.00  0.00    +0.176 C 
ATOM      9  C   UNL     1       2.162   6.363  -5.891  0.00  0.00    +0.062 C 
ATOM     10  C   UNL     1       0.374   4.801  -6.741  0.00  0.00    +0.231 C 
ATOM     11  O   UNL     1      -0.038   5.399  -7.720  0.00  0.00    -0.283 OA
ENDROOT
BRANCH   9  12
ATOM     12  C   UNL     1       3.085   6.717  -4.809  0.00  0.00    +0.024 A 
ATOM     13  C   UNL     1       3.498   5.743  -3.888  0.00  0.00    +0.015 A 
ATOM     14  C   UNL     1       4.364   6.079  -2.874  0.00  0.00    +0.050 A 
ATOM     15  C   UNL     1       4.836   7.383  -2.757  0.00  0.00    +0.165 A 
ATOM     16  C   UNL     1       4.435   8.358  -3.663  0.00  0.00    +0.204 A 
ATOM     17  C   UNL     1       3.566   8.033  -4.693  0.00  0.00    +0.172 A 
BRANCH  17  18
ATOM     18  O   UNL     1       3.177   8.982  -5.583  0.00  0.00    -0.491 OA
ATOM     19  C   UNL     1       2.003   9.730  -5.262  0.00  0.00    +0.277 C 
ENDBRANCH  17  18
BRANCH  16  20
ATOM     20  O   UNL     1       4.901   9.632  -3.542  0.00  0.00    -0.488 OA
ATOM     21  C   UNL     1       6.111   9.948  -4.234  0.00  0.00    +0.277 C 
ENDBRANCH  16  20
BRANCH  15  22
ATOM     22  O   UNL     1       5.692   7.704  -1.752  0.00  0.00    -0.491 OA
ATOM     23  C   UNL     1       6.063   6.654  -0.855  0.00  0.00    +0.277 C 
ENDBRANCH  15  22
ENDBRANCH   9  12
BRANCH   2  24
ATOM     24  O   UNL     1      -0.696   0.010  -4.120  0.00  0.00    -0.506 OA
ATOM     25  H   UNL     1      -1.356   0.084  -3.417  0.00  0.00    +0.292 HD
ENDBRANCH   2  24
BRANCH   1  26
ATOM     26  C   UNL     1       1.295   1.748  -3.151  0.00  0.00    -0.036 C 
BRANCH  26  33
ATOM     27  C   UNL     1      -1.516   2.952   1.678  0.00  0.00    +0.007 C 
ATOM     28  C   UNL     1      -0.870   2.209   0.507  0.00  0.00    -0.018 C 
ATOM     29  C   UNL     1      -1.502   2.676  -0.807  0.00  0.00    -0.016 C 
ATOM     30  C   UNL     1      -0.811   1.973  -1.978  0.00  0.00    -0.078 C 
ATOM     31  C   UNL     1       1.261   1.811  -0.732  0.00  0.00    -0.078 C 
ATOM     32  C   UNL     1       0.631   2.509   0.476  0.00  0.00    -0.016 C 
ATOM     33  N   UNL     1       0.626   2.321  -1.965  0.00  0.00    +0.383 N 
ATOM     34  H   UNL     1       0.722   3.343  -1.991  0.00  0.00    -0.081 HD
ENDBRANCH  26  33
ENDBRANCH   1  26
TORSDOF 7
