REMARK  Name = ZINC14655765
REMARK  9 active torsions:
REMARK  status: ('A' for Active; 'I' for Inactive)
REMARK    1  A    between atoms: C_1  and  C_2
REMARK    2  A    between atoms: C_2  and  O_3
REMARK    3  A    between atoms: O_3  and  C_4
REMARK    4  A    between atoms: C_9  and  C_10
REMARK    5  A    between atoms: N_12  and  C_13
REMARK    6  A    between atoms: C_13  and  N_15
REMARK    7  A    between atoms: N_15  and  N_16
REMARK    8  A    between atoms: C_17  and  C_19
REMARK    9  A    between atoms: C_19  and  C_20
REMARK                            x       y       z     vdW  Elec       q    Type
REMARK                         _______ _______ _______ _____ _____    ______ ____
ROOT
ATOM      1  N   UNL     1       3.512   7.343   0.006  0.00  0.00    -0.246 N 
ATOM      2  H   UNL     1       4.342   7.846   0.000  0.00  0.00    +0.172 HD
ENDROOT
BRANCH   1   3
ATOM      3  N   UNL     1       2.284   8.018   0.021  0.00  0.00    -0.235 N 
ATOM      4  C   UNL     1       2.256   9.365   0.028  0.00  0.00    +0.233 C 
ATOM      5  O   UNL     1       3.293   9.994   0.021  0.00  0.00    -0.274 OA
ATOM      6  H   UNL     1       1.455   7.515   0.027  0.00  0.00    +0.173 HD
BRANCH   4   7
ATOM      7  C   UNL     1       0.935  10.091   0.045  0.00  0.00    +0.133 C 
BRANCH   7   8
ATOM      8  C   UNL     1       1.180  11.578   0.050  0.00  0.00    -0.031 A 
ATOM      9  C   UNL     1       1.201  12.264   1.225  0.00  0.00    +0.005 A 
ATOM     10  C   UNL     1       1.425  13.639   1.250  0.00  0.00    +0.001 A 
ATOM     11  C   UNL     1       1.630  14.336   0.099  0.00  0.00    +0.008 A 
ATOM     12  C   UNL     1       1.616  13.663  -1.134  0.00  0.00    -0.018 A 
ATOM     13  C   UNL     1       1.393  12.263  -1.159  0.00  0.00    -0.014 A 
ATOM     14  C   UNL     1       1.374  11.590  -2.392  0.00  0.00    +0.009 A 
ATOM     15  C   UNL     1       1.578  12.287  -3.543  0.00  0.00    +0.001 A 
ATOM     16  C   UNL     1       1.802  13.663  -3.518  0.00  0.00    +0.001 A 
ATOM     17  C   UNL     1       1.823  14.349  -2.343  0.00  0.00    +0.008 A 
ENDBRANCH   7   8
ENDBRANCH   4   7
ENDBRANCH   1   3
BRANCH   1  18
ATOM     18  C   UNL     1       3.540   5.996  -0.001  0.00  0.00    +0.153 C 
ATOM     19  S   UNL     1       5.041   5.171  -0.020  0.00  0.00    -0.017 S 
BRANCH  18  22
ATOM     20  C   UNL     1       2.416   3.950  -0.001  0.00  0.00    +0.253 C 
ATOM     21  O   UNL     1       3.481   3.365  -0.014  0.00  0.00    -0.270 OA
ATOM     22  N   UNL     1       2.388   5.298   0.006  0.00  0.00    -0.263 N 
ATOM     23  H   UNL     1       1.538   5.765   0.017  0.00  0.00    +0.157 HD
BRANCH  20  29
ATOM     24  C   UNL     1       1.180   1.785   0.000  0.00  0.00    +0.133 A 
ATOM     25  C   UNL     1      -0.013   1.076   0.008  0.00  0.00    +0.047 A 
ATOM     26  C   UNL     1      -1.218   1.749   0.017  0.00  0.00    +0.019 A 
ATOM     27  C   UNL     1      -1.247   3.135   0.030  0.00  0.00    +0.019 A 
ATOM     28  C   UNL     1      -0.072   3.855   0.022  0.00  0.00    +0.032 A 
ATOM     29  C   UNL     1       1.155   3.186   0.008  0.00  0.00    +0.080 A 
ATOM     30 BR   UNL     1      -2.907   4.041   0.050  0.00  0.00    -0.050 Br
BRANCH  24  31
ATOM     31  O   UNL     1       2.365   1.124  -0.015  0.00  0.00    -0.491 OA
BRANCH  31  33
ATOM     32  C   UNL     1       3.734  -0.867  -0.038  0.00  0.00    +0.048 C 
ATOM     33  C   UNL     1       2.312  -0.304  -0.022  0.00  0.00    +0.226 C 
ENDBRANCH  31  33
ENDBRANCH  24  31
ENDBRANCH  20  29
ENDBRANCH  18  22
ENDBRANCH   1  18
TORSDOF 8
