REMARK  Name = ZINC39577582
REMARK  6 active torsions:
REMARK  status: ('A' for Active; 'I' for Inactive)
REMARK    1  A    between atoms: C_1  and  C_2
REMARK    2  A    between atoms: C_5  and  C_8
REMARK    3  A    between atoms: C_8  and  C_26
REMARK    4  A    between atoms: N_9  and  N_10
REMARK    5  A    between atoms: C_11  and  C_13
REMARK    6  A    between atoms: C_16  and  C_19
REMARK                            x       y       z     vdW  Elec       q    Type
REMARK                         _______ _______ _______ _____ _____    ______ ____
ROOT
ATOM      1  N   UNL     1       0.074  -6.271  -1.186  0.00  0.00    -0.205 N 
ATOM      2  C   UNL     1       0.083  -6.952  -2.349  0.00  0.00    +0.263 C 
ATOM      3  O   UNL     1       0.079  -6.353  -3.404  0.00  0.00    -0.271 OA
ATOM      4  H   UNL     1       0.077  -6.750  -0.343  0.00  0.00    +0.177 HD
ENDROOT
BRANCH   2   5
ATOM      5  C   UNL     1       0.098  -8.459  -2.339  0.00  0.00    +0.240 C 
ATOM      6  C   UNL     1      -1.305  -9.008  -2.148  0.00  0.00    +0.041 C 
ATOM      7  C   UNL     1      -1.531  -9.714  -3.273  0.00  0.00    +0.093 C 
ATOM      8  N   UNL     1      -0.451  -9.653  -4.096  0.00  0.00    -0.153 NA
ATOM      9  N   UNL     1       0.491  -8.984  -3.657  0.00  0.00    -0.170 NA
BRANCH   7  10
ATOM     10  C   UNL     1      -2.781 -10.454  -3.571  0.00  0.00    +0.020 A 
ATOM     11  C   UNL     1      -3.782 -10.553  -2.607  0.00  0.00    +0.011 A 
ATOM     12  C   UNL     1      -4.944 -11.243  -2.889  0.00  0.00    +0.001 A 
ATOM     13  C   UNL     1      -5.117 -11.835  -4.128  0.00  0.00    +0.001 A 
ATOM     14  C   UNL     1      -4.127 -11.741  -5.089  0.00  0.00    +0.020 A 
ATOM     15  C   UNL     1      -2.962 -11.049  -4.820  0.00  0.00    +0.050 A 
ATOM     16 CL   UNL     1      -1.724 -10.925  -6.030  0.00  0.00    -0.083 Cl
ENDBRANCH   7  10
ENDBRANCH   2   5
BRANCH   1  18
ATOM     17  C   UNL     1       0.051  -4.213  -0.076  0.00  0.00    +0.063 C 
ATOM     18  N   UNL     1       0.060  -4.870  -1.196  0.00  0.00    -0.184 NA
ATOM     19  C   UNL     1       0.056  -4.958   1.234  0.00  0.00    +0.068 C 
BRANCH  17  24
ATOM     20  C   UNL     1      -0.009   1.538  -0.115  0.00  0.00    +0.044 C 
ATOM     21  C   UNL     1       0.007   0.031  -0.105  0.00  0.00    -0.050 A 
ATOM     22  C   UNL     1       0.017  -0.666  -1.301  0.00  0.00    +0.004 A 
ATOM     23  C   UNL     1       0.032  -2.045  -1.299  0.00  0.00    +0.010 A 
ATOM     24  C   UNL     1       0.036  -2.739  -0.086  0.00  0.00    -0.003 A 
ATOM     25  C   UNL     1       0.026  -2.029   1.117  0.00  0.00    +0.010 A 
ATOM     26  C   UNL     1       0.017  -0.650   1.100  0.00  0.00    +0.004 A 
ENDBRANCH  17  24
ENDBRANCH   1  18
TORSDOF 4
