REMARK  Name = ZINC16611384
REMARK  13 active torsions:
REMARK  status: ('A' for Active; 'I' for Inactive)
REMARK    1  A    between atoms: C_1  and  C_2
REMARK    2  A    between atoms: C_2  and  CA_3
REMARK    3  A    between atoms: CA_3  and  C_5
REMARK    4  A    between atoms: CA_3  and  N_50
REMARK    5  A    between atoms: C_5  and  O_6
REMARK    6  A    between atoms: C_7  and  C_8
REMARK    7  A    between atoms: C_7  and  N_50
REMARK    8  A    between atoms: C_10  and  O_25
REMARK    9  A    between atoms: C_11  and  O_15
REMARK   10  A    between atoms: O_15  and  C_16
REMARK   11  A    between atoms: C_16  and  C_17
REMARK   12  A    between atoms: O_25  and  C_26
REMARK   13  A    between atoms: C_26  and  C_27
REMARK                            x       y       z     vdW  Elec       q    Type
REMARK                         _______ _______ _______ _____ _____    ______ ____
ROOT
ATOM      1  C   UNL     1       5.556  -2.834  -0.068  0.00  0.00    -0.059 A 
ATOM      2  C   UNL     1       4.994  -2.415  -1.260  0.00  0.00    +0.051 A 
ATOM      3  C   UNL     1       3.881  -1.591  -1.249  0.00  0.00    +0.164 A 
ATOM      4  C   UNL     1       3.337  -1.176  -0.037  0.00  0.00    +0.181 A 
ATOM      5  C   UNL     1       3.905  -1.598   1.154  0.00  0.00    +0.086 A 
ATOM      6  C   UNL     1       5.014  -2.426   1.136  0.00  0.00    +0.025 A 
ATOM      7 CL   UNL     1       3.227  -1.088   2.669  0.00  0.00    -0.080 Cl
ENDROOT
BRANCH   1   8
ATOM      8  C   UNL     1       6.763  -3.736  -0.082  0.00  0.00    -0.046 C 
BRANCH   8   9
ATOM      9  N   UNL     1       6.316  -5.141  -0.085  0.00  0.00    +0.385 N 
ATOM     10  H1  UNL     1       5.757  -5.321   0.758  0.00  0.00    -0.085 HD
ATOM     11  H2  UNL     1       5.743  -5.313  -0.919  0.00  0.00    -0.085 HD
BRANCH   9  12
ATOM     12  CA  UNL     1       7.479  -6.049  -0.098  0.00  0.00    -0.046 C 
BRANCH  12  14
ATOM     13  C   UNL     1       6.727  -7.202   1.986  0.00  0.00    +0.002 C 
ATOM     14  C   UNL     1       7.074  -7.394   0.509  0.00  0.00    -0.017 C 
ENDBRANCH  12  14
BRANCH  12  15
ATOM     15  C   UNL     1       7.946  -6.260  -1.540  0.00  0.00    +0.140 C 
BRANCH  15  16
ATOM     16  O   UNL     1       6.924  -6.933  -2.278  0.00  0.00    -0.397 OA
ATOM     17  H   UNL     1       7.151  -7.100  -3.202  0.00  0.00    +0.209 HD
ENDBRANCH  15  16
ENDBRANCH  12  15
ENDBRANCH   9  12
ENDBRANCH   8   9
ENDBRANCH   1   8
BRANCH   4  18
ATOM     18  O   UNL     1       2.248  -0.361  -0.022  0.00  0.00    -0.482 OA
BRANCH  18  19
ATOM     19  C   UNL     1       2.490   1.047  -0.017  0.00  0.00    +0.266 C 
BRANCH  19  20
ATOM     20  C   UNL     1       1.175   1.783   0.000  0.00  0.00    +0.008 A 
ATOM     21  C   UNL     1      -0.013   1.076   0.008  0.00  0.00    +0.010 A 
ATOM     22  C   UNL     1      -1.219   1.750   0.017  0.00  0.00    +0.020 A 
ATOM     23  C   UNL     1      -1.238   3.134   0.031  0.00  0.00    +0.042 A 
ATOM     24  C   UNL     1      -0.050   3.842   0.023  0.00  0.00    +0.040 A 
ATOM     25  C   UNL     1       1.157   3.166   0.008  0.00  0.00    +0.049 A 
ATOM     26 CL   UNL     1       2.649   4.054  -0.001  0.00  0.00    -0.083 Cl
ATOM     27 CL   UNL     1      -2.753   3.981   0.050  0.00  0.00    -0.083 Cl
ENDBRANCH  19  20
ENDBRANCH  18  19
ENDBRANCH   4  18
BRANCH   3  28
ATOM     28  O   UNL     1       3.323  -1.184  -2.421  0.00  0.00    -0.489 OA
BRANCH  28  29
ATOM     29  C   UNL     1       3.934  -1.649  -3.626  0.00  0.00    +0.226 C 
ATOM     30  C   UNL     1       3.174  -1.091  -4.831  0.00  0.00    +0.048 C 
ENDBRANCH  28  29
ENDBRANCH   3  28
TORSDOF 11
