REMARK  Name = ZINC08655416
REMARK  7 active torsions:
REMARK  status: ('A' for Active; 'I' for Inactive)
REMARK    1  A    between atoms: C_4  and  C_7
REMARK    2  A    between atoms: C_8  and  C_9
REMARK    3  A    between atoms: C_9  and  C_10
REMARK    4  A    between atoms: C_9  and  N_12
REMARK    5  A    between atoms: C_9  and  N_20
REMARK    6  A    between atoms: N_12  and  C_13
REMARK    7  A    between atoms: N_20  and  O_21
REMARK                            x       y       z     vdW  Elec       q    Type
REMARK                         _______ _______ _______ _____ _____    ______ ____
ROOT
ATOM      1  C   UNL     1      -1.369   1.199  -0.279  0.00  0.00    +0.213 C 
ENDROOT
BRANCH   1   3
ATOM      2  C   UNL     1      -2.509   3.117  -1.303  0.00  0.00    +0.008 C 
ATOM      3  C   UNL     1      -1.370   2.476  -1.080  0.00  0.00    +0.032 C 
BRANCH   2   7
ATOM      4  C   UNL     1      -6.003   2.057   0.866  0.00  0.00    +0.000 A 
ATOM      5  C   UNL     1      -4.796   2.189   1.528  0.00  0.00    +0.001 A 
ATOM      6  C   UNL     1      -3.657   2.534   0.829  0.00  0.00    +0.008 A 
ATOM      7  C   UNL     1      -3.725   2.748  -0.548  0.00  0.00    -0.025 A 
ATOM      8  C   UNL     1      -4.947   2.618  -1.209  0.00  0.00    +0.008 A 
ATOM      9  C   UNL     1      -6.077   2.268  -0.499  0.00  0.00    +0.001 A 
ENDBRANCH   2   7
ENDBRANCH   1   3
BRANCH   1  10
ATOM     10  C   UNL     1      -1.029   1.499   1.121  0.00  0.00    +0.111 C 
ATOM     11  N   UNL     1      -0.766   1.731   2.202  0.00  0.00    -0.192 NA
ENDBRANCH   1  10
BRANCH   1  12
ATOM     12  N   UNL     1      -0.378   0.275  -0.835  0.00  0.00    -0.310 N 
ATOM     13  H   UNL     1      -0.666  -0.556  -1.245  0.00  0.00    +0.149 HD
BRANCH  12  14
ATOM     14  C   UNL     1       0.981   0.592  -0.780  0.00  0.00    +0.031 A 
ATOM     15  C   UNL     1       1.388   1.831  -0.301  0.00  0.00    +0.023 A 
ATOM     16  C   UNL     1       2.733   2.140  -0.242  0.00  0.00    +0.003 A 
ATOM     17  C   UNL     1       3.674   1.222  -0.670  0.00  0.00    +0.020 A 
ATOM     18  C   UNL     1       3.273  -0.011  -1.153  0.00  0.00    +0.043 A 
ATOM     19  C   UNL     1       1.929  -0.328  -1.209  0.00  0.00    +0.043 A 
ATOM     20 CL   UNL     1       4.458  -1.161  -1.688  0.00  0.00    -0.083 Cl
ENDBRANCH  12  14
ENDBRANCH   1  12
BRANCH   1  21
ATOM     21  N   UNL     1      -2.701   0.583  -0.338  0.00  0.00    -0.164 NA
ATOM     22  H   UNL     1      -2.772  -0.187   0.311  0.00  0.00    +0.157 HD
BRANCH  21  23
ATOM     23  O   UNL     1      -3.019   0.151  -1.699  0.00  0.00    -0.312 OA
ATOM     24  H   UNL     1      -3.916  -0.196  -1.802  0.00  0.00    +0.236 HD
ENDBRANCH  21  23
ENDBRANCH   1  21
TORSDOF 7
