REMARK  Name = ZINC24656187
REMARK  6 active torsions:
REMARK  status: ('A' for Active; 'I' for Inactive)
REMARK    1  A    between atoms: C_1  and  C_2
REMARK    2  A    between atoms: C_7  and  C_26
REMARK    3  A    between atoms: N_12  and  C_16
REMARK    4  A    between atoms: C_16  and  N_17
REMARK    5  A    between atoms: N_17  and  C_18
REMARK    6  A    between atoms: N_17  and  C_23
REMARK                            x       y       z     vdW  Elec       q    Type
REMARK                         _______ _______ _______ _____ _____    ______ ____
ROOT
ATOM      1  C   UNL     1       6.323  -4.098  -0.883  0.00  0.00    +0.010 C 
ATOM      2  C   UNL     1       6.736  -3.301  -2.122  0.00  0.00    +0.019 C 
ATOM      3  C   UNL     1       8.209  -3.576  -2.437  0.00  0.00    +0.006 C 
ATOM      4  C   UNL     1       8.627  -2.763  -3.664  0.00  0.00    +0.001 C 
ATOM      5  C   UNL     1       8.446  -1.272  -3.376  0.00  0.00    +0.006 C 
ATOM      6  C   UNL     1       6.974  -0.988  -3.064  0.00  0.00    +0.019 C 
ATOM      7  C   UNL     1       6.542  -1.812  -1.857  0.00  0.00    +0.118 C 
ATOM      8  C   UNL     1       5.099  -1.527  -1.507  0.00  0.00    +0.245 C 
ATOM      9  O   UNL     1       4.124  -1.716  -2.203  0.00  0.00    -0.273 OA
ATOM     10  N   UNL     1       5.125  -1.015  -0.259  0.00  0.00    -0.241 N 
ATOM     11  C   UNL     1       6.373  -0.949   0.220  0.00  0.00    +0.308 C 
ATOM     12  O   UNL     1       6.651  -0.527   1.326  0.00  0.00    -0.252 OA
ATOM     13  N   UNL     1       7.287  -1.401  -0.660  0.00  0.00    -0.284 N 
ATOM     14  C   UNL     1       6.116  -1.365  -4.273  0.00  0.00    +0.010 C 
ATOM     15  H   UNL     1       8.382  -1.503  -0.632  0.00  0.00    +0.151 HD
ENDROOT
BRANCH  10  16
ATOM     16  C   UNL     1       3.935  -0.592   0.482  0.00  0.00    +0.043 C 
BRANCH  16  17
ATOM     17  N   UNL     1       3.962   0.866   0.660  0.00  0.00    +0.394 N 
ATOM     18  H   UNL     1       5.014   1.180   0.721  0.00  0.00    -0.079 HD
BRANCH  17  19
ATOM     19  C   UNL     1       3.354   1.548  -0.491  0.00  0.00    -0.066 C 
ATOM     20  C   UNL     1       3.620   3.073  -0.428  0.00  0.00    -0.015 C 
ATOM     21  C   UNL     1       3.499   3.539  -1.894  0.00  0.00    -0.002 C 
ATOM     22  C   UNL     1       3.776   2.305  -2.771  0.00  0.00    -0.002 C 
ATOM     23  C   UNL     1       4.055   1.133  -1.808  0.00  0.00    -0.015 C 
ENDBRANCH  17  19
BRANCH  17  24
ATOM     24  C   UNL     1       3.301   1.256   1.912  0.00  0.00    -0.066 C 
ATOM     25  C   UNL     1       4.032   2.251   2.817  0.00  0.00    -0.017 C 
ATOM     26  C   UNL     1       3.931   0.778   3.222  0.00  0.00    -0.017 C 
ENDBRANCH  17  24
ENDBRANCH  16  17
ENDBRANCH  10  16
TORSDOF 4
