REMARK  Name = ZINC05416264
REMARK  7 active torsions:
REMARK  status: ('A' for Active; 'I' for Inactive)
REMARK    1  A    between atoms: C_1  and  C_2
REMARK    2  A    between atoms: C_5  and  C_8
REMARK    3  A    between atoms: C_8  and  C_10
REMARK    4  A    between atoms: C_8  and  O_28
REMARK    5  A    between atoms: C_10  and  N_12
REMARK    6  A    between atoms: C_10  and  O_21
REMARK    7  A    between atoms: O_21  and  C_22
REMARK                            x       y       z     vdW  Elec       q    Type
REMARK                         _______ _______ _______ _____ _____    ______ ____
ROOT
ATOM      1  C   UNL     1       0.001  -0.000  -0.004  0.00  0.00    +0.327 C 
ENDROOT
BRANCH   1   2
ATOM      2  N   UNL     1       0.789  -0.685   1.024  0.00  0.00    -0.202 N 
ATOM      3  C   UNL     1       2.055  -1.200   0.882  0.00  0.00    +0.093 A 
ATOM      4  C   UNL     1       2.962  -1.260  -0.171  0.00  0.00    +0.030 A 
ATOM      5  C   UNL     1       4.177  -1.859   0.012  0.00  0.00    +0.002 A 
ATOM      6  C   UNL     1       4.516  -2.409   1.242  0.00  0.00    +0.002 A 
ATOM      7  C   UNL     1       3.644  -2.363   2.290  0.00  0.00    +0.032 A 
ATOM      8  C   UNL     1       2.392  -1.755   2.129  0.00  0.00    +0.113 A 
ATOM      9  N   UNL     1       1.347  -1.561   2.959  0.00  0.00    -0.129 NA
ATOM     10  N   UNL     1       0.402  -0.938   2.349  0.00  0.00    -0.061 NA
ENDBRANCH   1   2
BRANCH   1  11
ATOM     11  C   UNL     1      -0.011   1.503   0.280  0.00  0.00    +0.208 C 
BRANCH  11  16
ATOM     12  C   UNL     1      -3.120   4.204  -3.775  0.00  0.00    +0.044 C 
ATOM     13  C   UNL     1      -2.310   3.499  -2.717  0.00  0.00    -0.050 A 
ATOM     14  C   UNL     1      -2.870   3.227  -1.483  0.00  0.00    +0.004 A 
ATOM     15  C   UNL     1      -2.127   2.581  -0.514  0.00  0.00    +0.006 A 
ATOM     16  C   UNL     1      -0.822   2.207  -0.778  0.00  0.00    -0.014 A 
ATOM     17  C   UNL     1      -0.260   2.485  -2.010  0.00  0.00    +0.006 A 
ATOM     18  C   UNL     1      -1.005   3.126  -2.981  0.00  0.00    +0.004 A 
ENDBRANCH  11  16
BRANCH  11  19
ATOM     19  O   UNL     1       1.328   2.002   0.264  0.00  0.00    -0.381 OA
ATOM     20  H   UNL     1       1.785   1.874  -0.579  0.00  0.00    +0.210 HD
ENDBRANCH  11  19
ENDBRANCH   1  11
BRANCH   1  21
ATOM     21  O   UNL     1      -1.339  -0.499   0.012  0.00  0.00    -0.464 OA
BRANCH  21  22
ATOM     22  C   UNL     1      -1.581  -1.639  -0.686  0.00  0.00    +0.124 A 
ATOM     23  C   UNL     1      -0.533  -2.323  -1.286  0.00  0.00    +0.046 A 
ATOM     24  C   UNL     1      -0.781  -3.485  -1.990  0.00  0.00    +0.004 A 
ATOM     25  C   UNL     1      -2.074  -3.961  -2.108  0.00  0.00    +0.000 A 
ATOM     26  C   UNL     1      -3.121  -3.278  -1.516  0.00  0.00    +0.004 A 
ATOM     27  C   UNL     1      -2.877  -2.119  -0.806  0.00  0.00    +0.046 A 
ENDBRANCH  21  22
ENDBRANCH   1  21
TORSDOF 6
