REMARK  Name = ZINC44730010
REMARK  8 active torsions:
REMARK  status: ('A' for Active; 'I' for Inactive)
REMARK    1  A    between atoms: C_1  and  C_2
REMARK    2  A    between atoms: C_4  and  C_8
REMARK    3  A    between atoms: C_5  and  C_7
REMARK    4  A    between atoms: C_8  and  C_10
REMARK    5  A    between atoms: C_8  and  N_11
REMARK    6  A    between atoms: N_11  and  C_12
REMARK    7  A    between atoms: C_12  and  C_14
REMARK    8  A    between atoms: C_12  and  C_15
REMARK                            x       y       z     vdW  Elec       q    Type
REMARK                         _______ _______ _______ _____ _____    ______ ____
ROOT
ATOM      1  N   UNL     1      -2.789  -3.078   0.472  0.00  0.00    +0.388 N 
ATOM      2  H   UNL     1      -2.730  -2.635   1.377  0.00  0.00    -0.084 HD
ATOM      3  H   UNL     1      -3.242  -2.454  -0.178  0.00  0.00    -0.084 HD
ENDROOT
BRANCH   1   4
ATOM      4  C   UNL     1      -1.437  -3.390  -0.009  0.00  0.00    -0.040 C 
ATOM      5  C   UNL     1      -1.518  -3.946  -1.432  0.00  0.00    -0.009 C 
BRANCH   4   9
ATOM      6  C   UNL     1      -0.018   1.503   0.010  0.00  0.00    +0.086 C 
ATOM      7  C   UNL     1       0.002  -0.004   0.002  0.00  0.00    +0.102 A 
ATOM      8  C   UNL     1      -1.078  -0.805   0.003  0.00  0.00    +0.046 A 
ATOM      9  C   UNL     1      -0.601  -2.136  -0.007  0.00  0.00    -0.021 A 
ATOM     10  C   UNL     1       0.742  -2.069  -0.013  0.00  0.00    +0.104 A 
ATOM     11  O   UNL     1       1.102  -0.775  -0.013  0.00  0.00    -0.465 OA
ATOM     12  C   UNL     1       1.684  -3.245  -0.023  0.00  0.00    +0.086 C 
ENDBRANCH   4   9
ENDBRANCH   1   4
BRANCH   1  13
ATOM     13  C   UNL     1      -3.568  -4.319   0.584  0.00  0.00    -0.036 C 
ATOM     14  C   UNL     1      -2.951  -5.213   1.661  0.00  0.00    -0.008 C 
BRANCH  13  15
ATOM     15  C   UNL     1      -4.990  -3.987   0.959  0.00  0.00    -0.023 A 
ATOM     16  C   UNL     1      -6.142  -4.545   0.514  0.00  0.00    +0.010 A 
ATOM     17  C   UNL     1      -7.347  -4.076   1.003  0.00  0.00    +0.023 A 
ATOM     18  C   UNL     1      -7.340  -3.071   1.914  0.00  0.00    +0.055 A 
ATOM     19  S   UNL     1      -5.592  -2.764   2.111  0.00  0.00    -0.088 S 
ATOM     20 BR   UNL     1      -8.801  -2.222   2.761  0.00  0.00    -0.043 Br
ENDBRANCH  13  15
ENDBRANCH   1  13
TORSDOF 4
