REMARK  Name = ZINC16384461
REMARK  6 active torsions:
REMARK  status: ('A' for Active; 'I' for Inactive)
REMARK    1  A    between atoms: C_4  and  N_24
REMARK    2  A    between atoms: C_6  and  C_7
REMARK    3  A    between atoms: N_9  and  C_10
REMARK    4  A    between atoms: C_10  and  N_12
REMARK    5  A    between atoms: N_12  and  C_13
REMARK    6  A    between atoms: C_14  and  C_21
REMARK                            x       y       z     vdW  Elec       q    Type
REMARK                         _______ _______ _______ _____ _____    ______ ____
ROOT
ATOM      1  C   UNL     1      -4.855   3.846   0.068  0.00  0.00    +0.141 C 
ATOM      2  S   UNL     1      -4.872   5.558   0.078  0.00  0.00    -0.018 S 
ENDROOT
BRANCH   1   5
ATOM      3  C   UNL     1      -2.521   3.869   0.046  0.00  0.00    +0.250 C 
ATOM      4  O   UNL     1      -2.533   5.085   0.053  0.00  0.00    -0.270 OA
ATOM      5  N   UNL     1      -3.681   3.184   0.053  0.00  0.00    -0.264 N 
ATOM      6  H   UNL     1      -3.671   2.214   0.048  0.00  0.00    +0.157 HD
BRANCH   3  12
ATOM      7  C   UNL     1      -1.217   1.748   0.017  0.00  0.00    +0.014 A 
ATOM      8  C   UNL     1      -0.013   1.076   0.008  0.00  0.00    +0.023 A 
ATOM      9  C   UNL     1       1.178   1.783   0.000  0.00  0.00    +0.071 A 
ATOM     10  C   UNL     1       1.168   3.168   0.007  0.00  0.00    +0.145 A 
ATOM     11  C   UNL     1      -0.030   3.852   0.022  0.00  0.00    +0.047 A 
ATOM     12  C   UNL     1      -1.234   3.144   0.030  0.00  0.00    +0.039 A 
ATOM     13 CL   UNL     1       2.690   0.930  -0.019  0.00  0.00    -0.081 Cl
BRANCH  10  14
ATOM     14  N   UNL     1       2.445   3.917  -0.000  0.00  0.00    +0.058 N 
ATOM     15  O   UNL     1       2.437   5.135   0.006  0.00  0.00    -0.126 OA
ATOM     16  O   UNL     1       3.503   3.315  -0.013  0.00  0.00    -0.126 OA
ENDBRANCH  10  14
ENDBRANCH   3  12
ENDBRANCH   1   5
BRANCH   1  17
ATOM     17  N   UNL     1      -6.015   3.160   0.076  0.00  0.00    -0.291 N 
ATOM     18  H   UNL     1      -6.005   2.190   0.070  0.00  0.00    +0.154 HD
BRANCH  17  19
ATOM     19  C   UNL     1      -7.222   3.841   0.091  0.00  0.00    +0.084 A 
ATOM     20  C   UNL     1      -8.504   3.319   0.095  0.00  0.00    +0.068 A 
ATOM     21  C   UNL     1      -9.620   4.265   0.116  0.00  0.00    -0.023 A 
ATOM     22  C   UNL     1      -9.268   5.563   0.120  0.00  0.00    -0.004 A 
ATOM     23  S   UNL     1      -7.492   5.550   0.102  0.00  0.00    -0.077 S 
ATOM     24  C   UNL     1     -10.467   6.472   0.139  0.00  0.00    +0.043 C 
ATOM     25  C   UNL     1     -11.636   5.565   0.583  0.00  0.00    +0.010 C 
ATOM     26  C   UNL     1     -11.147   4.176   0.128  0.00  0.00    +0.037 C 
BRANCH  20  27
ATOM     27  C   UNL     1      -8.735   1.872   0.082  0.00  0.00    +0.244 C 
ATOM     28  O   UNL     1      -8.824   1.260   1.131  0.00  0.00    -0.270 OA
ATOM     29  N   UNL     1      -8.849   1.218  -1.091  0.00  0.00    -0.325 N 
ATOM     30  H   UNL     1      -8.778   1.705  -1.927  0.00  0.00    +0.145 HD
ATOM     31  H   UNL     1      -9.002   0.260  -1.099  0.00  0.00    +0.145 HD
ENDBRANCH  20  27
ENDBRANCH  17  19
ENDBRANCH   1  17
TORSDOF 6
