REMARK  Name = ZINC33960104
REMARK  5 active torsions:
REMARK  status: ('A' for Active; 'I' for Inactive)
REMARK    1  A    between atoms: C_3  and  C_16
REMARK    2  A    between atoms: C_5  and  S_7
REMARK    3  A    between atoms: S_7  and  N_10
REMARK    4  A    between atoms: N_21  and  N_22
REMARK    5  A    between atoms: C_23  and  C_24
REMARK                            x       y       z     vdW  Elec       q    Type
REMARK                         _______ _______ _______ _____ _____    ______ ____
ROOT
ATOM      1  C   UNL     1      -0.017   1.379   0.010  0.00  0.00    +0.003 A 
ATOM      2  C   UNL     1       1.167   2.088   0.002  0.00  0.00    +0.010 A 
ATOM      3  C   UNL     1       2.385   1.407  -0.013  0.00  0.00    +0.001 A 
ATOM      4  C   UNL     1       2.397   0.011  -0.021  0.00  0.00    +0.038 A 
ATOM      5  C   UNL     1       1.206  -0.686  -0.013  0.00  0.00    +0.106 A 
ATOM      6  C   UNL     1       0.002  -0.004   0.002  0.00  0.00    +0.028 A 
ENDROOT
BRANCH   3   7
ATOM      7  C   UNL     1       3.657   2.160  -0.022  0.00  0.00    +0.055 A 
ATOM      8  C   UNL     1       4.836   1.502  -0.042  0.00  0.00    +0.075 A 
ATOM      9  S   UNL     1       6.013   2.844  -0.044  0.00  0.00    -0.056 S 
ATOM     10  C   UNL     1       4.848   4.197  -0.018  0.00  0.00    +0.192 A 
ATOM     11  N   UNL     1       3.646   3.527  -0.015  0.00  0.00    -0.332 N 
ATOM     12  N   UNL     1       5.079   5.500  -0.008  0.00  0.00    -0.124 NA
ATOM     13  H   UNL     1       2.808   4.015  -0.004  0.00  0.00    +0.168 HD
BRANCH  12  14
ATOM     14  N   UNL     1       6.291   5.940  -0.020  0.00  0.00    -0.154 NA
ATOM     15  C   UNL     1       6.520   7.229  -0.011  0.00  0.00    +0.150 C 
BRANCH  15  16
ATOM     16  C   UNL     1       7.895   7.728  -0.023  0.00  0.00    +0.032 A 
ATOM     17  C   UNL     1       8.350   9.038  -0.011  0.00  0.00    +0.017 A 
ATOM     18  C   UNL     1       9.709   9.257  -0.027  0.00  0.00    +0.008 A 
ATOM     19  C   UNL     1      10.553   8.194  -0.054  0.00  0.00    +0.046 A 
ATOM     20  S   UNL     1       9.426   6.810  -0.050  0.00  0.00    -0.096 S 
ENDBRANCH  15  16
ENDBRANCH  12  14
ENDBRANCH   3   7
BRANCH   5  21
ATOM     21  S   UNL     1       1.219  -2.448  -0.023  0.00  0.00    +0.061 S 
ATOM     22  O   UNL     1      -0.029  -2.860  -0.564  0.00  0.00    -0.153 OA
ATOM     23  O   UNL     1       2.462  -2.842  -0.588  0.00  0.00    -0.153 OA
BRANCH  21  24
ATOM     24  N   UNL     1       1.238  -2.946   1.556  0.00  0.00    -0.172 NA
ATOM     25  C   UNL     1       2.508  -3.159   2.268  0.00  0.00    +0.137 C 
ATOM     26  C   UNL     1       2.449  -2.402   3.599  0.00  0.00    +0.177 C 
ATOM     27  O   UNL     1       1.259  -2.773   4.299  0.00  0.00    -0.377 OA
ATOM     28  C   UNL     1       0.049  -2.430   3.619  0.00  0.00    +0.177 C 
ATOM     29  C   UNL     1      -0.015  -3.183   2.290  0.00  0.00    +0.137 C 
ENDBRANCH  21  24
ENDBRANCH   5  21
TORSDOF 5
