REMARK  Name = ZINC11982995
REMARK  5 active torsions:
REMARK  status: ('A' for Active; 'I' for Inactive)
REMARK    1  A    between atoms: C_6  and  C_11
REMARK    2  A    between atoms: C_16  and  C_19
REMARK    3  A    between atoms: C_19  and  C_33
REMARK    4  A    between atoms: N_22  and  C_26
REMARK    5  A    between atoms: C_26  and  C_27
REMARK                            x       y       z     vdW  Elec       q    Type
REMARK                         _______ _______ _______ _____ _____    ______ ____
ROOT
ATOM      1  C   UNL     1      -3.540  10.762   2.673  0.00  0.00    +0.158 C 
ATOM      2  C   UNL     1      -4.823  11.568   2.742  0.00  0.00    +0.253 C 
ATOM      3  O   UNL     1      -5.251  12.336   1.908  0.00  0.00    -0.272 OA
ATOM      4  N   UNL     1      -5.388  11.252   3.924  0.00  0.00    -0.221 N 
ATOM      5  C   UNL     1      -4.648  10.368   4.604  0.00  0.00    +0.310 C 
ATOM      6  O   UNL     1      -4.952   9.933   5.698  0.00  0.00    -0.252 OA
ATOM      7  N   UNL     1      -3.531  10.017   3.943  0.00  0.00    -0.280 N 
ATOM      8  H   UNL     1      -2.851   9.393   4.244  0.00  0.00    +0.152 HD
ENDROOT
BRANCH   1  14
ATOM      9  C   UNL     1      -3.649   5.886   0.238  0.00  0.00    +0.247 C 
ATOM     10  O   UNL     1      -4.709   5.298   0.147  0.00  0.00    -0.270 OA
ATOM     11  N   UNL     1      -3.628   7.233   0.298  0.00  0.00    -0.298 N 
ATOM     12  C   UNL     1      -2.353   7.962   0.317  0.00  0.00    +0.108 C 
ATOM     13  C   UNL     1      -2.335   8.900   1.522  0.00  0.00    +0.025 C 
ATOM     14  C   UNL     1      -3.572   9.800   1.484  0.00  0.00    +0.031 C 
ATOM     15  C   UNL     1      -4.834   8.937   1.560  0.00  0.00    +0.025 C 
ATOM     16  C   UNL     1      -4.881   7.999   0.350  0.00  0.00    +0.108 C 
BRANCH   9  22
ATOM     17  C   UNL     1       2.237   3.330  -0.330  0.00  0.00    +0.001 A 
ATOM     18  C   UNL     1       2.141   4.441  -1.167  0.00  0.00    +0.001 A 
ATOM     19  C   UNL     1       0.994   5.170  -1.233  0.00  0.00    +0.008 A 
ATOM     20  C   UNL     1      -0.115   4.795  -0.454  0.00  0.00    -0.017 A 
ATOM     21  C   UNL     1      -1.314   5.522  -0.502  0.00  0.00    +0.021 A 
ATOM     22  C   UNL     1      -2.383   5.125   0.283  0.00  0.00    +0.037 A 
ATOM     23  C   UNL     1      -2.273   4.003   1.125  0.00  0.00    +0.013 A 
ATOM     24  C   UNL     1      -1.121   3.288   1.183  0.00  0.00    +0.009 A 
ATOM     25  C   UNL     1      -0.017   3.666   0.398  0.00  0.00    -0.018 A 
ATOM     26  C   UNL     1       1.186   2.941   0.442  0.00  0.00    +0.008 A 
ENDBRANCH   9  22
ENDBRANCH   1  14
BRANCH   1  27
ATOM     27  C   UNL     1      -2.345  11.676   2.582  0.00  0.00    +0.074 A 
ATOM     28  C   UNL     1      -2.103  12.588   3.592  0.00  0.00    +0.026 A 
ATOM     29  C   UNL     1      -1.001  13.423   3.498  0.00  0.00    +0.003 A 
ATOM     30  C   UNL     1      -0.179  13.309   2.387  0.00  0.00    +0.020 A 
ATOM     31  C   UNL     1      -0.484  12.374   1.417  0.00  0.00    +0.111 A 
ATOM     32  N   UNL     1      -1.539  11.592   1.541  0.00  0.00    -0.257 NA
ENDBRANCH   1  27
BRANCH   4  33
ATOM     33  C   UNL     1      -6.654  11.808   4.405  0.00  0.00    +0.149 C 
BRANCH  33  34
ATOM     34  C   UNL     1      -7.810  10.919   3.942  0.00  0.00    +0.136 C 
ATOM     35  C   UNL     1      -9.157  11.558   4.346  0.00  0.00    +0.035 C 
ATOM     36  C   UNL     1      -9.992  10.322   4.776  0.00  0.00    +0.031 C 
ATOM     37  C   UNL     1      -8.892   9.425   5.398  0.00  0.00    +0.160 C 
ATOM     38  O   UNL     1      -7.728   9.641   4.584  0.00  0.00    -0.375 OA
ENDBRANCH  33  34
ENDBRANCH   4  33
TORSDOF 5
