REMARK  Name = ZINC02799536
REMARK  10 active torsions:
REMARK  status: ('A' for Active; 'I' for Inactive)
REMARK    1  A    between atoms: C_1  and  C_2
REMARK    2  A    between atoms: C_2  and  O_3
REMARK    3  A    between atoms: O_3  and  C_4
REMARK    4  A    between atoms: C_6  and  C_15
REMARK    5  A    between atoms: C_9  and  O_10
REMARK    6  A    between atoms: O_10  and  C_11
REMARK    7  A    between atoms: C_11  and  C_12
REMARK    8  A    between atoms: N_24  and  C_32
REMARK    9  A    between atoms: C_27  and  N_31
REMARK   10  A    between atoms: C_28  and  C_29
REMARK                            x       y       z     vdW  Elec       q    Type
REMARK                         _______ _______ _______ _____ _____    ______ ____
ROOT
ATOM      1  C   UNL     1       1.677  -5.239   0.014  0.00  0.00    +0.105 C 
ATOM      2  C   UNL     1       1.136  -5.959   1.218  0.00  0.00    +0.090 A 
ATOM      3  C   UNL     1       0.999  -5.273   2.440  0.00  0.00    +0.262 A 
ATOM      4  O   UNL     1       1.317  -4.099   2.524  0.00  0.00    -0.267 OA
ATOM      5  N   UNL     1       0.513  -5.922   3.517  0.00  0.00    -0.274 N 
ATOM      6  H   UNL     1       0.415  -5.439   4.386  0.00  0.00    +0.173 HD
ATOM      7  C   UNL     1       0.161  -7.218   3.429  0.00  0.00    +0.337 A 
ATOM      8  O   UNL     1      -0.276  -7.787   4.410  0.00  0.00    -0.246 OA
ATOM      9  N   UNL     1       0.284  -7.892   2.272  0.00  0.00    -0.232 N 
ATOM     10  C   UNL     1       0.775  -7.268   1.148  0.00  0.00    +0.221 A 
ATOM     11  O   UNL     1       0.889  -7.962  -0.000  0.00  0.00    -0.424 OA
ATOM     12  C   UNL     1       1.699  -7.520  -0.978  0.00  0.00    +0.200 C 
ATOM     13  C   UNL     1       2.110  -6.232  -1.029  0.00  0.00    +0.098 C 
ENDROOT
BRANCH   1  16
ATOM     14  C   UNL     1      -0.175  -2.163  -1.162  0.00  0.00    +0.164 A 
ATOM     15  C   UNL     1       0.810  -2.984  -0.636  0.00  0.00    +0.054 A 
ATOM     16  C   UNL     1       0.605  -4.348  -0.559  0.00  0.00    -0.029 A 
ATOM     17  C   UNL     1      -0.583  -4.899  -1.006  0.00  0.00    +0.028 A 
ATOM     18  C   UNL     1      -1.570  -4.085  -1.532  0.00  0.00    +0.087 A 
ATOM     19  C   UNL     1      -1.372  -2.715  -1.607  0.00  0.00    +0.182 A 
ATOM     20 CL   UNL     1      -3.059  -4.779  -2.093  0.00  0.00    -0.080 Cl
BRANCH  14  21
ATOM     21  O   UNL     1       0.026  -0.820  -1.239  0.00  0.00    -0.489 OA
BRANCH  21  23
ATOM     22  C   UNL     1       1.319   1.197  -0.924  0.00  0.00    +0.048 C 
ATOM     23  C   UNL     1       1.276  -0.323  -0.757  0.00  0.00    +0.226 C 
ENDBRANCH  21  23
ENDBRANCH  14  21
BRANCH  19  24
ATOM     24  O   UNL     1      -2.344  -1.913  -2.119  0.00  0.00    -0.472 OA
BRANCH  24  25
ATOM     25  C   UNL     1      -2.310  -1.671  -3.527  0.00  0.00    +0.347 C 
BRANCH  25  26
ATOM     26  C   UNL     1      -3.428  -0.789  -3.901  0.00  0.00    +0.104 C 
ATOM     27  N   UNL     1      -4.290  -0.108  -4.189  0.00  0.00    -0.193 NA
ENDBRANCH  25  26
ENDBRANCH  24  25
ENDBRANCH  19  24
ENDBRANCH   1  16
BRANCH   9  28
ATOM     28  C   UNL     1      -0.090  -9.241   2.210  0.00  0.00    +0.054 A 
ATOM     29  C   UNL     1       0.841 -10.235   2.484  0.00  0.00    +0.026 A 
ATOM     30  C   UNL     1       0.467 -11.563   2.428  0.00  0.00    +0.002 A 
ATOM     31  C   UNL     1      -0.829 -11.905   2.088  0.00  0.00    +0.000 A 
ATOM     32  C   UNL     1      -1.756 -10.918   1.809  0.00  0.00    +0.002 A 
ATOM     33  C   UNL     1      -1.391  -9.587   1.869  0.00  0.00    +0.026 A 
ENDBRANCH   9  28
BRANCH  12  34
ATOM     34  N   UNL     1       2.116  -8.396  -1.949  0.00  0.00    -0.328 N 
ATOM     35  H   UNL     1       1.827  -9.321  -1.924  0.00  0.00    +0.145 HD
ATOM     36  H   UNL     1       2.701  -8.089  -2.660  0.00  0.00    +0.145 HD
ENDBRANCH  12  34
BRANCH  13  37
ATOM     37  C   UNL     1       2.970  -5.811  -2.093  0.00  0.00    +0.101 C 
ATOM     38  N   UNL     1       3.653  -5.476  -2.937  0.00  0.00    -0.191 NA
ENDBRANCH  13  37
TORSDOF 9
