REMARK  Name = ZINC40473204
REMARK  4 active torsions:
REMARK  status: ('A' for Active; 'I' for Inactive)
REMARK    1  A    between atoms: C_9  and  C_14
REMARK    2  A    between atoms: C_14  and  N_15
REMARK    3  A    between atoms: C_20  and  C_22
REMARK    4  A    between atoms: C_22  and  O_23
REMARK                            x       y       z     vdW  Elec       q    Type
REMARK                         _______ _______ _______ _____ _____    ______ ____
ROOT
ATOM      1  C   UNL     1      -0.564   1.951   1.712  0.00  0.00    +0.021 A 
ATOM      2  C   UNL     1      -0.390   0.608   1.523  0.00  0.00    +0.017 A 
ATOM      3  C   UNL     1      -1.485  -0.189   1.197  0.00  0.00    +0.065 A 
ATOM      4  C   UNL     1      -2.768   0.389   1.063  0.00  0.00    +0.080 A 
ATOM      5  C   UNL     1      -2.921   1.763   1.261  0.00  0.00    +0.048 A 
ATOM      6  C   UNL     1      -1.822   2.529   1.588  0.00  0.00    +0.043 A 
ATOM      7 CL   UNL     1      -2.011   4.237   1.835  0.00  0.00    -0.083 Cl
ATOM      8  N   UNL     1      -3.819  -0.406   0.744  0.00  0.00    -0.232 NA
ATOM      9  C   UNL     1      -3.674  -1.684   0.560  0.00  0.00    +0.125 A 
ATOM     10  N   UNL     1      -2.480  -2.324   0.669  0.00  0.00    -0.309 N 
ATOM     11  H   UNL     1      -2.433  -3.281   0.520  0.00  0.00    +0.170 HD
ATOM     12  C   UNL     1      -1.357  -1.638   0.982  0.00  0.00    +0.259 A 
ATOM     13  O   UNL     1      -0.281  -2.198   1.081  0.00  0.00    -0.267 OA
ENDROOT
BRANCH   9  14
ATOM     14  C   UNL     1      -4.892  -2.498   0.209  0.00  0.00    +0.159 C 
BRANCH  14  15
ATOM     15  N   UNL     1      -6.067  -1.618   0.144  0.00  0.00    -0.290 NA
ATOM     16  C   UNL     1      -6.014  -0.757  -1.044  0.00  0.00    +0.085 C 
ATOM     17  C   UNL     1      -7.173   0.242  -1.004  0.00  0.00    +0.015 C 
ATOM     18  C   UNL     1      -8.499  -0.523  -0.963  0.00  0.00    +0.003 C 
ATOM     19  C   UNL     1      -8.508  -1.448   0.257  0.00  0.00    +0.021 C 
ATOM     20  C   UNL     1      -7.311  -2.398   0.179  0.00  0.00    +0.082 C 
BRANCH  20  21
ATOM     21  C   UNL     1      -7.305  -3.312   1.407  0.00  0.00    +0.174 C 
BRANCH  21  22
ATOM     22  O   UNL     1      -7.278  -2.515   2.593  0.00  0.00    -0.393 OA
ATOM     23  H   UNL     1      -7.273  -3.029   3.412  0.00  0.00    +0.209 HD
ENDBRANCH  21  22
ENDBRANCH  20  21
ENDBRANCH  14  15
ENDBRANCH   9  14
TORSDOF 4
