REMARK  Name = ZINC12589994
REMARK  12 active torsions:
REMARK  status: ('A' for Active; 'I' for Inactive)
REMARK    1  A    between atoms: C_1  and  O_2
REMARK    2  A    between atoms: O_2  and  C_3
REMARK    3  A    between atoms: C_3  and  C_4
REMARK    4  A    between atoms: C_4  and  N_58
REMARK    5  A    between atoms: C_5  and  C_6
REMARK    6  A    between atoms: C_5  and  N_58
REMARK    7  A    between atoms: C_12  and  C_13
REMARK    8  A    between atoms: C_12  and  N_58
REMARK    9  A    between atoms: C_18  and  C_19
REMARK   10  A    between atoms: C_18  and  N_60
REMARK   11  A    between atoms: C_24  and  O_25
REMARK   12  A    between atoms: O_25  and  C_26
REMARK                            x       y       z     vdW  Elec       q    Type
REMARK                         _______ _______ _______ _____ _____    ______ ____
ROOT
ATOM      1  C   UNL     1       3.396  -0.966  -3.351  0.00  0.00    -0.031 C 
ATOM      2  C   UNL     1       4.237   0.197  -2.817  0.00  0.00    -0.017 C 
ATOM      3  C   UNL     1       3.916   0.413  -1.336  0.00  0.00    -0.078 C 
ATOM      4  C   UNL     1       1.659  -0.414  -1.644  0.00  0.00    -0.078 C 
ATOM      5  C   UNL     1       1.912  -0.655  -3.134  0.00  0.00    -0.017 C 
ATOM      6  N   UNL     1       2.479   0.732  -1.197  0.00  0.00    +0.382 N 
ATOM      7  H   UNL     1       2.261   1.546  -1.784  0.00  0.00    -0.081 HD
ENDROOT
BRANCH   1   8
ATOM      8  C   UNL     1       3.667  -1.148  -4.846  0.00  0.00    -0.075 C 
BRANCH   8   9
ATOM      9  N   UNL     1       2.925  -2.333  -5.327  0.00  0.00    +0.384 N 
ATOM     10  H   UNL     1       1.923  -2.194  -5.147  0.00  0.00    -0.081 HD
BRANCH   9  11
ATOM     11  C   UNL     1       3.379  -3.540  -4.606  0.00  0.00    -0.050 C 
BRANCH  11  12
ATOM     12  C   UNL     1       4.884  -3.742  -4.792  0.00  0.00    +0.141 C 
BRANCH  12  14
ATOM     13  C   UNL     1       7.008  -2.759  -4.276  0.00  0.00    +0.193 C 
ATOM     14  O   UNL     1       5.593  -2.721  -4.086  0.00  0.00    -0.385 OA
ENDBRANCH  12  14
ENDBRANCH  11  12
ENDBRANCH   9  11
BRANCH   9  15
ATOM     15  C   UNL     1       3.133  -2.503  -6.780  0.00  0.00    -0.035 C 
BRANCH  15  16
ATOM     16  C   UNL     1       2.104  -3.471  -7.306  0.00  0.00    -0.025 A 
ATOM     17  C   UNL     1       0.825  -3.235  -7.683  0.00  0.00    +0.011 A 
ATOM     18  C   UNL     1       0.054  -4.288  -8.141  0.00  0.00    +0.028 A 
ATOM     19  C   UNL     1       0.604  -5.527  -8.198  0.00  0.00    +0.078 A 
ATOM     20  S   UNL     1       2.259  -5.225  -7.601  0.00  0.00    -0.084 S 
ATOM     21 CL   UNL     1      -0.115  -7.018  -8.723  0.00  0.00    -0.076 Cl
ENDBRANCH  15  16
ENDBRANCH   9  15
ENDBRANCH   8   9
ENDBRANCH   1   8
BRANCH   6  22
ATOM     22  C   UNL     1       2.168   1.057   0.210  0.00  0.00    -0.039 C 
BRANCH  22  23
ATOM     23  C   UNL     1       0.759   1.588   0.285  0.00  0.00    -0.022 A 
ATOM     24  C   UNL     1       0.536   2.950   0.341  0.00  0.00    +0.005 A 
ATOM     25  C   UNL     1      -0.756   3.437   0.409  0.00  0.00    +0.000 A 
ATOM     26  C   UNL     1      -1.827   2.563   0.422  0.00  0.00    +0.004 A 
ATOM     27  C   UNL     1      -1.609   1.201   0.361  0.00  0.00    +0.046 A 
ATOM     28  C   UNL     1      -0.314   0.709   0.297  0.00  0.00    +0.121 A 
BRANCH  28  29
ATOM     29  O   UNL     1      -0.096  -0.631   0.241  0.00  0.00    -0.495 OA
ATOM     30  C   UNL     1      -1.248  -1.477   0.258  0.00  0.00    +0.277 C 
ENDBRANCH  28  29
ENDBRANCH  22  23
ENDBRANCH   6  22
TORSDOF 10
