REMARK  Name = ZINC20207780
REMARK  9 active torsions:
REMARK  status: ('A' for Active; 'I' for Inactive)
REMARK    1  A    between atoms: C_1  and  C_2
REMARK    2  A    between atoms: C_5  and  C_8
REMARK    3  A    between atoms: C_8  and  O_9
REMARK    4  A    between atoms: O_9  and  C_10
REMARK    5  A    between atoms: C_13  and  C_18
REMARK    6  A    between atoms: C_15  and  O_16
REMARK    7  A    between atoms: O_16  and  C_17
REMARK    8  A    between atoms: C_28  and  S_30
REMARK    9  A    between atoms: S_30  and  C_33
REMARK                            x       y       z     vdW  Elec       q    Type
REMARK                         _______ _______ _______ _____ _____    ______ ____
ROOT
ATOM      1  C   UNL     1       1.833  -6.171   0.011  0.00  0.00    +0.162 A 
ATOM      2  C   UNL     1       0.750  -7.006   0.255  0.00  0.00    +0.050 A 
ATOM      3  C   UNL     1       0.897  -8.372   0.177  0.00  0.00    +0.012 A 
ATOM      4  C   UNL     1       2.144  -8.924  -0.150  0.00  0.00    -0.021 A 
ATOM      5  C   UNL     1       3.236  -8.080  -0.396  0.00  0.00    +0.057 A 
ATOM      6  C   UNL     1       3.076  -6.712  -0.321  0.00  0.00    +0.162 A 
ENDROOT
BRANCH   4   7
ATOM      7  C   UNL     1       2.304 -10.378  -0.233  0.00  0.00    +0.024 C 
ATOM      8  C   UNL     1       1.259 -11.162  -0.665  0.00  0.00    +0.081 C 
ATOM      9  C   UNL     1       0.013 -10.570  -1.229  0.00  0.00    +0.153 C 
ATOM     10  N   UNL     1      -0.005  -9.462  -1.921  0.00  0.00    -0.283 NA
ATOM     11  N   UNL     1      -1.146 -11.323  -0.941  0.00  0.00    -0.150 N 
ATOM     12  C   UNL     1      -0.980 -12.661  -0.657  0.00  0.00    +0.182 C 
ATOM     13  N   UNL     1       0.146 -13.317  -0.526  0.00  0.00    -0.152 NA
ATOM     14  C   UNL     1       1.314 -12.644  -0.599  0.00  0.00    +0.273 C 
ATOM     15  O   UNL     1       2.382 -13.234  -0.607  0.00  0.00    -0.268 OA
ATOM     16  S   UNL     1      -2.657 -13.218  -0.501  0.00  0.00    -0.015 S 
ATOM     17  C   UNL     1      -3.451 -11.632  -0.721  0.00  0.00    +0.235 C 
ATOM     18  N   UNL     1      -2.438 -10.841  -0.928  0.00  0.00    -0.145 NA
ATOM     19  H   UNL     1      -0.844  -9.120  -2.267  0.00  0.00    +0.188 HD
BRANCH  17  20
ATOM     20  S   UNL     1      -5.168 -11.238  -0.671  0.00  0.00    +0.019 S 
ATOM     21  O   UNL     1      -5.726 -12.166   0.249  0.00  0.00    -0.168 OA
ATOM     22  O   UNL     1      -5.213  -9.842  -0.408  0.00  0.00    -0.168 OA
ATOM     23  C   UNL     1      -5.774 -11.579  -2.347  0.00  0.00    +0.202 C 
ENDBRANCH  17  20
ENDBRANCH   4   7
BRANCH   6  24
ATOM     24  O   UNL     1       4.132  -5.890  -0.565  0.00  0.00    -0.491 OA
ATOM     25  C   UNL     1       5.374  -6.511  -0.898  0.00  0.00    +0.277 C 
ENDBRANCH   6  24
BRANCH   1  26
ATOM     26  O   UNL     1       1.681  -4.824   0.089  0.00  0.00    -0.484 OA
BRANCH  26  27
ATOM     27  C   UNL     1       0.382  -4.337   0.434  0.00  0.00    +0.264 C 
BRANCH  27  32
ATOM     28  C   UNL     1       0.465   1.439   0.584  0.00  0.00    +0.044 C 
ATOM     29  C   UNL     1       0.444  -0.068   0.545  0.00  0.00    -0.050 A 
ATOM     30  C   UNL     1       0.140  -0.724  -0.633  0.00  0.00    +0.004 A 
ATOM     31  C   UNL     1       0.120  -2.106  -0.669  0.00  0.00    +0.007 A 
ATOM     32  C   UNL     1       0.405  -2.831   0.473  0.00  0.00    -0.010 A 
ATOM     33  C   UNL     1       0.709  -2.175   1.651  0.00  0.00    +0.007 A 
ATOM     34  C   UNL     1       0.733  -0.793   1.685  0.00  0.00    +0.004 A 
ENDBRANCH  27  32
ENDBRANCH  26  27
ENDBRANCH   1  26
TORSDOF 6
