REMARK  Name = ZINC06791787
REMARK  4 active torsions:
REMARK  status: ('A' for Active; 'I' for Inactive)
REMARK    1  A    between atoms: C_1  and  C_2
REMARK    2  A    between atoms: C_2  and  C_3
REMARK    3  A    between atoms: C_7  and  N_9
REMARK    4  A    between atoms: C_20  and  C_22
REMARK                            x       y       z     vdW  Elec       q    Type
REMARK                         _______ _______ _______ _____ _____    ______ ____
ROOT
ATOM      1  N   UNL     1       2.527   1.305   0.838  0.00  0.00    -0.269 N 
ATOM      2  C   UNL     1       3.654   1.928   0.441  0.00  0.00    +0.307 C 
ATOM      3  O   UNL     1       3.695   3.142   0.402  0.00  0.00    -0.252 OA
ATOM      4  N   UNL     1       4.735   1.205   0.088  0.00  0.00    -0.271 N 
ATOM      5  C   UNL     1       4.677  -0.263   0.028  0.00  0.00    +0.132 C 
ATOM      6  C   UNL     1       4.898  -0.720  -1.418  0.00  0.00    +0.140 C 
ATOM      7  N   UNL     1       6.043   0.003  -1.984  0.00  0.00    -0.347 N 
ATOM      8  C   UNL     1       6.772  -0.347  -3.078  0.00  0.00    +0.086 A 
ATOM      9  C   UNL     1       7.727   0.587  -3.267  0.00  0.00    +0.019 A 
ATOM     10  C   UNL     1       7.585   1.551  -2.247  0.00  0.00    +0.025 A 
ATOM     11  C   UNL     1       6.554   1.168  -1.478  0.00  0.00    +0.044 A 
ATOM     12  C   UNL     1       6.009   1.863  -0.256  0.00  0.00    +0.155 C 
ATOM     13  H   UNL     1       2.515   0.340   0.936  0.00  0.00    +0.156 HD
ENDROOT
BRANCH  12  14
ATOM     14  C   UNL     1       5.770   3.320  -0.558  0.00  0.00    -0.018 A 
ATOM     15  C   UNL     1       4.912   3.682  -1.580  0.00  0.00    +0.006 A 
ATOM     16  C   UNL     1       4.688   5.018  -1.855  0.00  0.00    +0.003 A 
ATOM     17  C   UNL     1       5.331   5.994  -1.116  0.00  0.00    +0.038 A 
ATOM     18  C   UNL     1       6.194   5.632  -0.096  0.00  0.00    +0.124 A 
ATOM     19  C   UNL     1       6.414   4.293   0.182  0.00  0.00    +0.044 A 
ATOM     20  F   UNL     1       6.823   6.584   0.627  0.00  0.00    -0.205 F 
ENDBRANCH  12  14
BRANCH   1  25
ATOM     21  C   UNL     1      -1.014   2.270   1.069  0.00  0.00    -0.046 A 
ATOM     22  C   UNL     1      -0.907   3.522   1.645  0.00  0.00    +0.004 A 
ATOM     23  C   UNL     1       0.338   4.043   1.948  0.00  0.00    +0.002 A 
ATOM     24  C   UNL     1       1.478   3.310   1.682  0.00  0.00    +0.023 A 
ATOM     25  C   UNL     1       1.373   2.050   1.109  0.00  0.00    +0.035 A 
ATOM     26  C   UNL     1       0.122   1.530   0.806  0.00  0.00    +0.027 A 
BRANCH  21  28
ATOM     27  C   UNL     1      -2.912   0.928   1.934  0.00  0.00    +0.009 C 
ATOM     28  C   UNL     1      -2.372   1.709   0.734  0.00  0.00    +0.032 C 
ENDBRANCH  21  28
ENDBRANCH   1  25
TORSDOF 3
