REMARK  Name = ZINC66570912
REMARK  5 active torsions:
REMARK  status: ('A' for Active; 'I' for Inactive)
REMARK    1  A    between atoms: C_4  and  C_7
REMARK    2  A    between atoms: C_10  and  C_15
REMARK    3  A    between atoms: N_17  and  N_18
REMARK    4  A    between atoms: C_19  and  C_21
REMARK    5  A    between atoms: C_21  and  C_22
REMARK                            x       y       z     vdW  Elec       q    Type
REMARK                         _______ _______ _______ _____ _____    ______ ____
ROOT
ATOM      1  C   UNL     1       7.373  -2.764  -0.084  0.00  0.00    +0.265 C 
ATOM      2  O   UNL     1       8.425  -2.159  -0.181  0.00  0.00    -0.268 OA
ATOM      3  N   UNL     1       7.376  -4.109   0.005  0.00  0.00    -0.230 N 
ATOM      4  H   UNL     1       6.537  -4.596   0.007  0.00  0.00    +0.173 HD
ENDROOT
BRANCH   1   8
ATOM      5  C   UNL     1       3.695  -0.682  -0.032  0.00  0.00    +0.049 A 
ATOM      6  C   UNL     1       4.876   0.036  -0.017  0.00  0.00    +0.027 A 
ATOM      7  C   UNL     1       6.093  -0.632  -0.034  0.00  0.00    +0.020 A 
ATOM      8  C   UNL     1       6.102  -2.028  -0.066  0.00  0.00    +0.102 A 
ATOM      9  C   UNL     1       4.868  -2.727  -0.080  0.00  0.00    +0.261 A 
ATOM     10  O   UNL     1       4.859  -3.946  -0.108  0.00  0.00    -0.267 OA
ATOM     11  N   UNL     1       3.707  -2.047  -0.058  0.00  0.00    -0.321 N 
ATOM     12  H   UNL     1       2.868  -2.533  -0.064  0.00  0.00    +0.169 HD
BRANCH   5  16
ATOM     13  C   UNL     1      -0.016   1.381   0.020  0.00  0.00    +0.000 A 
ATOM     14  C   UNL     1       1.169   2.095   0.030  0.00  0.00    +0.001 A 
ATOM     15  C   UNL     1       2.378   1.431   0.013  0.00  0.00    +0.010 A 
ATOM     16  C   UNL     1       2.404   0.035  -0.013  0.00  0.00    -0.002 A 
ATOM     17  C   UNL     1       1.204  -0.680  -0.023  0.00  0.00    +0.010 A 
ATOM     18  C   UNL     1       0.002  -0.003  -0.006  0.00  0.00    +0.001 A 
ENDBRANCH   5  16
ENDBRANCH   1   8
BRANCH   3  19
ATOM     19  N   UNL     1       8.589  -4.803   0.095  0.00  0.00    -0.234 N 
ATOM     20  C   UNL     1       8.591  -6.148   0.184  0.00  0.00    +0.229 C 
ATOM     21  O   UNL     1       7.543  -6.757   0.187  0.00  0.00    -0.274 OA
ATOM     22  H   UNL     1       9.428  -4.316   0.092  0.00  0.00    +0.173 HD
BRANCH  20  23
ATOM     23  C   UNL     1       9.897  -6.894   0.280  0.00  0.00    +0.101 C 
BRANCH  23  24
ATOM     24  C   UNL     1       9.620  -8.396   0.370  0.00  0.00    -0.002 C 
ATOM     25  C   UNL     1       8.881  -8.702   1.675  0.00  0.00    +0.004 C 
ATOM     26  C   UNL     1       8.604 -10.204   1.764  0.00  0.00    +0.000 C 
ATOM     27  C   UNL     1       9.929 -10.969   1.737  0.00  0.00    +0.000 C 
ATOM     28  C   UNL     1      10.667 -10.664   0.432  0.00  0.00    +0.000 C 
ATOM     29  C   UNL     1      10.944  -9.162   0.342  0.00  0.00    +0.004 C 
ENDBRANCH  23  24
ENDBRANCH  20  23
ENDBRANCH   3  19
TORSDOF 5
