REMARK  Name = ZINC08757859
REMARK  13 active torsions:
REMARK  status: ('A' for Active; 'I' for Inactive)
REMARK    1  A    between atoms: C_1  and  C_2
REMARK    2  A    between atoms: C_5  and  C_8
REMARK    3  A    between atoms: C_8  and  C_10
REMARK    4  A    between atoms: C_11  and  C_12
REMARK    5  A    between atoms: N_14  and  C_21
REMARK    6  A    between atoms: C_21  and  C_22
REMARK    7  A    between atoms: C_22  and  C_24
REMARK    8  A    between atoms: C_22  and  O_38
REMARK    9  A    between atoms: C_24  and  N_69
REMARK   10  A    between atoms: C_25  and  C_26
REMARK   11  A    between atoms: C_25  and  N_69
REMARK   12  A    between atoms: C_26  and  C_27
REMARK   13  A    between atoms: C_34  and  C_37
REMARK                            x       y       z     vdW  Elec       q    Type
REMARK                         _______ _______ _______ _____ _____    ______ ____
ROOT
ATOM      1  C   UNL     1       9.380   1.155  -4.270  0.00  0.00    +0.151 C 
ENDROOT
BRANCH   1   4
ATOM      2  C   UNL     1      12.997   1.601  -4.300  0.00  0.00    +0.000 A 
ATOM      3  C   UNL     1      11.703   2.070  -4.367  0.00  0.00    +0.094 A 
ATOM      4  N   UNL     1      10.839   1.033  -4.247  0.00  0.00    -0.344 N 
ATOM      5  C   UNL     1      11.526  -0.156  -4.105  0.00  0.00    +0.050 A 
ATOM      6  C   UNL     1      12.899   0.138  -4.131  0.00  0.00    +0.007 A 
ATOM      7  C   UNL     1      13.835  -0.884  -4.009  0.00  0.00    +0.010 A 
ATOM      8  C   UNL     1      13.408  -2.187  -3.861  0.00  0.00    +0.001 A 
ATOM      9  C   UNL     1      12.053  -2.480  -3.835  0.00  0.00    +0.002 A 
ATOM     10  C   UNL     1      11.115  -1.477  -3.956  0.00  0.00    +0.026 A 
BRANCH   2  12
ATOM     11  C   UNL     1      14.151   3.740  -4.540  0.00  0.00    +0.052 C 
ATOM     12  C   UNL     1      14.223   2.393  -4.384  0.00  0.00    +0.014 C 
BRANCH  11  13
ATOM     13  C   UNL     1      15.334   4.506  -4.622  0.00  0.00    +0.186 C 
ATOM     14  O   UNL     1      16.420   3.958  -4.553  0.00  0.00    -0.287 OA
BRANCH  13  19
ATOM     15  C   UNL     1      15.029  10.216  -5.283  0.00  0.00    +0.044 C 
ATOM     16  C   UNL     1      15.109   8.721  -5.110  0.00  0.00    -0.050 A 
ATOM     17  C   UNL     1      16.344   8.101  -5.032  0.00  0.00    +0.004 A 
ATOM     18  C   UNL     1      16.424   6.733  -4.873  0.00  0.00    +0.012 A 
ATOM     19  C   UNL     1      15.256   5.974  -4.792  0.00  0.00    +0.022 A 
ATOM     20  C   UNL     1      14.014   6.604  -4.878  0.00  0.00    +0.012 A 
ATOM     21  C   UNL     1      13.947   7.973  -5.031  0.00  0.00    +0.004 A 
ENDBRANCH  13  19
ENDBRANCH  11  13
ENDBRANCH   2  12
ENDBRANCH   1   4
BRANCH   1  22
ATOM     22  C   UNL     1       8.852   1.238  -2.836  0.00  0.00    +0.117 C 
BRANCH  22  23
ATOM     23  O   UNL     1       9.117   0.008  -2.159  0.00  0.00    -0.392 OA
ATOM     24  H   UNL     1       8.706  -0.764  -2.570  0.00  0.00    +0.210 HD
ENDBRANCH  22  23
BRANCH  22  25
ATOM     25  C   UNL     1       7.343   1.491  -2.861  0.00  0.00    -0.049 C 
BRANCH  25  26
ATOM     26  N   UNL     1       6.863   1.689  -1.481  0.00  0.00    +0.381 N 
ATOM     27  H   UNL     1       7.345   2.496  -1.067  0.00  0.00    -0.086 HD
ATOM     28  H   UNL     1       7.066   0.849  -0.927  0.00  0.00    -0.086 HD
BRANCH  26  29
ATOM     29  C   UNL     1       5.409   1.936  -1.475  0.00  0.00    -0.078 C 
BRANCH  29  30
ATOM     30  C   UNL     1       4.940   2.137  -0.033  0.00  0.00    +0.018 C 
BRANCH  30  31
ATOM     31  C   UNL     1       3.454   2.390  -0.018  0.00  0.00    -0.024 A 
ATOM     32  C   UNL     1       2.848   3.587  -0.005  0.00  0.00    +0.087 A 
ATOM     33  N   UNL     1       1.490   3.423   0.007  0.00  0.00    -0.360 N 
ATOM     34  H   UNL     1       0.841   4.144   0.017  0.00  0.00    +0.165 HD
ATOM     35  C   UNL     1       1.181   2.081   0.002  0.00  0.00    +0.047 A 
ATOM     36  C   UNL     1       2.398   1.375  -0.013  0.00  0.00    +0.003 A 
ATOM     37  C   UNL     1       2.394  -0.021  -0.021  0.00  0.00    +0.013 A 
ATOM     38  C   UNL     1       1.205  -0.696  -0.013  0.00  0.00    -0.050 A 
ATOM     39  C   UNL     1       0.002  -0.004   0.002  0.00  0.00    +0.005 A 
ATOM     40  C   UNL     1      -0.017   1.374   0.010  0.00  0.00    +0.026 A 
ATOM     41  C   UNL     1       1.201  -2.203  -0.022  0.00  0.00    +0.044 C 
ENDBRANCH  30  31
ENDBRANCH  29  30
ENDBRANCH  26  29
ENDBRANCH  25  26
ENDBRANCH  22  25
ENDBRANCH   1  22
TORSDOF 11
