REMARK  Name = ZINC13397046
REMARK  9 active torsions:
REMARK  status: ('A' for Active; 'I' for Inactive)
REMARK    1  A    between atoms: C_1  and  O_2
REMARK    2  A    between atoms: O_2  and  C_3
REMARK    3  A    between atoms: C_6  and  C_9
REMARK    4  A    between atoms: N_17  and  C_20
REMARK    5  A    between atoms: C_27  and  C_29
REMARK    6  A    between atoms: C_27  and  C_36
REMARK    7  A    between atoms: C_29  and  C_30
REMARK    8  A    between atoms: C_36  and  O_38
REMARK    9  A    between atoms: O_38  and  C_39
REMARK                            x       y       z     vdW  Elec       q    Type
REMARK                         _______ _______ _______ _____ _____    ______ ____
ROOT
ATOM      1  C   UNL     1      -4.981  -2.629   0.035  0.00  0.00    +0.098 C 
ATOM      2  C   UNL     1      -5.326  -3.149  -1.357  0.00  0.00    +0.111 C 
ATOM      3  C   UNL     1      -6.429  -4.183  -0.912  0.00  0.00    +0.121 C 
ATOM      4  C   UNL     1      -7.119  -4.437  -2.154  0.00  0.00    +0.232 C 
ATOM      5  O   UNL     1      -7.632  -5.474  -2.515  0.00  0.00    -0.274 OA
ATOM      6  N   UNL     1      -7.069  -3.247  -2.837  0.00  0.00    -0.210 N 
ATOM      7  C   UNL     1      -6.175  -2.348  -2.292  0.00  0.00    +0.232 C 
ATOM      8  O   UNL     1      -6.093  -1.159  -2.514  0.00  0.00    -0.274 OA
ATOM      9  C   UNL     1      -5.790  -4.912   0.190  0.00  0.00    +0.133 C 
ATOM     10  N   UNL     1      -4.917  -3.878   0.862  0.00  0.00    -0.293 NA
ATOM     11  H   UNL     1      -3.968  -4.213   0.939  0.00  0.00    +0.124 HD
ENDROOT
BRANCH   6  12
ATOM     12  C   UNL     1      -7.836  -2.974  -3.979  0.00  0.00    +0.044 A 
ATOM     13  C   UNL     1      -8.711  -3.932  -4.474  0.00  0.00    +0.025 A 
ATOM     14  C   UNL     1      -9.465  -3.662  -5.598  0.00  0.00    +0.022 A 
ATOM     15  C   UNL     1      -9.350  -2.437  -6.232  0.00  0.00    +0.041 A 
ATOM     16  C   UNL     1      -8.479  -1.480  -5.740  0.00  0.00    +0.022 A 
ATOM     17  C   UNL     1      -7.727  -1.744  -4.612  0.00  0.00    +0.025 A 
ATOM     18 CL   UNL     1     -10.300  -2.099  -7.645  0.00  0.00    -0.084 Cl
ENDBRANCH   6  12
BRANCH   1  22
ATOM     19  C   UNL     1      -1.200  -0.637   0.010  0.00  0.00    +0.120 A 
ATOM     20  C   UNL     1      -2.375   0.101   0.019  0.00  0.00    +0.046 A 
ATOM     21  C   UNL     1      -3.596  -0.545   0.027  0.00  0.00    +0.009 A 
ATOM     22  C   UNL     1      -3.648  -1.927   0.026  0.00  0.00    -0.029 A 
ATOM     23  C   UNL     1      -2.479  -2.665   0.017  0.00  0.00    +0.009 A 
ATOM     24  C   UNL     1      -1.255  -2.024   0.003  0.00  0.00    +0.046 A 
BRANCH  19  26
ATOM     25  C   UNL     1      -0.017   1.425   0.010  0.00  0.00    +0.277 C 
ATOM     26  O   UNL     1       0.002  -0.004   0.002  0.00  0.00    -0.495 OA
ENDBRANCH  19  26
ENDBRANCH   1  22
BRANCH   9  27
ATOM     27  C   UNL     1      -4.972  -6.060  -0.344  0.00  0.00    +0.328 C 
ATOM     28  O   UNL     1      -5.246  -6.551  -1.413  0.00  0.00    -0.249 OA
BRANCH  27  29
ATOM     29  O   UNL     1      -3.939  -6.537   0.369  0.00  0.00    -0.467 OA
ATOM     30  C   UNL     1      -3.208  -7.626  -0.198  0.00  0.00    +0.280 C 
ENDBRANCH  27  29
ENDBRANCH   9  27
BRANCH   9  31
ATOM     31  C   UNL     1      -6.844  -5.420   1.176  0.00  0.00    +0.069 C 
BRANCH  31  32
ATOM     32  C   UNL     1      -6.160  -6.056   2.359  0.00  0.00    -0.045 A 
ATOM     33  C   UNL     1      -5.857  -7.405   2.338  0.00  0.00    +0.004 A 
ATOM     34  C   UNL     1      -5.230  -7.989   3.423  0.00  0.00    +0.000 A 
ATOM     35  C   UNL     1      -4.906  -7.225   4.528  0.00  0.00    +0.000 A 
ATOM     36  C   UNL     1      -5.208  -5.876   4.548  0.00  0.00    +0.000 A 
ATOM     37  C   UNL     1      -5.831  -5.291   3.462  0.00  0.00    +0.004 A 
ENDBRANCH  31  32
ENDBRANCH   9  31
TORSDOF 7
