REMARK  Name = ZINC17024025
REMARK  4 active torsions:
REMARK  status: ('A' for Active; 'I' for Inactive)
REMARK    1  A    between atoms: C_1  and  C_2
REMARK    2  A    between atoms: N_9  and  N_10
REMARK    3  A    between atoms: C_11  and  C_13
REMARK    4  A    between atoms: C_22  and  O_23
REMARK                            x       y       z     vdW  Elec       q    Type
REMARK                         _______ _______ _______ _____ _____    ______ ____
ROOT
ATOM      1  N   UNL     1       3.423   1.584   3.108  0.00  0.00    -0.203 N 
ATOM      2  C   UNL     1       4.025   2.364   4.027  0.00  0.00    +0.267 C 
ATOM      3  O   UNL     1       4.048   3.571   3.880  0.00  0.00    -0.268 OA
ATOM      4  H   UNL     1       3.405   0.621   3.225  0.00  0.00    +0.178 HD
ENDROOT
BRANCH   2   5
ATOM      5  C   UNL     1       4.655   1.755   5.208  0.00  0.00    +0.087 A 
ATOM      6  C   UNL     1       3.890   1.542   6.436  0.00  0.00    -0.002 A 
ATOM      7  C   UNL     1       2.543   1.907   6.530  0.00  0.00    +0.009 A 
ATOM      8  C   UNL     1       1.865   1.692   7.693  0.00  0.00    +0.001 A 
ATOM      9  C   UNL     1       2.496   1.112   8.791  0.00  0.00    +0.001 A 
ATOM     10  C   UNL     1       3.806   0.745   8.733  0.00  0.00    +0.008 A 
ATOM     11  C   UNL     1       4.535   0.953   7.550  0.00  0.00    -0.017 A 
ATOM     12  C   UNL     1       5.890   0.586   7.454  0.00  0.00    +0.012 A 
ATOM     13  C   UNL     1       6.586   0.789   6.306  0.00  0.00    +0.047 A 
ATOM     14  C   UNL     1       5.994   1.362   5.179  0.00  0.00    +0.130 A 
BRANCH  14  15
ATOM     15  O   UNL     1       6.725   1.542   4.052  0.00  0.00    -0.506 OA
ATOM     16  H   UNL     1       7.178   2.395   4.009  0.00  0.00    +0.292 HD
ENDBRANCH  14  15
ENDBRANCH   2   5
BRANCH   1  24
ATOM     17  C   UNL     1       1.414   3.578   0.147  0.00  0.00    +0.014 C 
ATOM     18  C   UNL     1       1.417   2.055   0.001  0.00  0.00    +0.032 C 
ATOM     19  C   UNL     1      -0.024   1.534   0.015  0.00  0.00    +0.009 C 
ATOM     20  C   UNL     1      -0.010   0.004   0.011  0.00  0.00    +0.001 C 
ATOM     21  C   UNL     1       0.647  -0.512   1.292  0.00  0.00    +0.006 C 
ATOM     22  C   UNL     1       2.113  -0.068   1.326  0.00  0.00    +0.053 C 
ATOM     23  C   UNL     1       2.164   1.435   1.161  0.00  0.00    +0.040 C 
ATOM     24  N   UNL     1       2.823   2.164   1.982  0.00  0.00    -0.189 NA
ENDBRANCH   1  24
TORSDOF 3
