REMARK  Name = ZINC39898384
REMARK  11 active torsions:
REMARK  status: ('A' for Active; 'I' for Inactive)
REMARK    1  A    between atoms: C_1  and  C_2
REMARK    2  A    between atoms: C_2  and  C_3
REMARK    3  A    between atoms: C_3  and  C_4
REMARK    4  A    between atoms: C_4  and  O_5
REMARK    5  A    between atoms: O_5  and  C_6
REMARK    6  A    between atoms: C_10  and  C_12
REMARK    7  A    between atoms: C_15  and  C_26
REMARK    8  A    between atoms: N_22  and  C_23
REMARK    9  A    between atoms: C_23  and  C_24
REMARK   10  A    between atoms: C_24  and  C_25
REMARK   11  A    between atoms: C_31  and  O_32
REMARK                            x       y       z     vdW  Elec       q    Type
REMARK                         _______ _______ _______ _____ _____    ______ ____
ROOT
ATOM      1  C   UNL     1      -5.258  -6.518  -0.157  0.00  0.00    +0.141 C 
ATOM      2  C   UNL     1      -5.938  -6.830  -1.462  0.00  0.00    +0.035 A 
ATOM      3  C   UNL     1      -6.400  -6.355  -2.694  0.00  0.00    +0.102 A 
ATOM      4  N   UNL     1      -6.938  -7.375  -3.333  0.00  0.00    -0.173 NA
ATOM      5  N   UNL     1      -6.862  -8.447  -2.627  0.00  0.00    -0.272 N 
ATOM      6  H   UNL     1      -7.193  -9.317  -2.898  0.00  0.00    +0.189 HD
ATOM      7  C   UNL     1      -6.245  -8.177  -1.438  0.00  0.00    +0.126 A 
ATOM      8  C   UNL     1      -5.783  -8.739  -0.164  0.00  0.00    +0.265 C 
ATOM      9  O   UNL     1      -5.904  -9.903   0.166  0.00  0.00    -0.268 OA
ATOM     10  N   UNL     1      -5.209  -7.782   0.590  0.00  0.00    -0.285 N 
ENDROOT
BRANCH   3  11
ATOM     11  C   UNL     1      -6.302  -4.960  -3.190  0.00  0.00    +0.045 A 
ATOM     12  C   UNL     1      -5.817  -3.954  -2.358  0.00  0.00    +0.033 A 
ATOM     13  C   UNL     1      -5.728  -2.657  -2.825  0.00  0.00    +0.042 A 
ATOM     14  C   UNL     1      -6.121  -2.353  -4.117  0.00  0.00    +0.023 A 
ATOM     15  C   UNL     1      -6.604  -3.345  -4.950  0.00  0.00    +0.047 A 
ATOM     16  C   UNL     1      -6.692  -4.651  -4.496  0.00  0.00    +0.126 A 
ATOM     17 CL   UNL     1      -5.124  -1.404  -1.787  0.00  0.00    -0.084 Cl
BRANCH  16  18
ATOM     18  O   UNL     1      -7.161  -5.627  -5.316  0.00  0.00    -0.506 OA
ATOM     19  H   UNL     1      -8.119  -5.752  -5.271  0.00  0.00    +0.292 HD
ENDBRANCH  16  18
ENDBRANCH   3  11
BRANCH   1  24
ATOM     20  C   UNL     1      -2.263  -4.224  -0.376  0.00  0.00    +0.121 A 
ATOM     21  C   UNL     1      -1.294  -5.084  -0.873  0.00  0.00    +0.045 A 
ATOM     22  C   UNL     1      -1.612  -6.402  -1.135  0.00  0.00    +0.004 A 
ATOM     23  C   UNL     1      -2.894  -6.865  -0.903  0.00  0.00    +0.006 A 
ATOM     24  C   UNL     1      -3.861  -6.010  -0.408  0.00  0.00    -0.019 A 
ATOM     25  C   UNL     1      -3.547  -4.692  -0.139  0.00  0.00    +0.051 A 
BRANCH  20  26
ATOM     26  O   UNL     1      -1.953  -2.926  -0.116  0.00  0.00    -0.492 OA
BRANCH  26  27
ATOM     27  C   UNL     1      -0.612  -2.514  -0.385  0.00  0.00    +0.229 C 
BRANCH  27  28
ATOM     28  C   UNL     1      -0.454  -1.033  -0.033  0.00  0.00    +0.041 C 
BRANCH  28  30
ATOM     29  C   UNL     1       1.141   0.889   0.031  0.00  0.00    +0.004 C 
ATOM     30  C   UNL     1       0.983  -0.591  -0.320  0.00  0.00    -0.000 C 
ENDBRANCH  28  30
ENDBRANCH  27  28
ENDBRANCH  26  27
ENDBRANCH  20  26
ENDBRANCH   1  24
BRANCH  10  31
ATOM     31  C   UNL     1      -4.633  -7.969   1.924  0.00  0.00    +0.109 C 
BRANCH  31  32
ATOM     32  C   UNL     1      -5.712  -7.731   2.983  0.00  0.00    +0.016 C 
ATOM     33  C   UNL     1      -5.110  -7.926   4.376  0.00  0.00    +0.005 C 
ENDBRANCH  31  32
ENDBRANCH  10  31
TORSDOF 9
