REMARK  Name = ZINC07884375
REMARK  5 active torsions:
REMARK  status: ('A' for Active; 'I' for Inactive)
REMARK    1  A    between atoms: C_1  and  C_2
REMARK    2  A    between atoms: C_3  and  C_9
REMARK    3  A    between atoms: C_4  and  C_8
REMARK    4  A    between atoms: N_5  and  C_7
REMARK    5  A    between atoms: N_20  and  C_21
REMARK                            x       y       z     vdW  Elec       q    Type
REMARK                         _______ _______ _______ _____ _____    ______ ____
ROOT
ATOM      1  C   UNL     1      -0.597  -0.261  -3.756  0.00  0.00    +0.201 C 
ATOM      2  N   UNL     1      -1.864  -0.905  -4.123  0.00  0.00    -0.321 N 
ATOM      3  C   UNL     1      -2.804  -1.148  -3.128  0.00  0.00    +0.041 A 
ATOM      4  C   UNL     1      -3.699  -2.201  -3.212  0.00  0.00    +0.024 A 
ATOM      5  C   UNL     1      -4.622  -2.397  -2.203  0.00  0.00    +0.002 A 
ATOM      6  C   UNL     1      -4.661  -1.546  -1.109  0.00  0.00    +0.001 A 
ATOM      7  C   UNL     1      -3.774  -0.495  -1.008  0.00  0.00    +0.015 A 
ATOM      8  C   UNL     1      -2.834  -0.289  -2.015  0.00  0.00    +0.058 A 
ATOM      9  C   UNL     1      -1.850   0.805  -1.942  0.00  0.00    +0.254 C 
ATOM     10  O   UNL     1      -1.948   1.662  -1.084  0.00  0.00    -0.270 OA
ATOM     11  N   UNL     1      -0.843   0.846  -2.832  0.00  0.00    -0.244 N 
ATOM     12  H   UNL     1      -2.042  -1.156  -5.043  0.00  0.00    +0.148 HD
ENDROOT
BRANCH   1  15
ATOM     13  C   UNL     1       0.884  -2.662  -5.201  0.00  0.00    +0.068 C 
ATOM     14  C   UNL     1       0.958  -2.332  -3.733  0.00  0.00    +0.067 A 
ATOM     15  C   UNL     1       0.303  -1.273  -3.096  0.00  0.00    +0.034 A 
ATOM     16  C   UNL     1       0.622  -1.317  -1.781  0.00  0.00    +0.043 A 
ATOM     17  N   UNL     1       1.449  -2.366  -1.593  0.00  0.00    -0.271 N 
ATOM     18  N   UNL     1       1.641  -2.991  -2.832  0.00  0.00    -0.176 NA
ATOM     19  C   UNL     1       2.038  -2.782  -0.318  0.00  0.00    +0.172 C 
ATOM     20  C   UNL     1       0.141  -0.363  -0.718  0.00  0.00    +0.065 C 
ENDBRANCH   1  15
BRANCH  11  21
ATOM     21  C   UNL     1      -0.013   1.970  -2.871  0.00  0.00    +0.039 A 
ATOM     22  C   UNL     1       1.357   1.832  -2.685  0.00  0.00    +0.023 A 
ATOM     23  C   UNL     1       2.173   2.945  -2.725  0.00  0.00    +0.002 A 
ATOM     24  C   UNL     1       1.629   4.196  -2.950  0.00  0.00    +0.000 A 
ATOM     25  C   UNL     1       0.266   4.338  -3.135  0.00  0.00    +0.002 A 
ATOM     26  C   UNL     1      -0.556   3.228  -3.102  0.00  0.00    +0.023 A 
ENDBRANCH  11  21
TORSDOF 2
