REMARK  Name = ZINC14458425
REMARK  7 active torsions:
REMARK  status: ('A' for Active; 'I' for Inactive)
REMARK    1  A    between atoms: C_1  and  C_2
REMARK    2  A    between atoms: C_5  and  C_8
REMARK    3  A    between atoms: C_19  and  S_24
REMARK    4  A    between atoms: S_24  and  N_27
REMARK    5  A    between atoms: N_27  and  C_28
REMARK    6  A    between atoms: C_30  and  C_35
REMARK    7  A    between atoms: C_32  and  C_34
REMARK                            x       y       z     vdW  Elec       q    Type
REMARK                         _______ _______ _______ _____ _____    ______ ____
ROOT
ATOM      1  C   UNL     1       0.097   1.114  -2.017  0.00  0.00    +0.105 C 
ATOM      2  C   UNL     1      -0.888   1.867  -1.141  0.00  0.00    +0.029 C 
ATOM      3  C   UNL     1      -2.366   1.460  -1.208  0.00  0.00    +0.033 C 
ATOM      4  C   UNL     1      -2.849   1.820   0.198  0.00  0.00    -0.030 C 
ATOM      5  C   UNL     1      -1.842   1.788   1.031  0.00  0.00    -0.023 C 
ATOM      6  C   UNL     1      -0.608   1.379   0.312  0.00  0.00    +0.049 C 
ATOM      7  C   UNL     1       0.728   1.873   0.708  0.00  0.00    -0.018 A 
ATOM      8  C   UNL     1       1.022   2.260   1.998  0.00  0.00    +0.034 A 
ATOM      9  C   UNL     1       2.292   2.702   2.321  0.00  0.00    +0.109 A 
ATOM     10  C   UNL     1       3.273   2.756   1.349  0.00  0.00    +0.030 A 
ATOM     11  C   UNL     1       2.988   2.376   0.054  0.00  0.00    +0.025 A 
ATOM     12  C   UNL     1       1.713   1.937  -0.284  0.00  0.00    +0.031 A 
ATOM     13  N   UNL     1       1.437   1.591  -1.612  0.00  0.00    -0.336 N 
ATOM     14  H   UNL     1       2.138   1.666  -2.279  0.00  0.00    +0.147 HD
ENDROOT
BRANCH   1  19
ATOM     15  C   UNL     1      -0.354  -4.576  -1.111  0.00  0.00    +0.044 C 
ATOM     16  C   UNL     1      -0.236  -3.092  -1.347  0.00  0.00    -0.050 A 
ATOM     17  C   UNL     1      -0.989  -2.488  -2.337  0.00  0.00    +0.004 A 
ATOM     18  C   UNL     1      -0.881  -1.127  -2.553  0.00  0.00    +0.006 A 
ATOM     19  C   UNL     1      -0.021  -0.370  -1.781  0.00  0.00    -0.027 A 
ATOM     20  C   UNL     1       0.737  -0.975  -0.795  0.00  0.00    +0.006 A 
ATOM     21  C   UNL     1       0.625  -2.335  -0.575  0.00  0.00    +0.004 A 
ENDBRANCH   1  19
BRANCH   9  22
ATOM     22  S   UNL     1       2.658   3.197   3.972  0.00  0.00    +0.072 S 
ATOM     23  O   UNL     1       3.826   4.003   3.905  0.00  0.00    -0.150 OA
ATOM     24  O   UNL     1       1.441   3.665   4.536  0.00  0.00    -0.150 OA
BRANCH  22  25
ATOM     25  N   UNL     1       3.074   1.831   4.812  0.00  0.00    -0.216 N 
ATOM     26  H   UNL     1       3.962   1.748   5.194  0.00  0.00    +0.174 HD
BRANCH  25  27
ATOM     27  C   UNL     1       2.147   0.798   4.969  0.00  0.00    +0.049 A 
ATOM     28  C   UNL     1       0.844   1.086   5.356  0.00  0.00    +0.028 A 
ATOM     29  C   UNL     1      -0.071   0.063   5.506  0.00  0.00    -0.048 A 
ATOM     30  C   UNL     1       0.310  -1.247   5.282  0.00  0.00    +0.006 A 
ATOM     31  C   UNL     1       1.608  -1.537   4.901  0.00  0.00    -0.048 A 
ATOM     32  C   UNL     1       2.527  -0.519   4.744  0.00  0.00    +0.028 A 
ATOM     33  C   UNL     1       2.019  -2.966   4.658  0.00  0.00    +0.044 C 
ATOM     34  C   UNL     1      -1.486   0.374   5.921  0.00  0.00    +0.044 C 
ENDBRANCH  25  27
ENDBRANCH  22  25
ENDBRANCH   9  22
TORSDOF 4
