REMARK  Name = ZINC65393813
REMARK  6 active torsions:
REMARK  status: ('A' for Active; 'I' for Inactive)
REMARK    1  A    between atoms: C_1  and  C_2
REMARK    2  A    between atoms: C_2  and  C_3
REMARK    3  A    between atoms: C_2  and  C_4
REMARK    4  A    between atoms: C_4  and  C_5
REMARK    5  A    between atoms: C_8  and  C_11
REMARK    6  A    between atoms: C_18  and  C_20
REMARK                            x       y       z     vdW  Elec       q    Type
REMARK                         _______ _______ _______ _____ _____    ______ ____
ROOT
ATOM      1  C   UNL     1      -2.531  -5.047   0.919  0.00  0.00    +0.068 C 
ATOM      2  C   UNL     1      -2.117  -4.339   2.211  0.00  0.00    +0.012 C 
ATOM      3  C   UNL     1      -2.589  -5.154   3.416  0.00  0.00    +0.019 C 
ATOM      4  C   UNL     1      -1.925  -6.534   3.386  0.00  0.00    +0.108 C 
ATOM      5  N   UNL     1      -2.199  -7.163   2.087  0.00  0.00    -0.299 N 
ATOM      6  C   UNL     1      -1.866  -6.426   0.861  0.00  0.00    +0.116 C 
ATOM      7  C   UNL     1      -2.744  -8.394   2.022  0.00  0.00    +0.244 C 
ATOM      8  O   UNL     1      -2.966  -8.902   0.943  0.00  0.00    -0.273 OA
ENDROOT
BRANCH   7   9
ATOM      9  C   UNL     1      -3.080  -9.138   3.289  0.00  0.00    +0.215 C 
ATOM     10  C   UNL     1      -1.839  -9.795   3.852  0.00  0.00    +0.026 C 
ATOM     11  C   UNL     1      -2.086 -11.095   3.863  0.00  0.00    +0.036 A 
ATOM     12  C   UNL     1      -3.442 -11.379   3.334  0.00  0.00    +0.074 A 
ATOM     13  N   UNL     1      -4.015 -10.228   3.002  0.00  0.00    -0.266 NA
ATOM     14  C   UNL     1      -3.768 -12.799   3.324  0.00  0.00    +0.035 A 
ATOM     15  C   UNL     1      -2.870 -13.689   3.768  0.00  0.00    +0.048 A 
ATOM     16  S   UNL     1      -1.464 -12.712   4.257  0.00  0.00    -0.095 S 
ENDBRANCH   7   9
BRANCH   1  20
ATOM     17  C   UNL     1      -1.416  -2.035  -0.119  0.00  0.00    +0.137 C 
ATOM     18  N   UNL     1      -0.347  -2.739  -0.218  0.00  0.00    -0.072 NA
ATOM     19  O   UNL     1      -0.654  -4.116  -0.327  0.00  0.00    -0.369 OA
ATOM     20  C   UNL     1      -2.087  -4.214  -0.285  0.00  0.00    +0.296 C 
ATOM     21  N   UNL     1      -2.543  -2.822  -0.143  0.00  0.00    -0.293 N 
ATOM     22  H   UNL     1      -3.462  -2.519  -0.080  0.00  0.00    +0.151 HD
BRANCH  17  23
ATOM     23  C   UNL     1      -1.433  -0.534   0.013  0.00  0.00    +0.078 C 
BRANCH  23  25
ATOM     24  C   UNL     1      -0.019   1.526   0.010  0.00  0.00    +0.007 C 
ATOM     25  C   UNL     1       0.002  -0.004   0.002  0.00  0.00    -0.010 C 
ATOM     26  C   UNL     1       0.742  -0.511   1.242  0.00  0.00    +0.007 C 
ENDBRANCH  23  25
ENDBRANCH  17  23
ENDBRANCH   1  20
TORSDOF 4
