REMARK  Name = ZINC14464992
REMARK  3 active torsions:
REMARK  status: ('A' for Active; 'I' for Inactive)
REMARK    1  A    between atoms: C_6  and  C_7
REMARK    2  A    between atoms: C_18  and  S_23
REMARK    3  A    between atoms: S_23  and  N_26
REMARK                            x       y       z     vdW  Elec       q    Type
REMARK                         _______ _______ _______ _____ _____    ______ ____
ROOT
ATOM      1  C   UNL     1       2.333   4.215  -0.439  0.00  0.00    +0.105 C 
ATOM      2  C   UNL     1       3.559   3.650   0.283  0.00  0.00    +0.029 C 
ATOM      3  C   UNL     1       4.820   4.182  -0.459  0.00  0.00    +0.033 C 
ATOM      4  C   UNL     1       4.963   3.232  -1.633  0.00  0.00    -0.030 C 
ATOM      5  C   UNL     1       4.345   2.103  -1.387  0.00  0.00    -0.023 C 
ATOM      6  C   UNL     1       3.701   2.146  -0.021  0.00  0.00    +0.049 C 
ATOM      7  C   UNL     1       2.392   1.422  -0.013  0.00  0.00    -0.018 A 
ATOM      8  C   UNL     1       2.398   0.034  -0.019  0.00  0.00    +0.034 A 
ATOM      9  C   UNL     1       1.213  -0.673  -0.012  0.00  0.00    +0.106 A 
ATOM     10  C   UNL     1       0.002  -0.004   0.002  0.00  0.00    +0.030 A 
ATOM     11  C   UNL     1      -0.017   1.376   0.010  0.00  0.00    +0.025 A 
ATOM     12  C   UNL     1       1.177   2.088   0.002  0.00  0.00    +0.031 A 
ATOM     13  N   UNL     1       1.141   3.486   0.006  0.00  0.00    -0.336 N 
ATOM     14  H   UNL     1       0.347   3.962   0.297  0.00  0.00    +0.147 HD
ENDROOT
BRANCH   1  20
ATOM     15  C   UNL     1       1.604   6.060   1.087  0.00  0.00    +0.007 A 
ATOM     16  C   UNL     1       1.471   7.402   1.393  0.00  0.00    +0.020 A 
ATOM     17  C   UNL     1       1.908   8.362   0.497  0.00  0.00    +0.041 A 
ATOM     18  C   UNL     1       2.482   7.978  -0.702  0.00  0.00    +0.020 A 
ATOM     19  C   UNL     1       2.619   6.637  -1.004  0.00  0.00    +0.007 A 
ATOM     20  C   UNL     1       2.183   5.678  -0.109  0.00  0.00    -0.027 A 
ATOM     21 CL   UNL     1       1.734  10.047   0.878  0.00  0.00    -0.084 Cl
ENDBRANCH   1  20
BRANCH   9  22
ATOM     22  S   UNL     1       1.242  -2.434  -0.021  0.00  0.00    +0.061 S 
ATOM     23  O   UNL     1       2.498  -2.823   0.517  0.00  0.00    -0.153 OA
ATOM     24  O   UNL     1       0.008  -2.864   0.539  0.00  0.00    -0.153 OA
BRANCH  22  25
ATOM     25  N   UNL     1       1.235  -2.916  -1.605  0.00  0.00    -0.177 NA
ATOM     26  C   UNL     1       0.038  -3.192  -2.412  0.00  0.00    +0.109 C 
ATOM     27  C   UNL     1       0.519  -3.631  -3.811  0.00  0.00    +0.018 C 
ATOM     28  C   UNL     1       1.962  -4.131  -3.538  0.00  0.00    +0.018 C 
ATOM     29  C   UNL     1       2.430  -3.147  -2.438  0.00  0.00    +0.109 C 
ENDBRANCH  22  25
ENDBRANCH   9  22
TORSDOF 3
