REMARK  Name = ZINC22108997
REMARK  11 active torsions:
REMARK  status: ('A' for Active; 'I' for Inactive)
REMARK    1  A    between atoms: C_4  and  N_7
REMARK    2  A    between atoms: C_8  and  S_12
REMARK    3  A    between atoms: S_12  and  C_13
REMARK    4  A    between atoms: C_13  and  C_14
REMARK    5  A    between atoms: C_14  and  C_15
REMARK    6  A    between atoms: C_15  and  N_16
REMARK    7  A    between atoms: N_16  and  C_17
REMARK    8  A    between atoms: C_17  and  C_18
REMARK    9  A    between atoms: C_23  and  O_24
REMARK   10  A    between atoms: O_24  and  C_25
REMARK   11  A    between atoms: C_25  and  C_26
REMARK                            x       y       z     vdW  Elec       q    Type
REMARK                         _______ _______ _______ _____ _____    ______ ____
ROOT
ATOM      1  N   UNL     1      -1.051   7.864   0.054  0.00  0.00    +0.382 N 
ATOM      2  H   UNL     1      -0.490   8.172   0.948  0.00  0.00    -0.085 HD
ATOM      3  H   UNL     1      -0.507   8.181  -0.848  0.00  0.00    -0.085 HD
ENDROOT
BRANCH   1   4
ATOM      4  C   UNL     1      -1.198   6.402   0.048  0.00  0.00    -0.081 C 
BRANCH   4   5
ATOM      5  C   UNL     1       0.187   5.751   0.030  0.00  0.00    -0.008 C 
BRANCH   5   6
ATOM      6  C   UNL     1       0.034   4.228   0.024  0.00  0.00    +0.075 C 
BRANCH   6   7
ATOM      7  S   UNL     1       1.672   3.458   0.004  0.00  0.00    -0.084 S 
BRANCH   7   9
ATOM      8  N   UNL     1       2.052   0.693  -0.014  0.00  0.00    -0.187 N 
ATOM      9  C   UNL     1       1.210   1.758  -0.000  0.00  0.00    +0.214 A 
ATOM     10  N   UNL     1      -0.015   1.280   0.009  0.00  0.00    -0.101 NA
ATOM     11  N   UNL     1       0.002  -0.004   0.002  0.00  0.00    -0.022 NA
ATOM     12  N   UNL     1       1.216  -0.437  -0.012  0.00  0.00    -0.038 NA
BRANCH   8  16
ATOM     13  C   UNL     1       6.220   0.760  -0.052  0.00  0.00    +0.000 A 
ATOM     14  C   UNL     1       5.553  -0.236   0.636  0.00  0.00    +0.002 A 
ATOM     15  C   UNL     1       4.172  -0.261   0.650  0.00  0.00    +0.028 A 
ATOM     16  C   UNL     1       3.454   0.716  -0.027  0.00  0.00    +0.070 A 
ATOM     17  C   UNL     1       4.127   1.712  -0.721  0.00  0.00    +0.028 A 
ATOM     18  C   UNL     1       5.508   1.734  -0.728  0.00  0.00    +0.002 A 
ENDBRANCH   8  16
ENDBRANCH   7   9
ENDBRANCH   6   7
ENDBRANCH   5   6
ENDBRANCH   4   5
ENDBRANCH   1   4
BRANCH   1  19
ATOM     19  C   UNL     1      -2.363   8.524   0.070  0.00  0.00    -0.043 C 
BRANCH  19  20
ATOM     20  C   UNL     1      -2.173  10.019   0.076  0.00  0.00    -0.021 A 
ATOM     21  C   UNL     1      -2.280  10.725   1.259  0.00  0.00    +0.025 A 
ATOM     22  C   UNL     1      -2.105  12.097   1.265  0.00  0.00    +0.041 A 
ATOM     23  C   UNL     1      -1.823  12.766   0.086  0.00  0.00    +0.023 A 
ATOM     24  C   UNL     1      -1.715  12.063  -1.098  0.00  0.00    +0.047 A 
ATOM     25  C   UNL     1      -1.885  10.686  -1.105  0.00  0.00    +0.122 A 
ATOM     26 CL   UNL     1      -2.240  12.982   2.752  0.00  0.00    -0.084 Cl
BRANCH  25  27
ATOM     27  O   UNL     1      -1.774   9.993  -2.269  0.00  0.00    -0.487 OA
BRANCH  27  28
ATOM     28  C   UNL     1      -1.475  10.746  -3.447  0.00  0.00    +0.267 C 
BRANCH  28  29
ATOM     29  C   UNL     1      -1.391   9.815  -4.630  0.00  0.00    +0.025 A 
ATOM     30  C   UNL     1      -1.589   8.458  -4.457  0.00  0.00    +0.010 A 
ATOM     31  C   UNL     1      -1.518   7.606  -5.543  0.00  0.00    +0.001 A 
ATOM     32  C   UNL     1      -1.237   8.108  -6.800  0.00  0.00    +0.003 A 
ATOM     33  C   UNL     1      -1.034   9.463  -6.974  0.00  0.00    +0.039 A 
ATOM     34  C   UNL     1      -1.110  10.319  -5.888  0.00  0.00    +0.130 A 
ATOM     35  F   UNL     1      -0.911  11.645  -6.057  0.00  0.00    -0.205 F 
ENDBRANCH  28  29
ENDBRANCH  27  28
ENDBRANCH  25  27
ENDBRANCH  19  20
ENDBRANCH   1  19
TORSDOF 11
