REMARK  Name = ZINC03145793
REMARK  10 active torsions:
REMARK  status: ('A' for Active; 'I' for Inactive)
REMARK    1  A    between atoms: C_1  and  C_2
REMARK    2  A    between atoms: C_5  and  N_8
REMARK    3  A    between atoms: N_8  and  C_9
REMARK    4  A    between atoms: C_9  and  C_10
REMARK    5  A    between atoms: N_12  and  N_13
REMARK    6  A    between atoms: C_14  and  C_15
REMARK    7  A    between atoms: C_20  and  O_21
REMARK    8  A    between atoms: O_21  and  C_22
REMARK    9  A    between atoms: C_22  and  C_24
REMARK   10  A    between atoms: C_27  and  N_30
REMARK                            x       y       z     vdW  Elec       q    Type
REMARK                         _______ _______ _______ _____ _____    ______ ____
ROOT
ATOM      1  C   UNL     1       7.374  -0.364  -0.115  0.00  0.00    +0.038 A 
ATOM      2  C   UNL     1       8.746  -0.106  -0.103  0.00  0.00    +0.028 A 
ATOM      3  C   UNL     1       9.635  -1.127   0.163  0.00  0.00    +0.019 A 
ATOM      4  C   UNL     1       9.172  -2.408   0.418  0.00  0.00    +0.019 A 
ATOM      5  C   UNL     1       7.816  -2.675   0.408  0.00  0.00    +0.048 A 
ATOM      6  C   UNL     1       6.909  -1.660   0.149  0.00  0.00    +0.141 A 
ATOM      7 BR   UNL     1      11.494  -0.778   0.180  0.00  0.00    -0.050 Br
ENDROOT
BRANCH   1   9
ATOM      8  N   UNL     1       5.148   0.467  -0.467  0.00  0.00    -0.188 NA
ATOM      9  C   UNL     1       6.418   0.722  -0.399  0.00  0.00    +0.142 C 
BRANCH   8  12
ATOM     10  C   UNL     1       2.924   1.234  -0.834  0.00  0.00    +0.249 C 
ATOM     11  O   UNL     1       2.511   0.122  -0.581  0.00  0.00    -0.272 OA
ATOM     12  N   UNL     1       4.250   1.474  -0.845  0.00  0.00    -0.206 N 
ATOM     13  H   UNL     1       4.584   2.344  -1.115  0.00  0.00    +0.177 HD
BRANCH  10  14
ATOM     14  C   UNL     1       1.954   2.348  -1.135  0.00  0.00    +0.199 C 
BRANCH  14  15
ATOM     15  N   UNL     1       0.584   1.836  -1.059  0.00  0.00    -0.335 N 
ATOM     16  H   UNL     1       0.426   0.904  -0.841  0.00  0.00    +0.147 HD
BRANCH  15  21
ATOM     17  C   UNL     1      -3.795   5.296  -2.065  0.00  0.00    +0.044 C 
ATOM     18  C   UNL     1      -2.631   4.376  -1.797  0.00  0.00    -0.050 A 
ATOM     19  C   UNL     1      -2.859   3.048  -1.487  0.00  0.00    +0.005 A 
ATOM     20  C   UNL     1      -1.795   2.203  -1.241  0.00  0.00    +0.023 A 
ATOM     21  C   UNL     1      -0.495   2.688  -1.307  0.00  0.00    +0.028 A 
ATOM     22  C   UNL     1      -0.270   4.024  -1.614  0.00  0.00    +0.023 A 
ATOM     23  C   UNL     1      -1.339   4.863  -1.863  0.00  0.00    +0.005 A 
ENDBRANCH  15  21
ENDBRANCH  14  15
ENDBRANCH  10  14
ENDBRANCH   8  12
ENDBRANCH   1   9
BRANCH   6  24
ATOM     24  O   UNL     1       5.576  -1.921   0.145  0.00  0.00    -0.422 OA
BRANCH  24  25
ATOM     25  C   UNL     1       5.018  -2.235  -1.040  0.00  0.00    +0.344 C 
ATOM     26  O   UNL     1       5.678  -2.172  -2.058  0.00  0.00    -0.245 OA
BRANCH  25  27
ATOM     27  C   UNL     1       3.604  -2.656  -1.101  0.00  0.00    +0.060 A 
ATOM     28  C   UNL     1       2.846  -2.741   0.068  0.00  0.00    +0.017 A 
ATOM     29  C   UNL     1       1.524  -3.131   0.003  0.00  0.00    +0.033 A 
ATOM     30  C   UNL     1       0.952  -3.447  -1.217  0.00  0.00    +0.126 A 
ATOM     31  C   UNL     1       1.699  -3.369  -2.379  0.00  0.00    +0.033 A 
ATOM     32  C   UNL     1       3.020  -2.977  -2.329  0.00  0.00    +0.017 A 
BRANCH  30  33
ATOM     33  N   UNL     1      -0.465  -3.869  -1.278  0.00  0.00    +0.056 N 
ATOM     34  O   UNL     1      -0.972  -4.148  -2.351  0.00  0.00    -0.126 OA
ATOM     35  O   UNL     1      -1.125  -3.938  -0.257  0.00  0.00    -0.126 OA
ENDBRANCH  30  33
ENDBRANCH  25  27
ENDBRANCH  24  25
ENDBRANCH   6  24
TORSDOF 9
