REMARK  Name = ZINC02766627
REMARK  7 active torsions:
REMARK  status: ('A' for Active; 'I' for Inactive)
REMARK    1  A    between atoms: C_4  and  C_7
REMARK    2  A    between atoms: C_7  and  C_8
REMARK    3  A    between atoms: C_8  and  C_9
REMARK    4  A    between atoms: C_12  and  S_15
REMARK    5  A    between atoms: N_13  and  N_14
REMARK    6  A    between atoms: S_15  and  C_16
REMARK    7  A    between atoms: C_16  and  C_17
REMARK                            x       y       z     vdW  Elec       q    Type
REMARK                         _______ _______ _______ _____ _____    ______ ____
ROOT
ATOM      1  C   UNL     1      -2.079   1.768  -1.057  0.00  0.00    +0.151 A 
ATOM      2  N   UNL     1      -2.369   2.211  -2.248  0.00  0.00    -0.132 NA
ATOM      3  N   UNL     1      -1.313   2.232  -2.980  0.00  0.00    -0.121 NA
ATOM      4  C   UNL     1      -0.282   1.804  -2.288  0.00  0.00    +0.209 A 
ATOM      5  N   UNL     1      -0.741   1.490  -1.041  0.00  0.00    -0.228 N 
ENDROOT
BRANCH   5   6
ATOM      6  N   UNL     1      -0.012   1.005   0.008  0.00  0.00    -0.295 N 
ATOM      7  H   UNL     1       1.067   0.823  -0.110  0.00  0.00    +0.163 HD
ATOM      8  H   UNL     1      -0.503   0.796   0.969  0.00  0.00    +0.163 HD
ENDBRANCH   5   6
BRANCH   1   9
ATOM      9  C   UNL     1      -3.042   1.594   0.090  0.00  0.00    +0.082 C 
BRANCH   9  10
ATOM     10  C   UNL     1      -3.093   2.883   0.912  0.00  0.00    +0.043 C 
BRANCH  10  14
ATOM     11  C   UNL     1      -5.820   2.390   4.163  0.00  0.00    +0.000 A 
ATOM     12  C   UNL     1      -4.486   2.066   4.325  0.00  0.00    +0.000 A 
ATOM     13  C   UNL     1      -3.604   2.225   3.273  0.00  0.00    +0.003 A 
ATOM     14  C   UNL     1      -4.055   2.709   2.059  0.00  0.00    -0.047 A 
ATOM     15  C   UNL     1      -5.388   3.038   1.899  0.00  0.00    +0.003 A 
ATOM     16  C   UNL     1      -6.272   2.873   2.949  0.00  0.00    +0.000 A 
ENDBRANCH  10  14
ENDBRANCH   9  10
ENDBRANCH   1   9
BRANCH   4  17
ATOM     17  S   UNL     1       1.377   1.661  -2.862  0.00  0.00    -0.080 S 
BRANCH  17  18
ATOM     18  C   UNL     1       1.175   2.253  -4.560  0.00  0.00    +0.112 C 
BRANCH  18  19
ATOM     19  C   UNL     1       2.506   2.217  -5.266  0.00  0.00    -0.036 A 
ATOM     20  C   UNL     1       2.894   1.082  -5.953  0.00  0.00    +0.004 A 
ATOM     21  C   UNL     1       4.114   1.049  -6.602  0.00  0.00    +0.001 A 
ATOM     22  C   UNL     1       4.948   2.151  -6.563  0.00  0.00    +0.015 A 
ATOM     23  C   UNL     1       4.561   3.287  -5.875  0.00  0.00    +0.018 A 
ATOM     24  C   UNL     1       3.337   3.321  -5.231  0.00  0.00    +0.019 A 
ATOM     25 BR   UNL     1       5.700   4.795  -5.821  0.00  0.00    -0.050 Br
ENDBRANCH  18  19
ENDBRANCH  17  18
ENDBRANCH   4  17
TORSDOF 7
