REMARK  Name = ZINC19459652
REMARK  6 active torsions:
REMARK  status: ('A' for Active; 'I' for Inactive)
REMARK    1  A    between atoms: C_1  and  C_2
REMARK    2  A    between atoms: C_2  and  C_4
REMARK    3  A    between atoms: C_2  and  N_9
REMARK    4  A    between atoms: C_10  and  C_12
REMARK    5  A    between atoms: C_12  and  C_14
REMARK    6  A    between atoms: C_12  and  N_15
REMARK                            x       y       z     vdW  Elec       q    Type
REMARK                         _______ _______ _______ _____ _____    ______ ____
ROOT
ATOM      1  N   UNL     1       3.726   7.939   2.845  0.00  0.00    -0.290 N 
ATOM      2  C   UNL     1       3.677   8.219   4.290  0.00  0.00    +0.114 C 
ATOM      3  C   UNL     1       5.079   8.591   4.767  0.00  0.00    +0.088 C 
ATOM      4  C   UNL     1       5.344  10.080   4.593  0.00  0.00    +0.180 C 
ATOM      5  C   UNL     1       5.390  10.514   3.134  0.00  0.00    +0.078 C 
ATOM      6  C   UNL     1       4.022  10.360   2.471  0.00  0.00    +0.101 C 
ATOM      7  C   UNL     1       3.889   8.934   1.974  0.00  0.00    +0.216 C 
ATOM      8  O   UNL     1       3.928   8.700   0.785  0.00  0.00    -0.276 OA
ATOM      9  N   UNL     1       4.275  10.829   5.271  0.00  0.00    -0.274 N 
ATOM     10  C   UNL     1       4.347  11.072   6.598  0.00  0.00    +0.250 C 
ATOM     11  O   UNL     1       3.438  11.628   7.184  0.00  0.00    -0.270 OA
ATOM     12  C   UNL     1       5.566  10.643   7.313  0.00  0.00    +0.078 A 
ATOM     13  C   UNL     1       5.617  10.566   8.701  0.00  0.00    +0.017 A 
ATOM     14  C   UNL     1       6.784  10.162   9.316  0.00  0.00    +0.001 A 
ATOM     15  C   UNL     1       7.897   9.833   8.558  0.00  0.00    +0.004 A 
ATOM     16  C   UNL     1       7.855   9.904   7.179  0.00  0.00    +0.046 A 
ATOM     17  C   UNL     1       6.693  10.308   6.546  0.00  0.00    +0.135 A 
ATOM     18  O   UNL     1       6.609  10.392   5.197  0.00  0.00    -0.468 OA
ATOM     19  H   UNL     1       3.410  11.194   4.696  0.00  0.00    +0.153 HD
ENDROOT
BRANCH   1  20
ATOM     20  C   UNL     1       3.602   6.561   2.364  0.00  0.00    +0.159 C 
ATOM     21  C   UNL     1       4.861   6.177   1.585  0.00  0.00    +0.038 C 
BRANCH  20  23
ATOM     22  N   UNL     1       2.086   5.267   0.898  0.00  0.00    -0.307 N 
ATOM     23  C   UNL     1       2.400   6.451   1.461  0.00  0.00    +0.234 C 
ATOM     24  O   UNL     1       1.715   7.428   1.241  0.00  0.00    -0.274 OA
ATOM     25  H   UNL     1       2.707   4.382   1.097  0.00  0.00    +0.149 HD
BRANCH  22  27
ATOM     26  C   UNL     1       1.309   5.567  -1.402  0.00  0.00    +0.033 C 
ATOM     27  C   UNL     1       0.918   5.160   0.021  0.00  0.00    +0.107 C 
BRANCH  27  28
ATOM     28  C   UNL     1       0.421   3.738   0.017  0.00  0.00    +0.010 A 
ATOM     29  C   UNL     1      -0.855   3.279   0.027  0.00  0.00    +0.013 A 
ATOM     30  C   UNL     1      -1.077   1.915   0.017  0.00  0.00    +0.008 A 
ATOM     31  C   UNL     1      -0.013   1.076   0.008  0.00  0.00    +0.045 A 
ATOM     32  S   UNL     1       1.359   2.219   0.001  0.00  0.00    -0.100 S 
ENDBRANCH  27  28
ENDBRANCH  22  27
ENDBRANCH  20  23
ENDBRANCH   1  20
TORSDOF 4
