REMARK  Name = ZINC33810017
REMARK  7 active torsions:
REMARK  status: ('A' for Active; 'I' for Inactive)
REMARK    1  A    between atoms: C_1  and  C_2
REMARK    2  A    between atoms: C_2  and  O_3
REMARK    3  A    between atoms: O_3  and  C_4
REMARK    4  A    between atoms: C_7  and  C_10
REMARK    5  A    between atoms: C_15  and  S_19
REMARK    6  A    between atoms: S_19  and  C_20
REMARK    7  A    between atoms: C_20  and  C_21
REMARK                            x       y       z     vdW  Elec       q    Type
REMARK                         _______ _______ _______ _____ _____    ______ ____
ROOT
ATOM      1  C   UNL     1       0.002  -0.004   0.002  0.00  0.00    +0.092 C 
ATOM      2  C   UNL     1       1.345  -0.533   0.410  0.00  0.00    +0.069 A 
ATOM      3  C   UNL     1       2.447   0.265   0.392  0.00  0.00    +0.135 A 
ATOM      4  N   UNL     1       3.658  -0.255   0.764  0.00  0.00    -0.208 NA
ATOM      5  C   UNL     1       3.753  -1.559   1.149  0.00  0.00    +0.171 A 
ATOM      6  N   UNL     1       2.693  -2.341   1.172  0.00  0.00    -0.302 N 
ATOM      7  C   UNL     1       1.485  -1.877   0.818  0.00  0.00    +0.258 A 
ATOM      8  O   UNL     1       0.511  -2.615   0.848  0.00  0.00    -0.267 OA
ATOM      9  N   UNL     1       2.342   1.581   0.003  0.00  0.00    -0.302 N 
ATOM     10  C   UNL     1       1.129   2.214   0.003  0.00  0.00    +0.017 C 
ATOM     11  C   UNL     1      -0.018   1.503   0.010  0.00  0.00    +0.024 C 
ATOM     12  C   UNL     1      -1.268   2.147   0.032  0.00  0.00    +0.162 C 
ATOM     13  O   UNL     1      -2.283   1.478   0.037  0.00  0.00    -0.292 OA
ATOM     14  C   UNL     1      -1.373   3.647   0.042  0.00  0.00    +0.080 C 
ATOM     15  C   UNL     1      -0.132   4.228   0.727  0.00  0.00    +0.014 C 
ATOM     16  C   UNL     1       1.109   3.723  -0.011  0.00  0.00    +0.051 C 
ATOM     17  H   UNL     1       3.239   2.134  -0.312  0.00  0.00    +0.153 HD
ATOM     18  H   UNL     1       2.791  -3.390   1.486  0.00  0.00    +0.171 HD
ENDROOT
BRANCH   1  22
ATOM     19  C   UNL     1      -0.910  -1.394  -3.935  0.00  0.00    +0.121 A 
ATOM     20  C   UNL     1      -1.720  -1.751  -2.867  0.00  0.00    +0.046 A 
ATOM     21  C   UNL     1      -1.423  -1.300  -1.595  0.00  0.00    +0.008 A 
ATOM     22  C   UNL     1      -0.319  -0.494  -1.386  0.00  0.00    -0.035 A 
ATOM     23  C   UNL     1       0.487  -0.133  -2.450  0.00  0.00    +0.008 A 
ATOM     24  C   UNL     1       0.197  -0.586  -3.723  0.00  0.00    +0.046 A 
BRANCH  19  25
ATOM     25  O   UNL     1      -1.200  -1.835  -5.187  0.00  0.00    -0.492 OA
BRANCH  25  27
ATOM     26  C   UNL     1      -0.806  -2.019  -7.564  0.00  0.00    +0.048 C 
ATOM     27  C   UNL     1      -0.322  -1.429  -6.238  0.00  0.00    +0.225 C 
ENDBRANCH  25  27
ENDBRANCH  19  25
ENDBRANCH   1  22
BRANCH   5  28
ATOM     28  S   UNL     1       5.320  -2.210   1.621  0.00  0.00    -0.084 S 
BRANCH  28  29
ATOM     29  C   UNL     1       4.848  -3.913   2.013  0.00  0.00    +0.104 C 
BRANCH  29  30
ATOM     30  C   UNL     1       6.065  -4.683   2.455  0.00  0.00    -0.023 C 
ATOM     31  C   UNL     1       6.145  -5.136   3.682  0.00  0.00    +0.005 C 
ENDBRANCH  29  30
ENDBRANCH  28  29
ENDBRANCH   5  28
TORSDOF 6
