REMARK  Name = ZINC09686770
REMARK  8 active torsions:
REMARK  status: ('A' for Active; 'I' for Inactive)
REMARK    1  A    between atoms: C_1  and  C_2
REMARK    2  A    between atoms: C_3  and  C_25
REMARK    3  A    between atoms: C_7  and  C_8
REMARK    4  A    between atoms: C_11  and  S_13
REMARK    5  A    between atoms: S_13  and  N_16
REMARK    6  A    between atoms: N_16  and  C_17
REMARK    7  A    between atoms: C_21  and  S_23
REMARK    8  A    between atoms: S_23  and  C_24
REMARK                            x       y       z     vdW  Elec       q    Type
REMARK                         _______ _______ _______ _____ _____    ______ ____
ROOT
ATOM      1  C   UNL     1      -1.171  -0.896   0.008  0.00  0.00    +0.039 A 
ATOM      2  C   UNL     1      -2.324  -0.812  -0.730  0.00  0.00    +0.019 A 
ATOM      3  C   UNL     1      -3.292  -1.775  -0.555  0.00  0.00    +0.037 A 
ATOM      4  C   UNL     1      -3.082  -2.769   0.347  0.00  0.00    +0.146 A 
ATOM      5  S   UNL     1      -1.465  -2.362   0.983  0.00  0.00    -0.067 S 
ENDROOT
BRANCH   1  12
ATOM      6  C   UNL     1       1.838  -1.809  -0.026  0.00  0.00    +0.048 C 
ATOM      7  C   UNL     1       1.326  -0.391  -0.013  0.00  0.00    -0.002 A 
ATOM      8  C   UNL     1       2.105   0.765  -0.014  0.00  0.00    +0.063 A 
ATOM      9  N   UNL     1       1.311   1.806  -0.001  0.00  0.00    -0.178 NA
ATOM     10  N   UNL     1      -0.016   1.361   0.009  0.00  0.00    -0.276 N 
ATOM     11  H   UNL     1      -0.832   1.939   0.020  0.00  0.00    +0.189 HD
ATOM     12  C   UNL     1       0.002  -0.004   0.002  0.00  0.00    +0.075 A 
ATOM     13  C   UNL     1       3.611   0.810  -0.028  0.00  0.00    +0.068 C 
ENDBRANCH   1  12
BRANCH   4  14
ATOM     14  S   UNL     1      -4.136  -4.113   0.779  0.00  0.00    +0.079 S 
ATOM     15  O   UNL     1      -3.762  -4.518   2.089  0.00  0.00    -0.149 OA
ATOM     16  O   UNL     1      -5.460  -3.712   0.455  0.00  0.00    -0.149 OA
BRANCH  14  17
ATOM     17  N   UNL     1      -3.763  -5.372  -0.230  0.00  0.00    -0.216 N 
ATOM     18  H   UNL     1      -4.420  -5.694  -0.867  0.00  0.00    +0.174 HD
BRANCH  17  19
ATOM     19  C   UNL     1      -2.502  -5.970  -0.165  0.00  0.00    +0.049 A 
ATOM     20  C   UNL     1      -1.944  -6.282   1.069  0.00  0.00    +0.024 A 
ATOM     21  C   UNL     1      -0.698  -6.873   1.136  0.00  0.00    +0.003 A 
ATOM     22  C   UNL     1      -0.002  -7.157  -0.024  0.00  0.00    +0.015 A 
ATOM     23  C   UNL     1      -0.554  -6.848  -1.261  0.00  0.00    +0.009 A 
ATOM     24  C   UNL     1      -1.809  -6.258  -1.331  0.00  0.00    +0.039 A 
BRANCH  23  25
ATOM     25  S   UNL     1       0.334  -7.212  -2.739  0.00  0.00    -0.129 S 
ATOM     26  C   UNL     1       1.876  -7.964  -2.151  0.00  0.00    +0.090 C 
ENDBRANCH  23  25
ENDBRANCH  17  19
ENDBRANCH  14  17
ENDBRANCH   4  14
TORSDOF 5
