REMARK  Name = ZINC01466742
REMARK  10 active torsions:
REMARK  status: ('A' for Active; 'I' for Inactive)
REMARK    1  A    between atoms: C_1  and  C_2
REMARK    2  A    between atoms: C_3  and  C_18
REMARK    3  A    between atoms: C_4  and  C_10
REMARK    4  A    between atoms: C_13  and  S_16
REMARK    5  A    between atoms: S_16  and  C_17
REMARK    6  A    between atoms: C_18  and  O_20
REMARK    7  A    between atoms: O_20  and  C_21
REMARK    8  A    between atoms: C_21  and  C_22
REMARK    9  A    between atoms: C_22  and  C_23
REMARK   10  A    between atoms: C_22  and  C_24
REMARK                            x       y       z     vdW  Elec       q    Type
REMARK                         _______ _______ _______ _____ _____    ______ ____
ROOT
ATOM      1  C   UNL     1       3.518   2.495   0.020  0.00  0.00    +0.061 C 
ATOM      2  C   UNL     1       2.340   1.556   0.006  0.00  0.00    +0.019 C 
ATOM      3  C   UNL     1       2.553   0.224  -0.076  0.00  0.00    +0.078 C 
ATOM      4  C   UNL     1       1.340  -0.684  -0.087  0.00  0.00    +0.141 C 
ATOM      5  N   UNL     1       0.021  -0.036  -0.007  0.00  0.00    -0.315 N 
ATOM      6  C   UNL     1      -0.030   1.308   0.070  0.00  0.00    +0.135 C 
ATOM      7  S   UNL     1      -1.558   2.076   0.156  0.00  0.00    -0.019 S 
ATOM      8  N   UNL     1       1.076   2.064   0.076  0.00  0.00    -0.300 N 
ATOM      9  H   UNL     1      -0.793  -0.564  -0.010  0.00  0.00    +0.149 HD
ATOM     10  H   UNL     1       0.972   3.027   0.134  0.00  0.00    +0.154 HD
ENDROOT
BRANCH   4  11
ATOM     11  C   UNL     1       1.382  -1.498  -1.355  0.00  0.00    -0.023 A 
ATOM     12  C   UNL     1       0.816  -1.000  -2.514  0.00  0.00    +0.007 A 
ATOM     13  C   UNL     1       0.857  -1.740  -3.678  0.00  0.00    +0.015 A 
ATOM     14  C   UNL     1       1.459  -2.993  -3.682  0.00  0.00    +0.008 A 
ATOM     15  C   UNL     1       2.022  -3.493  -2.514  0.00  0.00    +0.015 A 
ATOM     16  C   UNL     1       1.982  -2.744  -1.355  0.00  0.00    +0.007 A 
BRANCH  14  17
ATOM     17  S   UNL     1       1.508  -3.945  -5.164  0.00  0.00    -0.129 S 
ATOM     18  C   UNL     1       0.668  -2.899  -6.385  0.00  0.00    +0.090 C 
ENDBRANCH  14  17
ENDBRANCH   4  11
BRANCH   3  19
ATOM     19  C   UNL     1       3.863  -0.304  -0.148  0.00  0.00    +0.339 C 
ATOM     20  O   UNL     1       4.816   0.446  -0.247  0.00  0.00    -0.245 OA
BRANCH  19  21
ATOM     21  O   UNL     1       4.056  -1.639  -0.107  0.00  0.00    -0.461 OA
BRANCH  21  22
ATOM     22  C   UNL     1       5.405  -2.102  -0.185  0.00  0.00    +0.235 C 
BRANCH  22  23
ATOM     23  C   UNL     1       5.424  -3.631  -0.124  0.00  0.00    +0.020 C 
ATOM     24  C   UNL     1       6.854  -4.132  -0.332  0.00  0.00    +0.010 C 
ATOM     25  C   UNL     1       4.915  -4.093   1.243  0.00  0.00    +0.010 C 
ENDBRANCH  22  23
ENDBRANCH  21  22
ENDBRANCH  19  21
ENDBRANCH   3  19
TORSDOF 6
