REMARK  Name = ZINC01513523
REMARK  3 active torsions:
REMARK  status: ('A' for Active; 'I' for Inactive)
REMARK    1  A    between atoms: C_4  and  C_8
REMARK    2  A    between atoms: C_13  and  C_15
REMARK    3  A    between atoms: C_19  and  N_21
REMARK                            x       y       z     vdW  Elec       q    Type
REMARK                         _______ _______ _______ _____ _____    ______ ____
ROOT
ATOM      1  C   UNL     1      -1.624   4.594   0.040  0.00  0.00    +0.047 C 
ATOM      2  C   UNL     1      -0.768   3.513   0.027  0.00  0.00    +0.153 C 
ATOM      3  C   UNL     1       0.706   3.541   0.013  0.00  0.00    +0.364 C 
ATOM      4  O   UNL     1       1.427   4.521   0.012  0.00  0.00    -0.243 OA
ATOM      5  O   UNL     1       1.085   2.245   0.004  0.00  0.00    -0.402 OA
ATOM      6  C   UNL     1      -0.018   1.472   0.010  0.00  0.00    +0.232 C 
ATOM      7  N   UNL     1      -1.106   2.191   0.019  0.00  0.00    -0.205 NA
ENDROOT
BRANCH   1  11
ATOM      8  C   UNL     1      -5.817   3.977   0.075  0.00  0.00    +0.004 A 
ATOM      9  C   UNL     1      -5.242   4.837   0.995  0.00  0.00    +0.039 A 
ATOM     10  C   UNL     1      -3.877   5.045   0.992  0.00  0.00    +0.132 A 
ATOM     11  C   UNL     1      -3.073   4.381   0.052  0.00  0.00    +0.031 A 
ATOM     12  C   UNL     1      -3.667   3.516  -0.879  0.00  0.00    +0.051 A 
ATOM     13  C   UNL     1      -5.032   3.318  -0.856  0.00  0.00    +0.021 A 
ATOM     14 CL   UNL     1      -2.687   2.693  -2.052  0.00  0.00    -0.083 Cl
ATOM     15  F   UNL     1      -3.317   5.885   1.890  0.00  0.00    -0.205 F 
ENDBRANCH   1  11
BRANCH   6  16
ATOM     16  C   UNL     1       0.002  -0.004   0.002  0.00  0.00    +0.039 A 
ATOM     17  C   UNL     1      -1.196  -0.722   0.009  0.00  0.00    +0.015 A 
ATOM     18  C   UNL     1      -1.171  -2.100   0.001  0.00  0.00    +0.023 A 
ATOM     19  C   UNL     1       0.040  -2.774  -0.015  0.00  0.00    +0.071 A 
ATOM     20  C   UNL     1       1.231  -2.068  -0.022  0.00  0.00    +0.145 A 
ATOM     21  C   UNL     1       1.219  -0.689  -0.019  0.00  0.00    +0.047 A 
ATOM     22 CL   UNL     1       0.063  -4.509  -0.026  0.00  0.00    -0.081 Cl
BRANCH  20  23
ATOM     23  N   UNL     1       2.520  -2.795  -0.039  0.00  0.00    +0.058 N 
ATOM     24  O   UNL     1       3.569  -2.176  -0.045  0.00  0.00    -0.126 OA
ATOM     25  O   UNL     1       2.532  -4.013  -0.047  0.00  0.00    -0.126 OA
ENDBRANCH  20  23
ENDBRANCH   6  16
TORSDOF 3
