REMARK  Name = ZINC34762809
REMARK  13 active torsions:
REMARK  status: ('A' for Active; 'I' for Inactive)
REMARK    1  A    between atoms: C_1  and  C_2
REMARK    2  A    between atoms: C_2  and  C_3
REMARK    3  A    between atoms: C_4  and  C_34
REMARK    4  A    between atoms: C_8  and  N_24
REMARK    5  A    between atoms: C_10  and  S_12
REMARK    6  A    between atoms: S_12  and  C_13
REMARK    7  A    between atoms: C_13  and  C_14
REMARK    8  A    between atoms: N_16  and  C_17
REMARK    9  A    between atoms: C_20  and  C_23
REMARK   10  A    between atoms: N_27  and  C_30
REMARK   11  A    between atoms: C_30  and  C_31
REMARK   12  A    between atoms: C_31  and  C_32
REMARK   13  A    between atoms: C_31  and  C_33
REMARK                            x       y       z     vdW  Elec       q    Type
REMARK                         _______ _______ _______ _____ _____    ______ ____
ROOT
ATOM      1  C   UNL     1       0.651  -0.762  -1.243  0.00  0.00    -0.025 A 
ATOM      2  C   UNL     1      -0.111  -0.980  -2.324  0.00  0.00    -0.007 A 
ATOM      3  S   UNL     1       1.059  -1.515  -3.558  0.00  0.00    -0.073 S 
ATOM      4  C   UNL     1       2.542  -1.430  -2.588  0.00  0.00    +0.115 A 
ATOM      5  C   UNL     1       2.086  -0.982  -1.330  0.00  0.00    +0.051 A 
ATOM      6  C   UNL     1       3.091  -0.818  -0.337  0.00  0.00    +0.134 A 
ATOM      7  N   UNL     1       4.351  -1.081  -0.641  0.00  0.00    -0.206 NA
ATOM      8  C   UNL     1       4.713  -1.495  -1.849  0.00  0.00    +0.191 A 
ATOM      9  N   UNL     1       3.818  -1.675  -2.812  0.00  0.00    -0.214 NA
ATOM     10  C   UNL     1      -1.602  -0.814  -2.462  0.00  0.00    +0.052 C 
ENDROOT
BRANCH   6  11
ATOM     11  N   UNL     1       2.754  -0.387   0.934  0.00  0.00    -0.318 N 
ATOM     12  C   UNL     1       2.444  -1.350   2.001  0.00  0.00    +0.088 C 
ATOM     13  C   UNL     1       3.277  -0.992   3.236  0.00  0.00    -0.060 C 
ATOM     14  N   UNL     1       3.036   0.411   3.597  0.00  0.00    +0.382 N 
ATOM     15  C   UNL     1       3.518   1.293   2.526  0.00  0.00    -0.060 C 
ATOM     16  C   UNL     1       2.703   1.047   1.257  0.00  0.00    +0.088 C 
ATOM     17  H   UNL     1       2.047   0.558   3.732  0.00  0.00    -0.082 HD
BRANCH  14  18
ATOM     18  C   UNL     1       3.748   0.724   4.843  0.00  0.00    -0.076 C 
BRANCH  18  19
ATOM     19  C   UNL     1       3.400   2.146   5.287  0.00  0.00    -0.034 C 
ATOM     20  C   UNL     1       1.913   2.219   5.641  0.00  0.00    +0.005 C 
ATOM     21  C   UNL     1       4.235   2.516   6.514  0.00  0.00    +0.005 C 
ENDBRANCH  18  19
ENDBRANCH  14  18
ENDBRANCH   6  11
BRANCH   1  23
ATOM     22  C   UNL     1      -0.133   1.234   0.003  0.00  0.00    +0.009 C 
ATOM     23  C   UNL     1       0.030  -0.287   0.045  0.00  0.00    +0.033 C 
ENDBRANCH   1  23
BRANCH   8  24
ATOM     24  S   UNL     1       6.412  -1.825  -2.177  0.00  0.00    -0.077 S 
BRANCH  24  25
ATOM     25  C   UNL     1       6.431  -2.353  -3.912  0.00  0.00    +0.173 C 
BRANCH  25  26
ATOM     26  C   UNL     1       7.845  -2.670  -4.326  0.00  0.00    +0.227 C 
ATOM     27  O   UNL     1       8.751  -2.551  -3.529  0.00  0.00    -0.275 OA
ATOM     28  N   UNL     1       8.102  -3.085  -5.582  0.00  0.00    -0.285 N 
ATOM     29  H   UNL     1       7.372  -3.238  -6.202  0.00  0.00    +0.155 HD
BRANCH  28  30
ATOM     30  C   UNL     1       9.423  -3.295  -5.992  0.00  0.00    +0.033 A 
ATOM     31  C   UNL     1       9.804  -2.995  -7.294  0.00  0.00    +0.023 A 
ATOM     32  C   UNL     1      11.109  -3.204  -7.696  0.00  0.00    +0.005 A 
ATOM     33  C   UNL     1      12.036  -3.711  -6.803  0.00  0.00    -0.050 A 
ATOM     34  C   UNL     1      11.660  -4.011  -5.507  0.00  0.00    +0.005 A 
ATOM     35  C   UNL     1      10.358  -3.799  -5.097  0.00  0.00    +0.023 A 
ATOM     36  C   UNL     1      13.459  -3.938  -7.245  0.00  0.00    +0.044 C 
ENDBRANCH  28  30
ENDBRANCH  25  26
ENDBRANCH  24  25
ENDBRANCH   8  24
TORSDOF 8
