REMARK  Name = ZINC08644242
REMARK  8 active torsions:
REMARK  status: ('A' for Active; 'I' for Inactive)
REMARK    1  A    between atoms: C_1  and  C_2
REMARK    2  A    between atoms: C_2  and  C_4
REMARK    3  A    between atoms: C_2  and  N_12
REMARK    4  A    between atoms: C_13  and  C_15
REMARK    5  A    between atoms: C_15  and  S_16
REMARK    6  A    between atoms: S_16  and  C_17
REMARK    7  A    between atoms: C_20  and  C_23
REMARK    8  A    between atoms: N_21  and  N_22
REMARK                            x       y       z     vdW  Elec       q    Type
REMARK                         _______ _______ _______ _____ _____    ______ ____
ROOT
ATOM      1  S   UNL     1       4.938   8.258  -2.637  0.00  0.00    -0.075 S 
ENDROOT
BRANCH   1   2
ATOM      2  C   UNL     1       4.480   9.472  -3.829  0.00  0.00    +0.209 A 
ATOM      3  N   UNL     1       3.269   9.934  -4.045  0.00  0.00    -0.121 NA
ATOM      4  N   UNL     1       3.292  10.811  -4.984  0.00  0.00    -0.127 NA
ATOM      5  C   UNL     1       4.518  10.956  -5.432  0.00  0.00    +0.183 A 
ATOM      6  N   UNL     1       5.316  10.103  -4.706  0.00  0.00    -0.224 N 
BRANCH   5   7
ATOM      7  C   UNL     1       4.957  11.865  -6.511  0.00  0.00    +0.039 A 
ATOM      8  C   UNL     1       5.803  11.399  -7.519  0.00  0.00    +0.014 A 
ATOM      9  C   UNL     1       6.205  12.250  -8.527  0.00  0.00    +0.021 A 
ATOM     10  C   UNL     1       5.782  13.569  -8.534  0.00  0.00    +0.042 A 
ATOM     11  C   UNL     1       4.947  14.040  -7.535  0.00  0.00    +0.040 A 
ATOM     12  C   UNL     1       4.533  13.196  -6.524  0.00  0.00    +0.053 A 
ATOM     13 CL   UNL     1       3.488  13.787  -5.270  0.00  0.00    -0.083 Cl
ATOM     14 CL   UNL     1       6.298  14.636  -9.803  0.00  0.00    -0.083 Cl
ENDBRANCH   5   7
BRANCH   6  15
ATOM     15  N   UNL     1       6.664   9.923  -4.835  0.00  0.00    -0.295 N 
ATOM     16  H   UNL     1       6.872   9.256  -5.563  0.00  0.00    +0.163 HD
ATOM     17  H   UNL     1       7.131  10.801  -5.004  0.00  0.00    +0.163 HD
ENDBRANCH   6  15
ENDBRANCH   1   2
BRANCH   1  18
ATOM     18  C   UNL     1       3.322   7.923  -1.893  0.00  0.00    +0.173 C 
BRANCH  18  20
ATOM     19  N   UNL     1       2.393   6.473  -0.117  0.00  0.00    -0.308 N 
ATOM     20  C   UNL     1       3.472   6.883  -0.813  0.00  0.00    +0.224 C 
ATOM     21  O   UNL     1       4.564   6.413  -0.571  0.00  0.00    -0.275 OA
ATOM     22  H   UNL     1       1.520   6.848  -0.311  0.00  0.00    +0.149 HD
BRANCH  19  24
ATOM     23  C   UNL     1       2.944   6.141   2.243  0.00  0.00    +0.033 C 
ATOM     24  C   UNL     1       2.539   5.462   0.933  0.00  0.00    +0.100 C 
BRANCH  24  25
ATOM     25  C   UNL     1       1.228   4.743   1.124  0.00  0.00    -0.026 A 
ATOM     26  C   UNL     1       0.041   5.450   1.084  0.00  0.00    +0.007 A 
ATOM     27  C   UNL     1      -1.162   4.793   1.259  0.00  0.00    +0.022 A 
ATOM     28  C   UNL     1      -1.179   3.425   1.469  0.00  0.00    +0.059 A 
ATOM     29  C   UNL     1       0.011   2.718   1.514  0.00  0.00    +0.060 A 
ATOM     30  C   UNL     1       1.214   3.378   1.339  0.00  0.00    +0.027 A 
ATOM     31 CL   UNL     1      -0.008   1.004   1.784  0.00  0.00    -0.082 Cl
ATOM     32 CL   UNL     1      -2.690   2.598   1.682  0.00  0.00    -0.082 Cl
ENDBRANCH  24  25
ENDBRANCH  19  24
ENDBRANCH  18  20
ENDBRANCH   1  18
TORSDOF 7
