REMARK  Name = ZINC12292330
REMARK  6 active torsions:
REMARK  status: ('A' for Active; 'I' for Inactive)
REMARK    1  A    between atoms: C_5  and  C_7
REMARK    2  A    between atoms: C_7  and  O_24
REMARK    3  A    between atoms: C_12  and  C_13
REMARK    4  A    between atoms: C_12  and  N_45
REMARK    5  A    between atoms: C_13  and  C_15
REMARK    6  A    between atoms: C_13  and  O_23
REMARK                            x       y       z     vdW  Elec       q    Type
REMARK                         _______ _______ _______ _____ _____    ______ ____
ROOT
ATOM      1  C   UNL     1       0.350   8.223  -2.178  0.00  0.00    +0.090 C 
ATOM      2  C   UNL     1       1.681   7.643  -2.663  0.00  0.00    +0.021 C 
ATOM      3  C   UNL     1       1.570   6.119  -2.743  0.00  0.00    -0.076 C 
ATOM      4  C   UNL     1      -0.063   6.087  -0.952  0.00  0.00    -0.076 C 
ATOM      5  C   UNL     1       0.000   7.610  -0.819  0.00  0.00    +0.021 C 
ATOM      6  N   UNL     1       1.256   5.590  -1.399  0.00  0.00    +0.382 N 
ATOM      7  H   UNL     1       1.974   5.910  -0.738  0.00  0.00    -0.082 HD
ENDROOT
BRANCH   1  12
ATOM      8  C   UNL     1      -0.237  11.922  -2.651  0.00  0.00    +0.001 A 
ATOM      9  C   UNL     1       0.695  12.464  -1.785  0.00  0.00    +0.003 A 
ATOM     10  C   UNL     1       1.517  11.634  -1.046  0.00  0.00    +0.039 A 
ATOM     11  C   UNL     1       1.403  10.259  -1.169  0.00  0.00    +0.129 A 
ATOM     12  C   UNL     1       0.472   9.718  -2.039  0.00  0.00    +0.019 A 
ATOM     13  C   UNL     1      -0.349  10.550  -2.777  0.00  0.00    +0.009 A 
ATOM     14  F   UNL     1       2.202   9.447  -0.443  0.00  0.00    -0.205 F 
ENDBRANCH   1  12
BRANCH   1  15
ATOM     15  O   UNL     1      -0.678   7.912  -3.120  0.00  0.00    -0.384 OA
ATOM     16  H   UNL     1      -1.551   8.249  -2.877  0.00  0.00    +0.211 HD
ENDBRANCH   1  15
BRANCH   6  17
ATOM     17  C   UNL     1       1.255   4.112  -1.426  0.00  0.00    -0.042 C 
BRANCH  17  18
ATOM     18  C   UNL     1       1.150   3.593   0.010  0.00  0.00    +0.128 C 
BRANCH  18  19
ATOM     19  C   UNL     1       1.171   2.087   0.002  0.00  0.00    -0.019 A 
ATOM     20  C   UNL     1       2.378   1.412  -0.013  0.00  0.00    +0.007 A 
ATOM     21  C   UNL     1       2.398   0.030  -0.021  0.00  0.00    +0.022 A 
ATOM     22  C   UNL     1       1.211  -0.679  -0.013  0.00  0.00    +0.059 A 
ATOM     23  C   UNL     1       0.002  -0.004   0.002  0.00  0.00    +0.060 A 
ATOM     24  C   UNL     1      -0.017   1.379   0.010  0.00  0.00    +0.027 A 
ATOM     25 CL   UNL     1      -1.489  -0.893   0.011  0.00  0.00    -0.082 Cl
ATOM     26 CL   UNL     1       1.236  -2.415  -0.023  0.00  0.00    -0.082 Cl
ENDBRANCH  18  19
BRANCH  18  27
ATOM     27  O   UNL     1       2.254   4.081   0.775  0.00  0.00    -0.389 OA
ATOM     28  H   UNL     1       3.118   3.809   0.436  0.00  0.00    +0.210 HD
ENDBRANCH  18  27
ENDBRANCH  17  18
ENDBRANCH   6  17
TORSDOF 6
