REMARK  Name = ZINC04675692
REMARK  2 active torsions:
REMARK  status: ('A' for Active; 'I' for Inactive)
REMARK    1  A    between atoms: C_4  and  N_24
REMARK    2  A    between atoms: C_5  and  C_7
REMARK                            x       y       z     vdW  Elec       q    Type
REMARK                         _______ _______ _______ _____ _____    ______ ____
ROOT
ATOM      1  C   UNL     1      -1.901   4.247   1.299  0.00  0.00    +0.107 C 
ATOM      2  C   UNL     1      -1.272   4.813   2.575  0.00  0.00    +0.029 C 
ATOM      3  C   UNL     1       0.117   5.400   2.200  0.00  0.00    +0.033 C 
ATOM      4  C   UNL     1       1.025   4.186   2.190  0.00  0.00    -0.030 C 
ATOM      5  C   UNL     1       0.503   3.216   2.898  0.00  0.00    -0.023 C 
ATOM      6  C   UNL     1      -0.828   3.639   3.475  0.00  0.00    +0.049 C 
ATOM      7  C   UNL     1      -1.811   2.507   3.427  0.00  0.00    -0.018 A 
ATOM      8  C   UNL     1      -1.628   1.447   4.306  0.00  0.00    +0.006 A 
ATOM      9  C   UNL     1      -2.498   0.377   4.309  0.00  0.00    +0.001 A 
ATOM     10  C   UNL     1      -3.566   0.351   3.431  0.00  0.00    +0.017 A 
ATOM     11  C   UNL     1      -3.757   1.398   2.554  0.00  0.00    +0.039 A 
ATOM     12  C   UNL     1      -2.879   2.482   2.548  0.00  0.00    +0.046 A 
ATOM     13  N   UNL     1      -3.121   3.514   1.642  0.00  0.00    -0.336 N 
ATOM     14 BR   UNL     1      -5.218   1.363   1.352  0.00  0.00    -0.048 Br
ATOM     15  H   UNL     1      -3.579   3.168   0.812  0.00  0.00    +0.147 HD
ENDROOT
BRANCH   1  20
ATOM     16  C   UNL     1      -0.049   1.109   0.313  0.00  0.00    +0.000 A 
ATOM     17  C   UNL     1       0.864   1.603  -0.600  0.00  0.00    +0.002 A 
ATOM     18  C   UNL     1       0.883   2.952  -0.897  0.00  0.00    +0.033 A 
ATOM     19  C   UNL     1      -0.012   3.808  -0.283  0.00  0.00    +0.131 A 
ATOM     20  C   UNL     1      -0.926   3.314   0.629  0.00  0.00    +0.003 A 
ATOM     21  C   UNL     1      -0.947   1.963   0.924  0.00  0.00    +0.008 A 
BRANCH  19  22
ATOM     22  N   UNL     1       0.008   5.253  -0.601  0.00  0.00    +0.057 N 
ATOM     23  O   UNL     1       1.071   5.826  -0.763  0.00  0.00    -0.126 OA
ATOM     24  O   UNL     1      -1.038   5.870  -0.701  0.00  0.00    -0.126 OA
ENDBRANCH  19  22
ENDBRANCH   1  20
TORSDOF 2
