REMARK  Name = ZINC04221966
REMARK  10 active torsions:
REMARK  status: ('A' for Active; 'I' for Inactive)
REMARK    1  A    between atoms: C_1  and  C_2
REMARK    2  A    between atoms: C_7  and  C_9
REMARK    3  A    between atoms: C_9  and  S_10
REMARK    4  A    between atoms: S_10  and  C_13
REMARK    5  A    between atoms: C_21  and  C_42
REMARK    6  A    between atoms: C_24  and  O_41
REMARK    7  A    between atoms: C_26  and  C_30
REMARK    8  A    between atoms: C_30  and  C_32
REMARK    9  A    between atoms: C_30  and  C_33
REMARK   10  A    between atoms: C_40  and  N_76
REMARK                            x       y       z     vdW  Elec       q    Type
REMARK                         _______ _______ _______ _____ _____    ______ ____
ROOT
ATOM      1  C   UNL     1      -0.943   4.673  -7.292  0.00  0.00    +0.014 C 
ATOM      2  C   UNL     1      -1.028   6.165  -6.965  0.00  0.00    +0.042 C 
ATOM      3  C   UNL     1      -0.754   6.984  -8.219  0.00  0.00    +0.055 A 
ATOM      4  C   UNL     1       0.022   8.099  -8.152  0.00  0.00    +0.014 A 
ATOM      5  S   UNL     1       0.027   8.667  -9.832  0.00  0.00    -0.075 S 
ATOM      6  C   UNL     1      -0.977   7.406 -10.483  0.00  0.00    +0.100 A 
ATOM      7  N   UNL     1      -1.231   6.680  -9.421  0.00  0.00    -0.247 NA
ATOM      8  C   UNL     1       0.687   8.673  -6.952  0.00  0.00    +0.051 C 
ATOM      9  C   UNL     1       0.087   8.028  -5.688  0.00  0.00    -0.022 C 
ATOM     10  C   UNL     1       0.011   6.513  -5.890  0.00  0.00    +0.033 C 
ATOM     11  C   UNL     1      -0.427   5.829  -4.591  0.00  0.00    +0.123 C 
ATOM     12  C   UNL     1       0.538   6.172  -3.458  0.00  0.00    +0.029 C 
ATOM     13  C   UNL     1       0.527   7.688  -3.243  0.00  0.00    +0.007 C 
ATOM     14  C   UNL     1       1.024   8.360  -4.522  0.00  0.00    +0.008 C 
ATOM     15  C   UNL     1      -1.310   8.589  -5.412  0.00  0.00    +0.012 C 
ENDROOT
BRANCH  12  16
ATOM     16  C   UNL     1       0.093   5.468  -2.175  0.00  0.00    +0.078 C 
ATOM     17  C   UNL     1      -1.284   5.990  -1.758  0.00  0.00    +0.017 C 
BRANCH  16  18
ATOM     18  C   UNL     1       1.089   5.747  -1.078  0.00  0.00    +0.219 C 
ATOM     19  O   UNL     1       0.874   6.630  -0.275  0.00  0.00    -0.275 OA
ATOM     20  N   UNL     1       2.217   5.015  -0.990  0.00  0.00    -0.305 N 
ATOM     21  C   UNL     1       3.253   5.341   0.002  0.00  0.00    +0.089 C 
ATOM     22  C   UNL     1       3.598   4.068   0.782  0.00  0.00    -0.060 C 
ATOM     23  C   UNL     1       2.822   2.654  -1.029  0.00  0.00    -0.060 C 
ATOM     24  C   UNL     1       2.445   3.869  -1.883  0.00  0.00    +0.089 C 
ATOM     25  C   UNL     1       4.457   1.817   0.548  0.00  0.00    -0.096 C 
ATOM     26  N   UNL     1       3.979   3.010  -0.179  0.00  0.00    +0.380 N 
ATOM     27  H   UNL     1       4.735   3.362  -0.778  0.00  0.00    -0.082 HD
ENDBRANCH  16  18
ENDBRANCH  12  16
BRANCH  11  28
ATOM     28  O   UNL     1      -0.445   4.413  -4.785  0.00  0.00    -0.391 OA
ATOM     29  H   UNL     1      -0.805   3.918  -4.037  0.00  0.00    +0.210 HD
ENDBRANCH  11  28
BRANCH   6  30
ATOM     30  C   UNL     1      -1.438   7.200 -11.903  0.00  0.00    +0.234 C 
BRANCH  30  31
ATOM     31  S   UNL     1      -3.012   8.063 -12.159  0.00  0.00    +0.003 S 
ATOM     32  O   UNL     1      -4.041   7.439 -11.403  0.00  0.00    -0.169 OA
ATOM     33  O   UNL     1      -2.816   9.469 -12.094  0.00  0.00    -0.169 OA
BRANCH  31  34
ATOM     34  C   UNL     1      -3.435   7.746 -13.840  0.00  0.00    +0.089 A 
ATOM     35  C   UNL     1      -3.011   8.609 -14.834  0.00  0.00    +0.028 A 
ATOM     36  C   UNL     1      -3.337   8.358 -16.153  0.00  0.00    +0.022 A 
ATOM     37  C   UNL     1      -4.098   7.248 -16.478  0.00  0.00    +0.041 A 
ATOM     38  C   UNL     1      -4.526   6.388 -15.483  0.00  0.00    +0.022 A 
ATOM     39  C   UNL     1      -4.194   6.637 -14.164  0.00  0.00    +0.028 A 
ATOM     40 CL   UNL     1      -4.514   6.936 -18.134  0.00  0.00    -0.084 Cl
ENDBRANCH  31  34
ENDBRANCH  30  31
ENDBRANCH   6  30
TORSDOF 6
