REMARK  Name = ZINC58908909
REMARK  4 active torsions:
REMARK  status: ('A' for Active; 'I' for Inactive)
REMARK    1  A    between atoms: C_1  and  C_2
REMARK    2  A    between atoms: C_5  and  C_7
REMARK    3  A    between atoms: C_8  and  C_9
REMARK    4  A    between atoms: C_14  and  N_17
REMARK                            x       y       z     vdW  Elec       q    Type
REMARK                         _______ _______ _______ _____ _____    ______ ____
ROOT
ATOM      1  C   UNL     1       2.957  -5.364  -0.039  0.00  0.00    +0.239 C 
ATOM      2  O   UNL     1       2.485  -4.245  -0.129  0.00  0.00    -0.271 OA
ATOM      3  N   UNL     1       4.292  -5.527   0.056  0.00  0.00    -0.298 N 
ATOM      4  C   UNL     1       5.181  -4.364   0.175  0.00  0.00    +0.106 C 
ATOM      5  C   UNL     1       6.251  -4.447  -0.919  0.00  0.00    +0.004 C 
ATOM      6  C   UNL     1       6.966  -5.797  -0.826  0.00  0.00    -0.066 C 
ATOM      7  C   UNL     1       5.957  -6.926  -1.050  0.00  0.00    +0.004 C 
ATOM      8  C   UNL     1       4.884  -6.872   0.048  0.00  0.00    +0.106 C 
ENDROOT
BRANCH   6   9
ATOM      9  N   UNL     1       8.014  -5.866  -1.852  0.00  0.00    +0.382 N 
ATOM     10  C   UNL     1       9.050  -4.832  -1.598  0.00  0.00    -0.079 C 
ATOM     11  C   UNL     1      10.288  -5.376  -2.353  0.00  0.00    -0.020 C 
ATOM     12  C   UNL     1      10.195  -6.901  -2.115  0.00  0.00    -0.020 C 
ATOM     13  C   UNL     1       8.716  -7.166  -1.777  0.00  0.00    -0.079 C 
ATOM     14  H   UNL     1       7.613  -5.740  -2.770  0.00  0.00    -0.081 HD
ENDBRANCH   6   9
BRANCH   1  16
ATOM     15  C   UNL     1       0.758  -6.327  -0.029  0.00  0.00    +0.020 C 
ATOM     16  C   UNL     1       2.105  -6.493  -0.035  0.00  0.00    +0.068 C 
BRANCH  15  21
ATOM     17  C   UNL     1      -1.600 -11.301  -0.019  0.00  0.00    +0.051 C 
ATOM     18  C   UNL     1      -1.214  -9.844  -0.020  0.00  0.00    -0.013 A 
ATOM     19  C   UNL     1      -2.035  -8.765  -0.016  0.00  0.00    +0.011 A 
ATOM     20  C   UNL     1      -1.484  -7.506  -0.018  0.00  0.00    +0.016 A 
ATOM     21  C   UNL     1      -0.095  -7.457  -0.025  0.00  0.00    +0.013 A 
ATOM     22  S   UNL     1       0.333  -9.188  -0.020  0.00  0.00    -0.094 S 
ENDBRANCH  15  21
ENDBRANCH   1  16
TORSDOF 3
