REMARK  Name = ZINC65550486
REMARK  8 active torsions:
REMARK  status: ('A' for Active; 'I' for Inactive)
REMARK    1  A    between atoms: C_1  and  O_2
REMARK    2  A    between atoms: O_2  and  C_3
REMARK    3  A    between atoms: C_6  and  C_9
REMARK    4  A    between atoms: C_13  and  S_19
REMARK    5  A    between atoms: N_15  and  C_16
REMARK    6  A    between atoms: C_16  and  C_17
REMARK    7  A    between atoms: S_19  and  C_20
REMARK    8  A    between atoms: C_20  and  C_21
REMARK                            x       y       z     vdW  Elec       q    Type
REMARK                         _______ _______ _______ _____ _____    ______ ____
ROOT
ATOM      1  C   UNL     1       2.587  -2.550   4.310  0.00  0.00    +0.172 C 
ATOM      2  N   UNL     1       2.435  -1.743   5.542  0.00  0.00    -0.233 NA
ATOM      3  N   UNL     1       1.274  -2.333   6.228  0.00  0.00    -0.229 NA
ATOM      4  C   UNL     1       1.436  -3.788   5.970  0.00  0.00    +0.200 C 
ATOM      5  N   UNL     1       1.952  -3.857   4.581  0.00  0.00    -0.254 NA
ATOM      6  H   UNL     1       3.262  -1.801   6.117  0.00  0.00    +0.143 HD
ATOM      7  H   UNL     1       1.300  -2.136   7.217  0.00  0.00    +0.143 HD
ENDROOT
BRANCH   1  11
ATOM      8  C   UNL     1       0.626  -0.618   1.042  0.00  0.00    +0.120 A 
ATOM      9  C   UNL     1       1.202   0.138   2.051  0.00  0.00    +0.046 A 
ATOM     10  C   UNL     1       1.835  -0.488   3.107  0.00  0.00    +0.010 A 
ATOM     11  C   UNL     1       1.895  -1.869   3.158  0.00  0.00    -0.015 A 
ATOM     12  C   UNL     1       1.322  -2.625   2.152  0.00  0.00    +0.010 A 
ATOM     13  C   UNL     1       0.682  -2.003   1.098  0.00  0.00    +0.046 A 
BRANCH   8  15
ATOM     14  C   UNL     1      -0.017   1.425   0.010  0.00  0.00    +0.277 C 
ATOM     15  O   UNL     1       0.002  -0.004   0.002  0.00  0.00    -0.495 OA
ENDBRANCH   8  15
ENDBRANCH   1  11
BRANCH   5  16
ATOM     16  C   UNL     1       2.918  -4.953   4.431  0.00  0.00    +0.115 C 
BRANCH  16  17
ATOM     17  C   UNL     1       2.191  -6.272   4.471  0.00  0.00    -0.019 C 
ATOM     18  C   UNL     1       2.333  -7.128   3.490  0.00  0.00    +0.005 C 
ENDBRANCH  16  17
ENDBRANCH   5  16
BRANCH   4  19
ATOM     19  S   UNL     1      -0.161  -4.637   6.100  0.00  0.00    -0.121 S 
BRANCH  19  20
ATOM     20  C   UNL     1      -1.200  -3.811   4.863  0.00  0.00    +0.118 C 
BRANCH  20  21
ATOM     21  C   UNL     1      -2.595  -4.439   4.867  0.00  0.00    +0.184 C 
ATOM     22  N   UNL     1      -3.182  -4.354   6.210  0.00  0.00    -0.363 N 
ATOM     23  C   UNL     1      -3.405  -5.570   6.617  0.00  0.00    +0.060 A 
ATOM     24  C   UNL     1      -3.970  -6.121   7.856  0.00  0.00    +0.027 A 
ATOM     25  C   UNL     1      -4.082  -7.457   8.000  0.00  0.00    +0.002 A 
ATOM     26  C   UNL     1      -3.677  -8.363   7.003  0.00  0.00    +0.002 A 
ATOM     27  C   UNL     1      -3.146  -7.964   5.830  0.00  0.00    +0.027 A 
ATOM     28  C   UNL     1      -2.977  -6.529   5.562  0.00  0.00    +0.060 A 
ATOM     29  N   UNL     1      -2.506  -5.869   4.544  0.00  0.00    -0.363 N 
ATOM     30  H   UNL     1      -3.369  -3.540   6.704  0.00  0.00    +0.162 HD
ATOM     31  H   UNL     1      -2.159  -6.251   3.723  0.00  0.00    +0.162 HD
ENDBRANCH  20  21
ENDBRANCH  19  20
ENDBRANCH   4  19
TORSDOF 7
