REMARK  Name = ZINC41077823
REMARK  10 active torsions:
REMARK  status: ('A' for Active; 'I' for Inactive)
REMARK    1  A    between atoms: C_1  and  C_2
REMARK    2  A    between atoms: C_2  and  O_3
REMARK    3  A    between atoms: O_3  and  C_4
REMARK    4  A    between atoms: C_6  and  C_19
REMARK    5  A    between atoms: C_9  and  O_10
REMARK    6  A    between atoms: O_10  and  C_11
REMARK    7  A    between atoms: C_11  and  C_12
REMARK    8  A    between atoms: C_16  and  C_18
REMARK    9  A    between atoms: C_29  and  S_31
REMARK   10  A    between atoms: S_31  and  C_34
REMARK                            x       y       z     vdW  Elec       q    Type
REMARK                         _______ _______ _______ _____ _____    ______ ____
ROOT
ATOM      1  C   UNL     1       1.328  -2.069  -1.384  0.00  0.00    +0.162 A 
ATOM      2  C   UNL     1       0.552  -2.790  -0.499  0.00  0.00    +0.057 A 
ATOM      3  C   UNL     1       0.614  -4.191  -0.499  0.00  0.00    -0.021 A 
ATOM      4  C   UNL     1       1.464  -4.850  -1.398  0.00  0.00    +0.012 A 
ATOM      5  C   UNL     1       2.234  -4.122  -2.277  0.00  0.00    +0.050 A 
ATOM      6  C   UNL     1       2.167  -2.734  -2.279  0.00  0.00    +0.162 A 
ENDROOT
BRANCH   3   7
ATOM      7  C   UNL     1      -0.206  -4.962   0.438  0.00  0.00    +0.024 C 
ATOM      8  C   UNL     1      -0.757  -6.161   0.044  0.00  0.00    +0.081 C 
ATOM      9  C   UNL     1      -1.442  -7.065   1.010  0.00  0.00    +0.153 C 
ATOM     10  N   UNL     1      -2.118  -6.633   2.042  0.00  0.00    -0.283 NA
ATOM     11  N   UNL     1      -1.290  -8.434   0.701  0.00  0.00    -0.150 N 
ATOM     12  C   UNL     1      -1.009  -8.763  -0.607  0.00  0.00    +0.182 C 
ATOM     13  N   UNL     1      -0.768  -7.947  -1.602  0.00  0.00    -0.152 NA
ATOM     14  C   UNL     1      -0.707  -6.619  -1.367  0.00  0.00    +0.273 C 
ATOM     15  O   UNL     1      -0.609  -5.819  -2.284  0.00  0.00    -0.268 OA
ATOM     16  S   UNL     1      -1.041 -10.535  -0.559  0.00  0.00    -0.015 S 
ATOM     17  C   UNL     1      -1.323 -10.717   1.197  0.00  0.00    +0.235 C 
ATOM     18  N   UNL     1      -1.409  -9.479   1.592  0.00  0.00    -0.145 NA
ATOM     19  H   UNL     1      -2.546  -7.265   2.640  0.00  0.00    +0.188 HD
BRANCH  17  20
ATOM     20  S   UNL     1      -1.449 -12.193   2.150  0.00  0.00    +0.019 S 
ATOM     21  O   UNL     1      -0.606 -13.126   1.488  0.00  0.00    -0.168 OA
ATOM     22  O   UNL     1      -1.174 -11.789   3.484  0.00  0.00    -0.168 OA
ATOM     23  C   UNL     1      -3.184 -12.700   1.996  0.00  0.00    +0.202 C 
ENDBRANCH  17  20
ENDBRANCH   3   7
BRANCH   1  24
ATOM     24  O   UNL     1       1.270  -0.710  -1.388  0.00  0.00    -0.489 OA
BRANCH  24  26
ATOM     25  C   UNL     1       0.460   1.425  -0.598  0.00  0.00    +0.048 C 
ATOM     26  C   UNL     1       0.390  -0.096  -0.445  0.00  0.00    +0.226 C 
ENDBRANCH  24  26
ENDBRANCH   1  24
BRANCH   6  27
ATOM     27  O   UNL     1       2.925  -2.022  -3.152  0.00  0.00    -0.484 OA
BRANCH  27  28
ATOM     28  C   UNL     1       3.762  -2.765  -4.041  0.00  0.00    +0.264 C 
BRANCH  28  29
ATOM     29  C   UNL     1       4.522  -1.813  -4.929  0.00  0.00    -0.010 A 
ATOM     30  C   UNL     1       3.980  -1.412  -6.136  0.00  0.00    +0.007 A 
ATOM     31  C   UNL     1       4.677  -0.539  -6.950  0.00  0.00    +0.001 A 
ATOM     32  C   UNL     1       5.916  -0.067  -6.557  0.00  0.00    +0.003 A 
ATOM     33  C   UNL     1       6.457  -0.467  -5.350  0.00  0.00    -0.050 A 
ATOM     34  C   UNL     1       5.758  -1.337  -4.533  0.00  0.00    +0.010 A 
ATOM     35  C   UNL     1       7.807   0.047  -4.921  0.00  0.00    +0.044 C 
ENDBRANCH  28  29
ENDBRANCH  27  28
ENDBRANCH   6  27
TORSDOF 7
