REMARK  Name = ZINC03595328
REMARK  9 active torsions:
REMARK  status: ('A' for Active; 'I' for Inactive)
REMARK    1  A    between atoms: C_1  and  C_2
REMARK    2  A    between atoms: C_2  and  C_3
REMARK    3  A    between atoms: C_3  and  C_21
REMARK    4  A    between atoms: N_6  and  C_10
REMARK    5  A    between atoms: C_10  and  C_11
REMARK    6  A    between atoms: N_16  and  C_17
REMARK    7  A    between atoms: C_17  and  C_18
REMARK    8  A    between atoms: C_18  and  C_19
REMARK    9  A    between atoms: C_18  and  C_20
REMARK                            x       y       z     vdW  Elec       q    Type
REMARK                         _______ _______ _______ _____ _____    ______ ____
ROOT
ATOM      1  C   UNL     1      -1.433  -0.534   0.013  0.00  0.00    +0.138 C 
ATOM      2  C   UNL     1      -2.192  -0.043  -1.205  0.00  0.00    +0.251 C 
ATOM      3  O   UNL     1      -1.933  -0.267  -2.368  0.00  0.00    -0.272 OA
ATOM      4  N   UNL     1      -3.214   0.692  -0.725  0.00  0.00    -0.215 N 
ATOM      5  C   UNL     1      -3.207   0.734   0.612  0.00  0.00    +0.310 C 
ATOM      6  O   UNL     1      -4.031   1.335   1.273  0.00  0.00    -0.252 OA
ATOM      7  N   UNL     1      -2.187   0.036   1.143  0.00  0.00    -0.281 N 
ATOM      8  H   UNL     1      -1.987  -0.072   2.086  0.00  0.00    +0.152 HD
ENDROOT
BRANCH   1   9
ATOM      9  C   UNL     1      -1.441  -2.039   0.076  0.00  0.00    -0.015 A 
ATOM     10  C   UNL     1      -0.400  -2.759  -0.481  0.00  0.00    +0.007 A 
ATOM     11  C   UNL     1      -0.406  -4.140  -0.423  0.00  0.00    +0.020 A 
ATOM     12  C   UNL     1      -1.454  -4.802   0.191  0.00  0.00    +0.041 A 
ATOM     13  C   UNL     1      -2.496  -4.081   0.747  0.00  0.00    +0.020 A 
ATOM     14  C   UNL     1      -2.486  -2.700   0.694  0.00  0.00    +0.007 A 
ATOM     15 CL   UNL     1      -1.463  -6.537   0.262  0.00  0.00    -0.084 Cl
ENDBRANCH   1   9
BRANCH   1  17
ATOM     16  C   UNL     1      -0.019   1.526   0.010  0.00  0.00    +0.007 C 
ATOM     17  C   UNL     1       0.002  -0.004   0.002  0.00  0.00    +0.037 C 
ENDBRANCH   1  17
BRANCH   4  18
ATOM     18  C   UNL     1      -4.210   1.363  -1.565  0.00  0.00    +0.214 C 
BRANCH  18  19
ATOM     19  C   UNL     1      -5.368   0.431  -1.812  0.00  0.00    +0.238 C 
ATOM     20  O   UNL     1      -5.362  -0.683  -1.335  0.00  0.00    -0.274 OA
ATOM     21  N   UNL     1      -6.410   0.837  -2.564  0.00  0.00    -0.239 N 
ATOM     22  C   UNL     1      -7.446   0.003  -2.786  0.00  0.00    +0.306 C 
ATOM     23  O   UNL     1      -7.441  -1.114  -2.308  0.00  0.00    -0.252 OA
ATOM     24  N   UNL     1      -8.488   0.409  -3.538  0.00  0.00    -0.299 N 
ATOM     25  H   UNL     1      -6.415   1.728  -2.946  0.00  0.00    +0.159 HD
ATOM     26  H   UNL     1      -8.493   1.300  -3.920  0.00  0.00    +0.150 HD
BRANCH  24  27
ATOM     27  C   UNL     1      -9.614  -0.497  -3.779  0.00  0.00    +0.108 C 
BRANCH  27  28
ATOM     28  C   UNL     1     -10.654   0.204  -4.656  0.00  0.00    -0.000 C 
ATOM     29  C   UNL     1     -10.055   0.480  -6.036  0.00  0.00    +0.009 C 
ATOM     30  C   UNL     1     -11.884  -0.694  -4.805  0.00  0.00    +0.009 C 
ENDBRANCH  27  28
ENDBRANCH  24  27
ENDBRANCH  18  19
ENDBRANCH   4  18
TORSDOF 6
