REMARK  Name = ZINC00133540
REMARK  7 active torsions:
REMARK  status: ('A' for Active; 'I' for Inactive)
REMARK    1  A    between atoms: C_1  and  C_2
REMARK    2  A    between atoms: C_5  and  C_9
REMARK    3  A    between atoms: C_6  and  C_8
REMARK    4  A    between atoms: C_9  and  C_22
REMARK    5  A    between atoms: N_10  and  N_11
REMARK    6  A    between atoms: N_11  and  S_12
REMARK    7  A    between atoms: S_12  and  C_15
REMARK                            x       y       z     vdW  Elec       q    Type
REMARK                         _______ _______ _______ _____ _____    ______ ____
ROOT
ATOM      1  N   UNL     1       0.721   5.707  -0.316  0.00  0.00    -0.136 N 
ATOM      2  H   UNL     1       1.616   6.077  -0.350  0.00  0.00    +0.197 HD
ENDROOT
BRANCH   1   4
ATOM      3  C   UNL     1       1.569   3.532  -0.189  0.00  0.00    +0.065 C 
ATOM      4  N   UNL     1       0.539   4.321  -0.226  0.00  0.00    -0.171 NA
ATOM      5  C   UNL     1       2.960   4.108  -0.243  0.00  0.00    +0.068 C 
BRANCH   3  10
ATOM      6  C   UNL     1       0.822  -2.159   0.178  0.00  0.00    +0.044 C 
ATOM      7  C   UNL     1       1.018  -0.667   0.082  0.00  0.00    -0.050 A 
ATOM      8  C   UNL     1       0.603   0.010  -1.051  0.00  0.00    +0.004 A 
ATOM      9  C   UNL     1       0.778   1.375  -1.146  0.00  0.00    +0.010 A 
ATOM     10  C   UNL     1       1.377   2.073  -0.095  0.00  0.00    +0.000 A 
ATOM     11  C   UNL     1       1.793   1.383   1.046  0.00  0.00    -0.041 A 
ATOM     12  C   UNL     1       1.611   0.018   1.127  0.00  0.00    +0.007 A 
ATOM     13  C   UNL     1       2.433   2.129   2.188  0.00  0.00    +0.044 C 
ENDBRANCH   3  10
ENDBRANCH   1   4
BRANCH   1  14
ATOM     14  S   UNL     1      -0.594   6.713  -0.362  0.00  0.00    +0.086 S 
ATOM     15  O   UNL     1      -0.091   8.041  -0.306  0.00  0.00    -0.149 OA
ATOM     16  O   UNL     1      -1.418   6.255  -1.425  0.00  0.00    -0.149 OA
BRANCH  14  17
ATOM     17  C   UNL     1      -1.501   6.455   1.126  0.00  0.00    +0.110 A 
ATOM     18  C   UNL     1      -2.499   5.499   1.170  0.00  0.00    +0.030 A 
ATOM     19  C   UNL     1      -3.207   5.292   2.339  0.00  0.00    +0.022 A 
ATOM     20  C   UNL     1      -2.925   6.050   3.461  0.00  0.00    +0.041 A 
ATOM     21  C   UNL     1      -1.930   7.010   3.415  0.00  0.00    +0.022 A 
ATOM     22  C   UNL     1      -1.219   7.212   2.247  0.00  0.00    +0.030 A 
ATOM     23 CL   UNL     1      -3.818   5.795   4.928  0.00  0.00    -0.084 Cl
ENDBRANCH  14  17
ENDBRANCH   1  14
TORSDOF 4
