REMARK  Name = ZINC09193248
REMARK  11 active torsions:
REMARK  status: ('A' for Active; 'I' for Inactive)
REMARK    1  A    between atoms: C_1  and  C_2
REMARK    2  A    between atoms: C_2  and  N_3
REMARK    3  A    between atoms: N_3  and  C_4
REMARK    4  A    between atoms: N_3  and  C_6
REMARK    5  A    between atoms: C_4  and  C_5
REMARK    6  A    between atoms: C_9  and  C_12
REMARK    7  A    between atoms: C_20  and  O_34
REMARK    8  A    between atoms: C_23  and  C_24
REMARK    9  A    between atoms: C_23  and  N_72
REMARK   10  A    between atoms: N_26  and  C_27
REMARK   11  A    between atoms: C_27  and  C_28
REMARK                            x       y       z     vdW  Elec       q    Type
REMARK                         _______ _______ _______ _____ _____    ______ ____
ROOT
ATOM      1  C   UNL     1      -6.505   4.127  -1.242  0.00  0.00    -0.031 C 
ATOM      2  C   UNL     1      -7.013   5.176  -0.252  0.00  0.00    +0.011 C 
ATOM      3  C   UNL     1      -7.801   4.501   0.870  0.00  0.00    +0.005 C 
ATOM      4  C   UNL     1      -8.306   5.567   1.845  0.00  0.00    +0.000 C 
ATOM      5  C   UNL     1      -7.119   6.327   2.437  0.00  0.00    +0.003 C 
ATOM      6  C   UNL     1      -6.323   6.995   1.313  0.00  0.00    +0.035 C 
ATOM      7  C   UNL     1      -5.816   5.922   0.348  0.00  0.00    +0.066 C 
ATOM      8  C   UNL     1      -5.014   6.571  -0.781  0.00  0.00    +0.016 C 
ATOM      9  C   UNL     1      -4.564   5.487  -1.764  0.00  0.00    -0.075 C 
ATOM     10  N   UNL     1      -5.757   4.812  -2.320  0.00  0.00    +0.390 N 
ATOM     11  H   UNL     1      -6.367   5.516  -2.752  0.00  0.00    -0.080 HD
ENDROOT
BRANCH   1  15
ATOM     12  C   UNL     1      -3.991   1.339   0.801  0.00  0.00    +0.030 A 
ATOM     13  C   UNL     1      -3.489   2.082  -0.261  0.00  0.00    +0.023 A 
ATOM     14  C   UNL     1      -4.305   2.978  -0.922  0.00  0.00    +0.004 A 
ATOM     15  C   UNL     1      -5.619   3.144  -0.522  0.00  0.00    -0.060 A 
ATOM     16  C   UNL     1      -6.120   2.410   0.537  0.00  0.00    +0.004 A 
ATOM     17  C   UNL     1      -5.310   1.509   1.200  0.00  0.00    +0.023 A 
BRANCH  12  18
ATOM     18  N   UNL     1      -3.169   0.429   1.469  0.00  0.00    -0.330 N 
BRANCH  18  20
ATOM     19  C   UNL     1      -1.702  -0.850  -0.013  0.00  0.00    +0.024 C 
ATOM     20  C   UNL     1      -1.777   0.251   1.046  0.00  0.00    +0.102 C 
ENDBRANCH  18  20
BRANCH  18  21
ATOM     21  C   UNL     1      -3.699  -0.349   2.592  0.00  0.00    +0.102 C 
ATOM     22  C   UNL     1      -3.473   0.419   3.895  0.00  0.00    +0.024 C 
ENDBRANCH  18  21
ENDBRANCH  12  18
ENDBRANCH   1  15
BRANCH   7  23
ATOM     23  O   UNL     1      -4.985   4.999   1.054  0.00  0.00    -0.388 OA
ATOM     24  H   UNL     1      -4.203   5.402   1.456  0.00  0.00    +0.210 HD
ENDBRANCH   7  23
BRANCH  10  25
ATOM     25  C   UNL     1      -5.349   3.834  -3.349  0.00  0.00    +0.019 C 
BRANCH  25  26
ATOM     26  C   UNL     1      -4.937   4.585  -4.590  0.00  0.00    +0.197 C 
ATOM     27  O   UNL     1      -4.965   5.797  -4.603  0.00  0.00    -0.278 OA
ATOM     28  N   UNL     1      -4.537   3.909  -5.685  0.00  0.00    -0.313 N 
ATOM     29  H   UNL     1      -4.514   2.939  -5.675  0.00  0.00    +0.149 HD
BRANCH  28  30
ATOM     30  C   UNL     1      -4.136   4.638  -6.891  0.00  0.00    +0.139 C 
BRANCH  30  31
ATOM     31  C   UNL     1      -3.737   3.656  -7.962  0.00  0.00    -0.030 A 
ATOM     32  C   UNL     1      -2.422   3.241  -8.063  0.00  0.00    +0.005 A 
ATOM     33  C   UNL     1      -2.056   2.337  -9.043  0.00  0.00    +0.000 A 
ATOM     34  C   UNL     1      -3.003   1.857  -9.928  0.00  0.00    +0.000 A 
ATOM     35  C   UNL     1      -4.317   2.276  -9.830  0.00  0.00    +0.000 A 
ATOM     36  C   UNL     1      -4.684   3.176  -8.847  0.00  0.00    +0.005 A 
ENDBRANCH  30  31
ENDBRANCH  28  30
ENDBRANCH  25  26
ENDBRANCH  10  25
TORSDOF 9
