REMARK  Name = ZINC04379599
REMARK  9 active torsions:
REMARK  status: ('A' for Active; 'I' for Inactive)
REMARK    1  A    between atoms: C_1  and  C_2
REMARK    2  A    between atoms: C_2  and  C_3
REMARK    3  A    between atoms: C_3  and  C_4
REMARK    4  A    between atoms: C_7  and  C_20
REMARK    5  A    between atoms: C_11  and  C_13
REMARK    6  A    between atoms: C_20  and  O_22
REMARK    7  A    between atoms: O_22  and  C_23
REMARK    8  A    between atoms: C_23  and  C_24
REMARK    9  A    between atoms: C_24  and  C_25
REMARK                            x       y       z     vdW  Elec       q    Type
REMARK                         _______ _______ _______ _____ _____    ______ ____
ROOT
ATOM      1  C   UNL     1       2.114  -1.937  -1.541  0.00  0.00    +0.217 C 
ATOM      2  O   UNL     1       3.312  -2.058  -1.690  0.00  0.00    -0.276 OA
ATOM      3  N   UNL     1       1.609  -0.791  -1.043  0.00  0.00    -0.271 N 
ATOM      4  C   UNL     1       2.461   0.344  -0.701  0.00  0.00    +0.196 C 
ATOM      5  C   UNL     1       1.863   1.144   0.494  0.00  0.00    +0.105 C 
ATOM      6  S   UNL     1       0.077   1.027   0.031  0.00  0.00    -0.131 S 
ATOM      7  C   UNL     1       0.164  -0.610  -0.812  0.00  0.00    +0.167 C 
ENDROOT
BRANCH   7   8
ATOM      8  C   UNL     1      -0.584  -0.575  -2.120  0.00  0.00    +0.001 A 
ATOM      9  C   UNL     1       0.099  -0.728  -3.312  0.00  0.00    +0.008 A 
ATOM     10  C   UNL     1      -0.587  -0.702  -4.511  0.00  0.00    +0.000 A 
ATOM     11  C   UNL     1      -1.957  -0.511  -4.520  0.00  0.00    +0.001 A 
ATOM     12  C   UNL     1      -2.640  -0.353  -3.330  0.00  0.00    +0.020 A 
ATOM     13  C   UNL     1      -1.954  -0.385  -2.128  0.00  0.00    +0.047 A 
ATOM     14 CL   UNL     1      -2.813  -0.187  -0.633  0.00  0.00    -0.083 Cl
ENDBRANCH   7   8
BRANCH   4  15
ATOM     15  C   UNL     1       3.830  -0.159  -0.322  0.00  0.00    +0.329 C 
ATOM     16  O   UNL     1       3.954  -1.248   0.186  0.00  0.00    -0.249 OA
BRANCH  15  17
ATOM     17  O   UNL     1       4.912   0.602  -0.550  0.00  0.00    -0.463 OA
BRANCH  17  18
ATOM     18  C   UNL     1       6.199   0.053  -0.160  0.00  0.00    +0.232 C 
BRANCH  18  19
ATOM     19  C   UNL     1       7.304   1.056  -0.495  0.00  0.00    +0.038 C 
ATOM     20  C   UNL     1       8.659   0.478  -0.085  0.00  0.00    +0.007 C 
ENDBRANCH  18  19
ENDBRANCH  17  18
ENDBRANCH  15  17
ENDBRANCH   4  15
BRANCH   1  21
ATOM     21  C   UNL     1       1.191  -3.069  -1.912  0.00  0.00    +0.096 C 
BRANCH  21  23
ATOM     22  C   UNL     1       1.070  -5.375  -2.867  0.00  0.00    +0.004 C 
ATOM     23  C   UNL     1       2.008  -4.226  -2.490  0.00  0.00    +0.006 C 
ENDBRANCH  21  23
ENDBRANCH   1  21
TORSDOF 7
