REMARK  Name = ZINC37951866
REMARK  8 active torsions:
REMARK  status: ('A' for Active; 'I' for Inactive)
REMARK    1  A    between atoms: C_1  and  C_2
REMARK    2  A    between atoms: C_2  and  C_3
REMARK    3  A    between atoms: C_2  and  C_4
REMARK    4  A    between atoms: C_4  and  N_5
REMARK    5  A    between atoms: N_5  and  C_6
REMARK    6  A    between atoms: C_6  and  C_7
REMARK    7  A    between atoms: C_6  and  C_8
REMARK    8  A    between atoms: C_6  and  C_18
REMARK                            x       y       z     vdW  Elec       q    Type
REMARK                         _______ _______ _______ _____ _____    ______ ____
ROOT
ATOM      1  C   UNL     1      -2.795  -2.505  -0.105  0.00  0.00    +0.066 C 
ATOM      2  C   UNL     1      -3.471  -2.117   1.210  0.00  0.00    +0.008 C 
ENDROOT
BRANCH   1   3
ATOM      3  C   UNL     1      -2.777  -4.006  -0.237  0.00  0.00    +0.104 A 
ATOM      4  C   UNL     1      -3.866  -4.787  -0.268  0.00  0.00    +0.052 A 
ATOM      5  C   UNL     1      -3.379  -6.164  -0.406  0.00  0.00    +0.021 A 
ATOM      6  C   UNL     1      -3.996  -7.412  -0.494  0.00  0.00    +0.027 A 
ATOM      7  C   UNL     1      -3.223  -8.545  -0.621  0.00  0.00    +0.019 A 
ATOM      8  C   UNL     1      -1.838  -8.447  -0.660  0.00  0.00    +0.019 A 
ATOM      9  C   UNL     1      -1.218  -7.220  -0.574  0.00  0.00    +0.048 A 
ATOM     10  C   UNL     1      -1.978  -6.065  -0.447  0.00  0.00    +0.135 A 
ATOM     11  O   UNL     1      -1.667  -4.757  -0.348  0.00  0.00    -0.461 OA
ATOM     12 BR   UNL     1      -4.051 -10.241  -0.741  0.00  0.00    -0.050 Br
ENDBRANCH   1   3
BRANCH   1  13
ATOM     13  C   UNL     1      -3.559  -1.908  -1.259  0.00  0.00    +0.207 C 
ATOM     14  O   UNL     1      -4.736  -1.643  -1.134  0.00  0.00    -0.277 OA
ATOM     15  N   UNL     1      -2.935  -1.669  -2.429  0.00  0.00    -0.330 N 
ATOM     16  H   UNL     1      -1.993  -1.881  -2.529  0.00  0.00    +0.145 HD
ATOM     17  H   UNL     1      -3.427  -1.285  -3.171  0.00  0.00    +0.145 HD
ENDBRANCH   1  13
BRANCH   1  18
ATOM     18  N   UNL     1      -1.416  -1.997  -0.116  0.00  0.00    +0.393 N 
ATOM     19  H   UNL     1      -0.970  -2.253  -0.984  0.00  0.00    -0.084 HD
ATOM     20  H   UNL     1      -0.905  -2.397   0.656  0.00  0.00    -0.084 HD
BRANCH  18  21
ATOM     21  C   UNL     1      -1.433  -0.534   0.013  0.00  0.00    -0.078 C 
BRANCH  21  23
ATOM     22  C   UNL     1      -0.019   1.526   0.010  0.00  0.00    +0.005 C 
ATOM     23  C   UNL     1       0.002  -0.004   0.002  0.00  0.00    -0.034 C 
ATOM     24  C   UNL     1       0.742  -0.511   1.242  0.00  0.00    +0.005 C 
ENDBRANCH  21  23
ENDBRANCH  18  21
ENDBRANCH   1  18
TORSDOF 5
