REMARK  Name = ZINC39936949
REMARK  11 active torsions:
REMARK  status: ('A' for Active; 'I' for Inactive)
REMARK    1  A    between atoms: C_1  and  C_2
REMARK    2  A    between atoms: C_2  and  N_3
REMARK    3  A    between atoms: N_6  and  C_7
REMARK    4  A    between atoms: C_7  and  C_8
REMARK    5  A    between atoms: C_8  and  C_9
REMARK    6  A    between atoms: C_9  and  N_10
REMARK    7  A    between atoms: N_10  and  C_11
REMARK    8  A    between atoms: N_10  and  C_12
REMARK    9  A    between atoms: C_13  and  C_15
REMARK   10  A    between atoms: N_33  and  C_35
REMARK   11  A    between atoms: C_35  and  C_36
REMARK                            x       y       z     vdW  Elec       q    Type
REMARK                         _______ _______ _______ _____ _____    ______ ____
ROOT
ATOM      1  C   UNL     1      -3.124   0.234  -0.034  0.00  0.00    +0.060 C 
ATOM      2  C   UNL     1      -4.278   1.150   0.388  0.00  0.00    +0.017 C 
ATOM      3  C   UNL     1      -3.740   2.571   0.573  0.00  0.00    +0.003 C 
ATOM      4  C   UNL     1      -3.083   3.034  -0.727  0.00  0.00    -0.057 C 
ATOM      5  C   UNL     1      -2.553   4.471  -0.603  0.00  0.00    +0.018 C 
ATOM      6  C   UNL     1      -3.700   5.329  -0.152  0.00  0.00    -0.040 C 
ATOM      7  C   UNL     1      -4.240   6.446  -0.595  0.00  0.00    +0.111 C 
ATOM      8  N   UNL     1      -5.411   6.722   0.025  0.00  0.00    -0.259 NA
ATOM      9  C   UNL     1      -5.799   5.760   0.796  0.00  0.00    +0.052 C 
ATOM     10  C   UNL     1      -4.519   4.978   1.089  0.00  0.00    +0.091 C 
ATOM     11  C   UNL     1      -4.860   3.498   0.961  0.00  0.00    -0.055 C 
ATOM     12  C   UNL     1      -6.090   3.081   1.238  0.00  0.00    +0.000 C 
ATOM     13  C   UNL     1      -7.173   4.005   1.568  0.00  0.00    +0.002 C 
ATOM     14  C   UNL     1      -7.015   5.363   1.379  0.00  0.00    +0.024 C 
ATOM     15  N   UNL     1      -1.968   2.139  -1.060  0.00  0.00    +0.385 N 
ATOM     16  C   UNL     1      -2.478   0.785  -1.307  0.00  0.00    -0.065 C 
ATOM     17  H   UNL     1      -1.314   2.117  -0.292  0.00  0.00    -0.081 HD
ENDROOT
BRANCH   1  22
ATOM     18  N   UNL     1      -4.566  -3.631  -0.836  0.00  0.00    -0.299 N 
ATOM     19  C   UNL     1      -3.355  -3.467  -0.268  0.00  0.00    +0.309 C 
ATOM     20  O   UNL     1      -2.659  -4.434  -0.030  0.00  0.00    -0.252 OA
ATOM     21  N   UNL     1      -2.916  -2.229   0.035  0.00  0.00    -0.226 N 
ATOM     22  C   UNL     1      -3.654  -1.152  -0.298  0.00  0.00    +0.224 C 
ATOM     23  O   UNL     1      -4.743  -1.298  -0.809  0.00  0.00    -0.275 OA
ATOM     24  H   UNL     1      -5.093  -2.857  -1.089  0.00  0.00    +0.150 HD
BRANCH  18  26
ATOM     25  C   UNL     1      -6.413  -4.889  -1.832  0.00  0.00    +0.024 C 
ATOM     26  C   UNL     1      -5.088  -4.980  -1.072  0.00  0.00    +0.102 C 
ENDBRANCH  18  26
BRANCH  21  27
ATOM     27  C   UNL     1      -1.635  -2.056   0.726  0.00  0.00    +0.116 C 
BRANCH  27  28
ATOM     28  C   UNL     1      -0.496  -2.087  -0.295  0.00  0.00    +0.001 C 
BRANCH  28  29
ATOM     29  C   UNL     1       0.845  -1.982   0.434  0.00  0.00    -0.078 C 
BRANCH  29  30
ATOM     30  N   UNL     1       1.937  -1.982  -0.548  0.00  0.00    +0.376 N 
ATOM     31  C   UNL     1       3.207  -1.694   0.132  0.00  0.00    -0.097 C 
ATOM     32  C   UNL     1       2.016  -3.300  -1.193  0.00  0.00    -0.097 C 
ATOM     33  H   UNL     1       1.762  -1.276  -1.247  0.00  0.00    -0.083 HD
ENDBRANCH  29  30
ENDBRANCH  28  29
ENDBRANCH  27  28
ENDBRANCH  21  27
ENDBRANCH   1  22
BRANCH  15  34
ATOM     34  C   UNL     1      -1.288   2.633  -2.265  0.00  0.00    -0.051 C 
BRANCH  34  35
ATOM     35  C   UNL     1      -0.123   1.734  -2.588  0.00  0.00    -0.053 C 
ATOM     36  C   UNL     1      -0.066   1.125  -3.747  0.00  0.00    +0.002 C 
ENDBRANCH  34  35
ENDBRANCH  15  34
TORSDOF 8
