REMARK  Name = ZINC33796042
REMARK  6 active torsions:
REMARK  status: ('A' for Active; 'I' for Inactive)
REMARK    1  A    between atoms: C_1  and  O_2
REMARK    2  A    between atoms: O_2  and  C_3
REMARK    3  A    between atoms: C_7  and  C_9
REMARK    4  A    between atoms: C_9  and  C_10
REMARK    5  A    between atoms: C_11  and  C_28
REMARK    6  A    between atoms: C_31  and  O_34
REMARK                            x       y       z     vdW  Elec       q    Type
REMARK                         _______ _______ _______ _____ _____    ______ ____
ROOT
ATOM      1  C   UNL     1      -1.278   5.993  -0.058  0.00  0.00    +0.077 C 
ATOM      2  C   UNL     1      -1.479   7.487  -0.170  0.00  0.00    +0.152 C 
ATOM      3  N   UNL     1      -2.926   7.711  -0.236  0.00  0.00    -0.232 N 
ATOM      4  C   UNL     1      -3.556   6.527  -0.175  0.00  0.00    +0.293 C 
ATOM      5  O   UNL     1      -4.760   6.377  -0.208  0.00  0.00    -0.266 OA
ATOM      6  C   UNL     1      -2.563   5.424  -0.070  0.00  0.00    +0.250 C 
ATOM      7  O   UNL     1      -2.819   4.236  -0.002  0.00  0.00    -0.282 OA
ATOM      8  C   UNL     1      -3.543   8.945  -0.344  0.00  0.00    +0.169 A 
ATOM      9  N   UNL     1      -4.825   9.222  -0.408  0.00  0.00    -0.224 NA
ATOM     10  C   UNL     1      -5.290  10.486  -0.513  0.00  0.00    +0.080 A 
ATOM     11  C   UNL     1      -6.635  10.917  -0.590  0.00  0.00    +0.032 A 
ATOM     12  C   UNL     1      -6.939  12.249  -0.693  0.00  0.00    +0.040 A 
ATOM     13  C   UNL     1      -5.946  13.220  -0.726  0.00  0.00    +0.125 A 
ATOM     14  C   UNL     1      -4.618  12.833  -0.653  0.00  0.00    +0.055 A 
ATOM     15  C   UNL     1      -4.306  11.500  -0.549  0.00  0.00    +0.043 A 
ATOM     16  S   UNL     1      -2.799  10.568  -0.424  0.00  0.00    -0.052 S 
ATOM     17  F   UNL     1      -6.271  14.527  -0.828  0.00  0.00    -0.205 F 
ENDROOT
BRANCH   2  18
ATOM     18  C   UNL     1      -0.904   8.176   1.041  0.00  0.00    -0.022 A 
ATOM     19  C   UNL     1      -1.625   8.214   2.220  0.00  0.00    +0.009 A 
ATOM     20  C   UNL     1      -1.098   8.841   3.333  0.00  0.00    +0.046 A 
ATOM     21  C   UNL     1       0.150   9.443   3.263  0.00  0.00    +0.117 A 
ATOM     22  C   UNL     1       0.868   9.408   2.077  0.00  0.00    +0.046 A 
ATOM     23  C   UNL     1       0.340   8.775   0.968  0.00  0.00    +0.009 A 
BRANCH  21  24
ATOM     24  O   UNL     1       0.668  10.064   4.355  0.00  0.00    -0.507 OA
ATOM     25  H   UNL     1       1.658  10.541   4.298  0.00  0.00    +0.292 HD
ENDBRANCH  21  24
ENDBRANCH   2  18
BRANCH   1  26
ATOM     26  C   UNL     1      -0.076   5.322   0.031  0.00  0.00    +0.195 C 
ATOM     27  O   UNL     1       1.085   5.995  -0.124  0.00  0.00    -0.287 OA
BRANCH  26  32
ATOM     28  C   UNL     1       0.707   1.660  -0.261  0.00  0.00    +0.121 A 
ATOM     29  C   UNL     1      -0.030   1.145   0.798  0.00  0.00    +0.045 A 
ATOM     30  C   UNL     1      -0.782   1.986   1.599  0.00  0.00    +0.004 A 
ATOM     31  C   UNL     1      -0.797   3.344   1.359  0.00  0.00    +0.012 A 
ATOM     32  C   UNL     1      -0.058   3.873   0.295  0.00  0.00    +0.026 A 
ATOM     33  C   UNL     1       0.696   3.020  -0.516  0.00  0.00    +0.057 A 
BRANCH  28  35
ATOM     34  C   UNL     1       1.404  -0.564  -0.727  0.00  0.00    +0.277 C 
ATOM     35  O   UNL     1       1.439   0.828  -1.047  0.00  0.00    -0.495 OA
ENDBRANCH  28  35
ENDBRANCH  26  32
ENDBRANCH   1  26
TORSDOF 5
