REMARK  Name = ZINC38938615
REMARK  6 active torsions:
REMARK  status: ('A' for Active; 'I' for Inactive)
REMARK    1  A    between atoms: C_1  and  C_2
REMARK    2  A    between atoms: C_2  and  C_3
REMARK    3  A    between atoms: C_6  and  N_9
REMARK    4  A    between atoms: C_14  and  C_15
REMARK    5  A    between atoms: C_18  and  S_20
REMARK    6  A    between atoms: S_20  and  C_21
REMARK                            x       y       z     vdW  Elec       q    Type
REMARK                         _______ _______ _______ _____ _____    ______ ____
ROOT
ATOM      1  N   UNL     1       2.394  -0.670  -5.390  0.00  0.00    -0.226 NA
ATOM      2  C   UNL     1       3.633  -0.324  -5.665  0.00  0.00    +0.166 C 
ATOM      3  N   UNL     1       4.418   0.640  -5.065  0.00  0.00    -0.260 N 
ATOM      4  C   UNL     1       5.654   0.845  -5.486  0.00  0.00    +0.257 C 
ATOM      5  C   UNL     1       6.144   0.055  -6.560  0.00  0.00    +0.081 C 
ATOM      6  C   UNL     1       7.380   0.080  -7.169  0.00  0.00    +0.066 C 
ATOM      7  S   UNL     1       4.733  -0.986  -6.907  0.00  0.00    -0.049 S 
ATOM      8  O   UNL     1       6.357   1.693  -4.964  0.00  0.00    -0.269 OA
ATOM      9  H   UNL     1       4.061   1.168  -4.333  0.00  0.00    +0.157 HD
ENDROOT
BRANCH   1  13
ATOM     10  C   UNL     1       0.334   1.251  -2.359  0.00  0.00    -0.047 A 
ATOM     11  C   UNL     1      -0.286   1.020  -3.575  0.00  0.00    +0.006 A 
ATOM     12  C   UNL     1       0.395   0.380  -4.589  0.00  0.00    +0.028 A 
ATOM     13  C   UNL     1       1.713  -0.034  -4.388  0.00  0.00    +0.067 A 
ATOM     14  C   UNL     1       2.333   0.203  -3.159  0.00  0.00    +0.028 A 
ATOM     15  C   UNL     1       1.642   0.848  -2.155  0.00  0.00    +0.006 A 
BRANCH  10  17
ATOM     16  C   UNL     1      -0.202   3.461  -1.370  0.00  0.00    +0.009 C 
ATOM     17  C   UNL     1      -0.417   1.950  -1.255  0.00  0.00    +0.032 C 
ENDBRANCH  10  17
ENDBRANCH   1  13
BRANCH   6  18
ATOM     18  C   UNL     1       7.699  -0.873  -8.154  0.00  0.00    +0.131 A 
ATOM     19  C   UNL     1       8.927  -1.022  -8.775  0.00  0.00    +0.050 A 
ATOM     20  C   UNL     1       8.795  -2.081  -9.676  0.00  0.00    +0.057 A 
ATOM     21  C   UNL     1       7.511  -2.537  -9.579  0.00  0.00    +0.165 A 
ATOM     22  O   UNL     1       6.861  -1.808  -8.657  0.00  0.00    -0.449 OA
BRANCH  21  23
ATOM     23  S   UNL     1       6.823  -3.868 -10.505  0.00  0.00    -0.046 S 
BRANCH  23  24
ATOM     24  C   UNL     1       7.332  -5.349  -9.591  0.00  0.00    +0.240 C 
ATOM     25  N   UNL     1       6.853  -5.275  -8.184  0.00  0.00    -0.275 NA
ATOM     26  C   UNL     1       7.990  -4.613  -7.528  0.00  0.00    +0.128 C 
ATOM     27  C   UNL     1       8.009  -4.906  -6.052  0.00  0.00    -0.002 C 
ATOM     28  C   UNL     1       9.209  -5.127  -5.495  0.00  0.00    -0.002 C 
ATOM     29  C   UNL     1      10.435  -5.087  -6.285  0.00  0.00    +0.002 C 
ATOM     30  C   UNL     1      10.443  -5.060  -7.636  0.00  0.00    +0.025 C 
ATOM     31  C   UNL     1       9.201  -5.036  -8.341  0.00  0.00    +0.060 C 
ATOM     32  N   UNL     1       8.800  -5.417  -9.510  0.00  0.00    -0.256 NA
ATOM     33  H   UNL     1       6.018  -4.712  -8.115  0.00  0.00    +0.126 HD
ENDBRANCH  23  24
ENDBRANCH  21  23
ENDBRANCH   6  18
TORSDOF 5
