REMARK  Name = ZINC34747466
REMARK  12 active torsions:
REMARK  status: ('A' for Active; 'I' for Inactive)
REMARK    1  A    between atoms: C_1  and  C_2
REMARK    2  A    between atoms: C_2  and  N_3
REMARK    3  A    between atoms: N_3  and  C_4
REMARK    4  A    between atoms: C_4  and  C_5
REMARK    5  A    between atoms: C_6  and  C_8
REMARK    6  A    between atoms: C_8  and  N_9
REMARK    7  A    between atoms: N_22  and  C_25
REMARK    8  A    between atoms: C_25  and  C_26
REMARK    9  A    between atoms: N_28  and  C_29
REMARK   10  A    between atoms: N_28  and  C_31
REMARK   11  A    between atoms: C_29  and  C_30
REMARK   12  A    between atoms: C_31  and  C_32
REMARK                            x       y       z     vdW  Elec       q    Type
REMARK                         _______ _______ _______ _____ _____    ______ ____
ROOT
ATOM      1  N   UNL     1      -2.081  -0.817   3.674  0.00  0.00    -0.271 N 
ATOM      2  C   UNL     1      -2.810   0.154   4.252  0.00  0.00    +0.264 A 
ATOM      3  O   UNL     1      -2.674   1.317   3.910  0.00  0.00    -0.267 OA
ATOM      4  C   UNL     1      -3.749  -0.196   5.274  0.00  0.00    +0.076 A 
ATOM      5  C   UNL     1      -4.637   0.687   6.032  0.00  0.00    -0.023 A 
ATOM      6  C   UNL     1      -5.437   0.109   6.951  0.00  0.00    -0.004 A 
ATOM      7  S   UNL     1      -5.062  -1.621   6.864  0.00  0.00    -0.073 S 
ATOM      8  C   UNL     1      -3.827  -1.562   5.590  0.00  0.00    +0.117 A 
ATOM      9  N   UNL     1      -3.076  -2.473   4.980  0.00  0.00    -0.208 NA
ATOM     10  C   UNL     1      -2.224  -2.123   4.039  0.00  0.00    +0.202 A 
ATOM     11  N   UNL     1      -1.466  -3.086   3.421  0.00  0.00    -0.304 N 
ATOM     12  C   UNL     1      -0.150  -3.470   3.954  0.00  0.00    +0.089 C 
ATOM     13  C   UNL     1      -0.102  -4.997   4.074  0.00  0.00    -0.059 C 
ATOM     14  N   UNL     1      -0.428  -5.600   2.776  0.00  0.00    +0.387 N 
ATOM     15  C   UNL     1      -1.813  -5.276   2.409  0.00  0.00    -0.059 C 
ATOM     16  C   UNL     1      -1.948  -3.767   2.209  0.00  0.00    +0.089 C 
ATOM     17  C   UNL     1      -6.426   0.787   7.849  0.00  0.00    +0.043 C 
ATOM     18  C   UNL     1      -6.136   2.295   7.838  0.00  0.00    +0.005 C 
ATOM     19  C   UNL     1      -5.974   2.752   6.385  0.00  0.00    +0.005 C 
ATOM     20  C   UNL     1      -4.671   2.197   5.809  0.00  0.00    +0.037 C 
ATOM     21  H   UNL     1       0.198  -5.239   2.072  0.00  0.00    -0.081 HD
ENDROOT
BRANCH   1  22
ATOM     22  C   UNL     1      -1.118  -0.466   2.627  0.00  0.00    +0.224 C 
BRANCH  22  24
ATOM     23  N   UNL     1      -1.133  -0.088   0.182  0.00  0.00    -0.301 N 
ATOM     24  C   UNL     1      -1.824  -0.397   1.297  0.00  0.00    +0.236 C 
ATOM     25  O   UNL     1      -3.014  -0.619   1.231  0.00  0.00    -0.274 OA
BRANCH  23  27
ATOM     26  C   UNL     1       0.531   1.674   0.509  0.00  0.00    +0.024 C 
ATOM     27  C   UNL     1       0.305   0.181   0.263  0.00  0.00    +0.104 C 
ENDBRANCH  23  27
BRANCH  23  28
ATOM     28  C   UNL     1      -1.820  -0.021  -1.110  0.00  0.00    +0.104 C 
ATOM     29  C   UNL     1      -1.785  -1.397  -1.778  0.00  0.00    +0.024 C 
ENDBRANCH  23  28
ENDBRANCH  22  24
ENDBRANCH   1  22
BRANCH  14  30
ATOM     30  C   UNL     1      -0.275  -7.058   2.862  0.00  0.00    +0.019 C 
BRANCH  30  31
ATOM     31  C   UNL     1      -0.490  -7.668   1.501  0.00  0.00    +0.199 C 
ATOM     32  O   UNL     1      -0.746  -6.957   0.552  0.00  0.00    -0.278 OA
ATOM     33  N   UNL     1      -0.398  -9.002   1.338  0.00  0.00    -0.304 N 
BRANCH  33  34
ATOM     34  C   UNL     1      -0.089  -9.861   2.484  0.00  0.00    +0.104 C 
ATOM     35  C   UNL     1      -1.390 -10.291   3.165  0.00  0.00    +0.024 C 
ENDBRANCH  33  34
BRANCH  33  36
ATOM     36  C   UNL     1      -0.608  -9.595   0.014  0.00  0.00    +0.104 C 
ATOM     37  C   UNL     1       0.728  -9.669  -0.728  0.00  0.00    +0.024 C 
ENDBRANCH  33  36
ENDBRANCH  30  31
ENDBRANCH  14  30
TORSDOF 8
