REMARK  Name = ZINC64337738
REMARK  7 active torsions:
REMARK  status: ('A' for Active; 'I' for Inactive)
REMARK    1  A    between atoms: C_4  and  C_7
REMARK    2  A    between atoms: C_7  and  N_11
REMARK    3  A    between atoms: N_11  and  C_12
REMARK    4  A    between atoms: C_12  and  C_13
REMARK    5  A    between atoms: N_15  and  C_16
REMARK    6  A    between atoms: C_21  and  S_22
REMARK    7  A    between atoms: S_22  and  C_25
REMARK                            x       y       z     vdW  Elec       q    Type
REMARK                         _______ _______ _______ _____ _____    ______ ____
ROOT
ATOM      1  C   UNL     1       5.993   2.209  -0.486  0.00  0.00    +0.200 C 
ATOM      2  O   UNL     1       6.586   1.814  -1.467  0.00  0.00    -0.278 OA
ATOM      3  N   UNL     1       6.271   3.425   0.025  0.00  0.00    -0.286 N 
ATOM      4  H   UNL     1       5.743   3.775   0.759  0.00  0.00    +0.155 HD
ENDROOT
BRANCH   3   5
ATOM      5  C   UNL     1       7.322   4.183  -0.504  0.00  0.00    +0.059 A 
ATOM      6  C   UNL     1       8.376   3.553  -1.153  0.00  0.00    +0.025 A 
ATOM      7  C   UNL     1       9.412   4.303  -1.673  0.00  0.00    +0.002 A 
ATOM      8  C   UNL     1       9.400   5.681  -1.550  0.00  0.00    +0.002 A 
ATOM      9  C   UNL     1       8.352   6.311  -0.904  0.00  0.00    +0.029 A 
ATOM     10  C   UNL     1       7.310   5.566  -0.387  0.00  0.00    +0.116 A 
BRANCH  10  11
ATOM     11  S   UNL     1       5.970   6.371   0.428  0.00  0.00    +0.060 S 
ATOM     12  O   UNL     1       5.845   5.696   1.672  0.00  0.00    -0.164 OA
ATOM     13  O   UNL     1       6.296   7.753   0.384  0.00  0.00    -0.164 OA
BRANCH  11  14
ATOM     14  C   UNL     1       4.523   6.037  -0.613  0.00  0.00    +0.485 C 
ATOM     15  F   UNL     1       4.739   6.559  -1.893  0.00  0.00    -0.183 F 
ATOM     16  F   UNL     1       4.321   4.655  -0.701  0.00  0.00    -0.183 F 
ENDBRANCH  11  14
ENDBRANCH  10  11
ENDBRANCH   3   5
BRANCH   1  17
ATOM     17  C   UNL     1       4.945   1.341   0.162  0.00  0.00    +0.016 C 
BRANCH  17  18
ATOM     18  N   UNL     1       4.831   0.077  -0.577  0.00  0.00    +0.391 N 
ATOM     19  H   UNL     1       5.694  -0.440  -0.495  0.00  0.00    -0.084 HD
ATOM     20  H   UNL     1       4.647   0.272  -1.550  0.00  0.00    -0.084 HD
BRANCH  18  21
ATOM     21  C   UNL     1       3.729  -0.718  -0.020  0.00  0.00    -0.042 C 
ATOM     22  C   UNL     1       3.981  -1.201   1.418  0.00  0.00    -0.008 C 
ATOM     23  C   UNL     1       4.639  -2.447   0.801  0.00  0.00    -0.002 C 
ATOM     24  C   UNL     1       3.764  -2.198  -0.439  0.00  0.00    -0.008 C 
BRANCH  21  28
ATOM     25  C   UNL     1      -0.087   1.123  -0.563  0.00  0.00    +0.000 A 
ATOM     26  C   UNL     1       0.881   1.237  -1.543  0.00  0.00    +0.000 A 
ATOM     27  C   UNL     1       2.116   0.641  -1.367  0.00  0.00    +0.002 A 
ATOM     28  C   UNL     1       2.383  -0.068  -0.211  0.00  0.00    -0.058 A 
ATOM     29  C   UNL     1       1.415  -0.182   0.769  0.00  0.00    +0.002 A 
ATOM     30  C   UNL     1       0.180   0.413   0.593  0.00  0.00    +0.000 A 
ENDBRANCH  21  28
ENDBRANCH  18  21
ENDBRANCH  17  18
ENDBRANCH   1  17
TORSDOF 7
