REMARK  Name = ZINC22296311
REMARK  7 active torsions:
REMARK  status: ('A' for Active; 'I' for Inactive)
REMARK    1  A    between atoms: C_1  and  C_2
REMARK    2  A    between atoms: C_5  and  C_31
REMARK    3  A    between atoms: N_8  and  C_10
REMARK    4  A    between atoms: C_10  and  C_11
REMARK    5  A    between atoms: C_17  and  C_19
REMARK    6  A    between atoms: C_19  and  N_20
REMARK    7  A    between atoms: C_22  and  C_27
REMARK                            x       y       z     vdW  Elec       q    Type
REMARK                         _______ _______ _______ _____ _____    ______ ____
ROOT
ATOM      1  C   UNL     1       6.861   4.093  -4.749  0.00  0.00    +0.034 A 
ATOM      2  C   UNL     1       5.960   3.573  -5.619  0.00  0.00    +0.070 A 
ATOM      3  S   UNL     1       4.780   2.856  -4.485  0.00  0.00    -0.060 S 
ATOM      4  C   UNL     1       5.574   3.316  -3.011  0.00  0.00    +0.165 A 
ATOM      5  N   UNL     1       6.642   3.949  -3.457  0.00  0.00    -0.231 NA
ATOM      6  N   UNL     1       5.188   3.073  -1.698  0.00  0.00    -0.263 N 
ATOM      7  C   UNL     1       4.048   2.400  -1.444  0.00  0.00    +0.239 C 
ATOM      8  O   UNL     1       3.360   2.005  -2.362  0.00  0.00    -0.273 OA
ATOM      9  H   UNL     1       5.812   3.431  -0.866  0.00  0.00    +0.157 HD
ENDROOT
BRANCH   1  10
ATOM     10  C   UNL     1       8.083   4.819  -5.248  0.00  0.00    -0.022 C 
BRANCH  10  16
ATOM     11  C   UNL     1       5.880   8.376  -4.787  0.00  0.00    +0.005 C 
ATOM     12  C   UNL     1       6.426   8.069  -6.182  0.00  0.00    -0.031 C 
ATOM     13  C   UNL     1       7.682   8.907  -6.436  0.00  0.00    +0.003 C 
ATOM     14  C   UNL     1       8.759   8.519  -5.418  0.00  0.00    -0.031 C 
ATOM     15  C   UNL     1       9.048   7.021  -5.534  0.00  0.00    -0.075 C 
ATOM     16  N   UNL     1       7.815   6.263  -5.282  0.00  0.00    +0.384 N 
ATOM     17  C   UNL     1       6.783   6.583  -6.276  0.00  0.00    -0.075 C 
ATOM     18  C   UNL     1      10.038   9.309  -5.702  0.00  0.00    +0.005 C 
ATOM     19  H   UNL     1       7.434   6.561  -4.294  0.00  0.00    -0.081 HD
ENDBRANCH  10  16
ENDBRANCH   1  10
BRANCH   7  20
ATOM     20  C   UNL     1       3.629   2.137  -0.021  0.00  0.00    +0.220 C 
BRANCH  20  21
ATOM     21  N   UNL     1       2.367   1.393  -0.013  0.00  0.00    -0.306 N 
ATOM     22  C   UNL     1       2.387   0.036  -0.021  0.00  0.00    +0.102 A 
ATOM     23  C   UNL     1       1.234  -0.673  -0.013  0.00  0.00    +0.071 A 
ATOM     24  C   UNL     1       0.002  -0.004   0.002  0.00  0.00    +0.019 A 
ATOM     25  C   UNL     1      -0.016   1.360   0.009  0.00  0.00    +0.071 A 
ATOM     26  C   UNL     1       1.200   2.064   0.002  0.00  0.00    +0.252 A 
ATOM     27  O   UNL     1       1.198   3.285   0.008  0.00  0.00    -0.268 OA
BRANCH  23  28
ATOM     28  C   UNL     1       1.275  -2.179  -0.022  0.00  0.00    +0.419 C 
ATOM     29  F   UNL     1       1.185  -2.656   1.290  0.00  0.00    -0.166 F 
ATOM     30  F   UNL     1       0.200  -2.670  -0.772  0.00  0.00    -0.166 F 
ATOM     31  F   UNL     1       2.477  -2.610  -0.594  0.00  0.00    -0.166 F 
ENDBRANCH  23  28
ENDBRANCH  20  21
ENDBRANCH   7  20
TORSDOF 5
