REMARK  Name = ZINC39609107
REMARK  6 active torsions:
REMARK  status: ('A' for Active; 'I' for Inactive)
REMARK    1  A    between atoms: C_4  and  C_7
REMARK    2  A    between atoms: C_7  and  O_8
REMARK    3  A    between atoms: O_8  and  C_9
REMARK    4  A    between atoms: C_14  and  N_16
REMARK    5  A    between atoms: C_17  and  C_19
REMARK    6  A    between atoms: C_30  and  C_32
REMARK                            x       y       z     vdW  Elec       q    Type
REMARK                         _______ _______ _______ _____ _____    ______ ____
ROOT
ATOM      1  C   UNL     1       9.381   0.762   2.888  0.00  0.00    +0.100 C 
ATOM      2  C   UNL     1       9.325   1.525   1.546  0.00  0.00    +0.121 C 
ATOM      3  N   UNL     1       9.080   2.936   1.927  0.00  0.00    -0.296 N 
ATOM      4  C   UNL     1       9.909   3.140   3.139  0.00  0.00    +0.115 C 
ATOM      5  C   UNL     1       9.768   1.825   3.930  0.00  0.00    -0.004 C 
ATOM      6  C   UNL     1      11.095   1.460   4.589  0.00  0.00    -0.010 C 
ATOM      7  C   UNL     1      11.430   2.499   5.662  0.00  0.00    -0.082 C 
ATOM      8  N   UNL     1      10.357   2.535   6.663  0.00  0.00    +0.379 N 
ATOM      9  C   UNL     1       9.104   2.977   6.039  0.00  0.00    -0.082 C 
ATOM     10  C   UNL     1       8.671   1.957   4.982  0.00  0.00    -0.010 C 
ATOM     11  C   UNL     1       8.283   3.832   1.311  0.00  0.00    +0.248 C 
ATOM     12  O   UNL     1       7.587   3.485   0.375  0.00  0.00    -0.270 OA
ATOM     13  H   UNL     1      10.231   1.612   7.052  0.00  0.00    -0.086 HD
ATOM     14  H   UNL     1      10.608   3.175   7.401  0.00  0.00    -0.086 HD
ENDROOT
BRANCH  11  15
ATOM     15  C   UNL     1       8.256   5.227   1.768  0.00  0.00    +0.052 A 
ATOM     16  C   UNL     1       9.377   5.831   2.241  0.00  0.00    +0.059 A 
ATOM     17  S   UNL     1       8.907   7.389   2.646  0.00  0.00    -0.096 S 
ATOM     18  C   UNL     1       7.191   7.323   2.208  0.00  0.00    +0.020 A 
ATOM     19  C   UNL     1       7.020   6.012   1.724  0.00  0.00    +0.001 A 
ATOM     20  C   UNL     1       5.733   5.650   1.284  0.00  0.00    +0.010 A 
ATOM     21  C   UNL     1       4.702   6.556   1.330  0.00  0.00    +0.001 A 
ATOM     22  C   UNL     1       4.898   7.843   1.808  0.00  0.00    +0.001 A 
ATOM     23  C   UNL     1       6.149   8.223   2.255  0.00  0.00    +0.015 A 
ENDBRANCH  11  15
BRANCH   1  25
ATOM     24  N   UNL     1       7.949  -0.968   3.924  0.00  0.00    -0.310 N 
ATOM     25  C   UNL     1       8.032   0.174   3.214  0.00  0.00    +0.218 C 
ATOM     26  O   UNL     1       7.022   0.729   2.837  0.00  0.00    -0.275 OA
ATOM     27  H   UNL     1       8.757  -1.412   4.226  0.00  0.00    +0.149 HD
BRANCH  24  32
ATOM     28  C   UNL     1       6.765  -3.055   4.471  0.00  0.00    +0.139 C 
ATOM     29  C   UNL     1       6.304  -3.323   5.918  0.00  0.00    +0.033 C 
ATOM     30  C   UNL     1       6.512  -1.969   6.640  0.00  0.00    +0.004 C 
ATOM     31  C   UNL     1       6.102  -0.938   5.559  0.00  0.00    +0.025 C 
ATOM     32  C   UNL     1       6.637  -1.539   4.241  0.00  0.00    +0.102 C 
BRANCH  28  33
ATOM     33  O   UNL     1       5.928  -3.761   3.552  0.00  0.00    -0.370 OA
BRANCH  33  34
ATOM     34  C   UNL     1       6.412  -5.061   3.206  0.00  0.00    +0.195 C 
BRANCH  34  38
ATOM     35  C   UNL     1       3.708  -6.905   0.462  0.00  0.00    +0.000 A 
ATOM     36  C   UNL     1       4.753  -6.135  -0.011  0.00  0.00    +0.000 A 
ATOM     37  C   UNL     1       5.629  -5.538   0.877  0.00  0.00    +0.006 A 
ATOM     38  C   UNL     1       5.457  -5.711   2.238  0.00  0.00    -0.022 A 
ATOM     39  C   UNL     1       4.411  -6.480   2.711  0.00  0.00    +0.006 A 
ATOM     40  C   UNL     1       3.537  -7.079   1.823  0.00  0.00    +0.000 A 
ENDBRANCH  34  38
ENDBRANCH  33  34
ENDBRANCH  28  33
ENDBRANCH  24  32
ENDBRANCH   1  25
TORSDOF 6
