REMARK  Name = ZINC35098831
REMARK  14 active torsions:
REMARK  status: ('A' for Active; 'I' for Inactive)
REMARK    1  A    between atoms: C_1  and  C_2
REMARK    2  A    between atoms: C_2  and  C_3
REMARK    3  A    between atoms: C_3  and  C_5
REMARK    4  A    between atoms: C_3  and  C_6
REMARK    5  A    between atoms: C_6  and  C_8
REMARK    6  A    between atoms: C_6  and  N_27
REMARK    7  A    between atoms: C_14  and  C_17
REMARK    8  A    between atoms: N_20  and  C_21
REMARK    9  A    between atoms: N_27  and  S_28
REMARK   10  A    between atoms: S_28  and  C_31
REMARK   11  A    between atoms: C_34  and  C_37
REMARK   12  A    between atoms: C_37  and  C_38
REMARK   13  A    between atoms: C_37  and  C_39
REMARK   14  A    between atoms: C_37  and  C_40
REMARK                            x       y       z     vdW  Elec       q    Type
REMARK                         _______ _______ _______ _____ _____    ______ ____
ROOT
ATOM      1  C   UNL     1       1.659  -0.231  -1.529  0.00  0.00    +0.165 C 
ENDROOT
BRANCH   1   2
ATOM      2  C   UNL     1       1.807   1.248  -1.282  0.00  0.00    +0.235 C 
ATOM      3  O   UNL     1       1.504   2.041  -2.148  0.00  0.00    -0.274 OA
ATOM      4  N   UNL     1       2.277   1.690  -0.098  0.00  0.00    -0.297 N 
ATOM      5  C   UNL     1       2.741   0.741   0.923  0.00  0.00    +0.127 C 
ATOM      6  C   UNL     1       1.975   1.008   2.225  0.00  0.00    +0.128 C 
ATOM      7  N   UNL     1       2.032   2.448   2.517  0.00  0.00    -0.280 N 
ATOM      8  C   UNL     1       1.568   3.397   1.495  0.00  0.00    +0.092 C 
ATOM      9  C   UNL     1       2.340   3.129   0.191  0.00  0.00    +0.130 C 
ATOM     10  C   UNL     1       0.069   3.206   1.260  0.00  0.00    +0.030 C 
ATOM     11  C   UNL     1       2.502   2.889   3.700  0.00  0.00    +0.303 C 
ATOM     12  O   UNL     1       2.454   4.074   3.969  0.00  0.00    -0.253 OA
ATOM     13  N   UNL     1       3.025   2.018   4.585  0.00  0.00    -0.296 N 
ATOM     14  H   UNL     1       3.133   1.085   4.341  0.00  0.00    +0.151 HD
BRANCH  13  15
ATOM     15  C   UNL     1       3.429   2.479   5.916  0.00  0.00    +0.074 C 
ATOM     16  C   UNL     1       4.851   3.040   5.850  0.00  0.00    +0.022 C 
ATOM     17  C   UNL     1       5.274   3.521   7.240  0.00  0.00    +0.002 C 
ATOM     18  C   UNL     1       5.233   2.348   8.221  0.00  0.00    +0.000 C 
ATOM     19  C   UNL     1       3.811   1.787   8.286  0.00  0.00    +0.002 C 
ATOM     20  C   UNL     1       3.388   1.306   6.896  0.00  0.00    +0.022 C 
ENDBRANCH  13  15
ENDBRANCH   1   2
BRANCH   1  21
ATOM     21  C   UNL     1       0.240  -0.670  -1.159  0.00  0.00    +0.013 C 
ATOM     22  C   UNL     1       0.038  -0.522   0.350  0.00  0.00    +0.009 C 
BRANCH  21  24
ATOM     23  C   UNL     1      -0.693  -0.078  -3.400  0.00  0.00    +0.004 C 
ATOM     24  C   UNL     1      -0.773   0.205  -1.899  0.00  0.00    +0.002 C 
ENDBRANCH  21  24
ENDBRANCH   1  21
BRANCH   1  25
ATOM     25  N   UNL     1       1.905  -0.517  -2.944  0.00  0.00    -0.178 NA
ATOM     26  H   UNL     1       1.657   0.133  -3.621  0.00  0.00    +0.149 HD
BRANCH  25  27
ATOM     27  S   UNL     1       2.607  -1.949  -3.390  0.00  0.00    +0.059 S 
ATOM     28  O   UNL     1       2.553  -2.004  -4.809  0.00  0.00    -0.153 OA
ATOM     29  O   UNL     1       3.829  -2.044  -2.670  0.00  0.00    -0.153 OA
BRANCH  27  30
ATOM     30  C   UNL     1       1.571  -3.244  -2.796  0.00  0.00    +0.105 A 
ATOM     31  C   UNL     1       1.837  -3.839  -1.577  0.00  0.00    +0.029 A 
ATOM     32  C   UNL     1       1.024  -4.855  -1.112  0.00  0.00    +0.006 A 
ATOM     33  C   UNL     1      -0.056  -5.277  -1.865  0.00  0.00    -0.042 A 
ATOM     34  C   UNL     1      -0.323  -4.681  -3.084  0.00  0.00    +0.006 A 
ATOM     35  C   UNL     1       0.488  -3.662  -3.547  0.00  0.00    +0.029 A 
BRANCH  33  36
ATOM     36  C   UNL     1      -0.942  -6.385  -1.358  0.00  0.00    -0.013 C 
ATOM     37  C   UNL     1      -1.562  -5.971  -0.021  0.00  0.00    +0.015 C 
ATOM     38  C   UNL     1      -2.054  -6.655  -2.374  0.00  0.00    +0.015 C 
ATOM     39  C   UNL     1      -0.110  -7.654  -1.163  0.00  0.00    +0.015 C 
ENDBRANCH  33  36
ENDBRANCH  27  30
ENDBRANCH  25  27
ENDBRANCH   1  25
TORSDOF 8
