REMARK  Name = ZINC12393599
REMARK  8 active torsions:
REMARK  status: ('A' for Active; 'I' for Inactive)
REMARK    1  A    between atoms: C_1  and  C_2
REMARK    2  A    between atoms: C_5  and  N_8
REMARK    3  A    between atoms: C_9  and  C_11
REMARK    4  A    between atoms: C_11  and  C_12
REMARK    5  A    between atoms: N_18  and  N_19
REMARK    6  A    between atoms: C_26  and  C_30
REMARK    7  A    between atoms: C_27  and  C_28
REMARK    8  A    between atoms: C_27  and  C_29
REMARK                            x       y       z     vdW  Elec       q    Type
REMARK                         _______ _______ _______ _____ _____    ______ ____
ROOT
ATOM      1  C   UNL     1      -1.625  -4.727  -0.009  0.00  0.00    +0.149 C 
ATOM      2  C   UNL     1      -0.206  -4.180  -0.024  0.00  0.00    +0.233 C 
ATOM      3  O   UNL     1       0.764  -4.907  -0.043  0.00  0.00    -0.274 OA
ATOM      4  N   UNL     1      -0.097  -2.863  -0.014  0.00  0.00    -0.263 N 
ATOM      5  C   UNL     1      -1.197  -2.032   0.009  0.00  0.00    +0.183 C 
ATOM      6  N   UNL     1      -1.221  -0.717   0.021  0.00  0.00    -0.127 NA
ATOM      7  S   UNL     1      -2.582  -3.160   0.025  0.00  0.00    -0.075 S 
ATOM      8  H   UNL     1       0.788  -2.467  -0.023  0.00  0.00    +0.157 HD
ENDROOT
BRANCH   6   9
ATOM      9  N   UNL     1      -0.021   0.006   0.011  0.00  0.00    -0.156 NA
ATOM     10  C   UNL     1      -0.045   1.299   0.022  0.00  0.00    +0.048 C 
ATOM     11  C   UNL     1      -1.271   2.200   0.041  0.00  0.00    +0.057 C 
ATOM     12  C   UNL     1      -0.702   3.651   0.061  0.00  0.00    +0.001 C 
ATOM     13  C   UNL     1      -0.104   3.844  -1.367  0.00  0.00    +0.005 C 
ATOM     14  C   UNL     1       1.140   2.895  -1.406  0.00  0.00    +0.013 C 
ATOM     15  C   UNL     1       1.159   2.252   0.014  0.00  0.00    +0.013 C 
ATOM     16  C   UNL     1       0.609   3.429   0.895  0.00  0.00    -0.021 C 
ATOM     17  C   UNL     1       0.311   2.984   2.328  0.00  0.00    +0.012 C 
ATOM     18  C   UNL     1       1.529   4.651   0.861  0.00  0.00    +0.012 C 
ATOM     19  C   UNL     1       2.493   1.646   0.455  0.00  0.00    +0.018 C 
ENDBRANCH   6   9
BRANCH   1  20
ATOM     20  C   UNL     1      -1.920  -5.537  -1.273  0.00  0.00    +0.120 C 
BRANCH  20  22
ATOM     21  N   UNL     1      -3.763  -6.923  -2.166  0.00  0.00    -0.285 N 
ATOM     22  C   UNL     1      -3.287  -6.160  -1.162  0.00  0.00    +0.219 C 
ATOM     23  O   UNL     1      -3.959  -5.976  -0.170  0.00  0.00    -0.275 OA
ATOM     24  H   UNL     1      -3.255  -7.017  -2.987  0.00  0.00    +0.155 HD
BRANCH  21  29
ATOM     25  C   UNL     1      -8.737  -9.590  -1.590  0.00  0.00    +0.044 C 
ATOM     26  C   UNL     1      -7.416  -8.882  -1.743  0.00  0.00    -0.050 A 
ATOM     27  C   UNL     1      -7.232  -7.635  -1.175  0.00  0.00    +0.005 A 
ATOM     28  C   UNL     1      -6.022  -6.983  -1.313  0.00  0.00    +0.023 A 
ATOM     29  C   UNL     1      -4.990  -7.581  -2.024  0.00  0.00    +0.033 A 
ATOM     30  C   UNL     1      -5.180  -8.831  -2.598  0.00  0.00    +0.023 A 
ATOM     31  C   UNL     1      -6.390  -9.481  -2.451  0.00  0.00    +0.005 A 
ENDBRANCH  21  29
ENDBRANCH  20  22
ENDBRANCH   1  20
TORSDOF 4
