REMARK  Name = ZINC20154332
REMARK  6 active torsions:
REMARK  status: ('A' for Active; 'I' for Inactive)
REMARK    1  A    between atoms: C_4  and  C_7
REMARK    2  A    between atoms: C_7  and  C_8
REMARK    3  A    between atoms: C_8  and  C_10
REMARK    4  A    between atoms: C_8  and  N_20
REMARK    5  A    between atoms: N_20  and  S_21
REMARK    6  A    between atoms: S_21  and  C_24
REMARK                            x       y       z     vdW  Elec       q    Type
REMARK                         _______ _______ _______ _____ _____    ______ ____
ROOT
ATOM      1  C   UNL     1      -2.944   0.710   1.460  0.00  0.00    +0.167 C 
ENDROOT
BRANCH   1   2
ATOM      2  C   UNL     1      -4.298   0.048   1.466  0.00  0.00    +0.237 C 
ATOM      3  O   UNL     1      -4.434  -1.051   1.960  0.00  0.00    -0.274 OA
ATOM      4  N   UNL     1      -5.359   0.678   0.922  0.00  0.00    -0.269 N 
ATOM      5  C   UNL     1      -6.587   0.024   0.833  0.00  0.00    +0.125 A 
ATOM      6  C   UNL     1      -7.648   0.639   0.177  0.00  0.00    +0.045 A 
ATOM      7  C   UNL     1      -8.862  -0.020   0.094  0.00  0.00    +0.025 A 
ATOM      8  C   UNL     1      -8.973  -1.278   0.674  0.00  0.00    +0.059 A 
ATOM      9  C   UNL     1      -7.877  -1.828   1.311  0.00  0.00    +0.132 A 
ATOM     10  N   UNL     1      -6.731  -1.177   1.368  0.00  0.00    -0.239 NA
ATOM     11 CL   UNL     1     -10.474  -2.148   0.601  0.00  0.00    -0.082 Cl
ATOM     12  H   UNL     1      -5.255   1.708   0.549  0.00  0.00    +0.156 HD
ENDBRANCH   1   2
BRANCH   1  13
ATOM     13  N   UNL     1      -1.967  -0.172   2.104  0.00  0.00    -0.177 NA
ATOM     14  H   UNL     1      -2.139  -1.258   2.129  0.00  0.00    +0.149 HD
BRANCH  13  15
ATOM     15  S   UNL     1      -0.739   0.475   3.007  0.00  0.00    +0.065 S 
ATOM     16  O   UNL     1       0.012  -0.620   3.514  0.00  0.00    -0.153 OA
ATOM     17  O   UNL     1      -0.152   1.501   2.219  0.00  0.00    -0.153 OA
BRANCH  15  18
ATOM     18  C   UNL     1      -1.476   1.266   4.398  0.00  0.00    +0.143 A 
ATOM     19  C   UNL     1      -1.763   0.753   5.619  0.00  0.00    +0.037 A 
ATOM     20  C   UNL     1      -2.348   1.570   6.569  0.00  0.00    +0.025 A 
ATOM     21  C   UNL     1      -2.617   2.860   6.250  0.00  0.00    +0.057 A 
ATOM     22  S   UNL     1      -2.030   2.955   4.567  0.00  0.00    -0.062 S 
ATOM     23 BR   UNL     1      -3.402   4.211   7.315  0.00  0.00    -0.043 Br
ENDBRANCH  15  18
ENDBRANCH  13  15
ENDBRANCH   1  13
BRANCH   1  24
ATOM     24  C   UNL     1      -2.515   0.978   0.016  0.00  0.00    +0.065 C 
BRANCH  24  28
ATOM     25  C   UNL     1       1.157   3.162  -0.001  0.00  0.00    +0.000 A 
ATOM     26  C   UNL     1       1.175   1.780  -0.008  0.00  0.00    +0.000 A 
ATOM     27  C   UNL     1      -0.013   1.073   0.001  0.00  0.00    +0.004 A 
ATOM     28  C   UNL     1      -1.220   1.748   0.012  0.00  0.00    -0.045 A 
ATOM     29  C   UNL     1      -1.238   3.130   0.024  0.00  0.00    +0.004 A 
ATOM     30  C   UNL     1      -0.050   3.837   0.015  0.00  0.00    +0.000 A 
ENDBRANCH  24  28
ENDBRANCH   1  24
TORSDOF 6
