REMARK  Name = ZINC19352425
REMARK  10 active torsions:
REMARK  status: ('A' for Active; 'I' for Inactive)
REMARK    1  A    between atoms: C_1  and  C_2
REMARK    2  A    between atoms: C_2  and  C_3
REMARK    3  A    between atoms: C_3  and  C_4
REMARK    4  A    between atoms: C_7  and  C_10
REMARK    5  A    between atoms: C_10  and  C_35
REMARK    6  A    between atoms: N_13  and  C_17
REMARK    7  A    between atoms: C_17  and  C_18
REMARK    8  A    between atoms: N_20  and  C_21
REMARK    9  A    between atoms: C_21  and  C_23
REMARK   10  A    between atoms: C_21  and  C_30
REMARK                            x       y       z     vdW  Elec       q    Type
REMARK                         _______ _______ _______ _____ _____    ______ ____
ROOT
ATOM      1  C   UNL     1       0.002  -0.004   0.002  0.00  0.00    +0.135 C 
ATOM      2  C   UNL     1      -0.018   1.512   0.010  0.00  0.00    +0.251 C 
ATOM      3  O   UNL     1      -0.995   2.231   0.019  0.00  0.00    -0.272 OA
ATOM      4  N   UNL     1       1.274   1.894   0.000  0.00  0.00    -0.215 N 
ATOM      5  C   UNL     1       2.099   0.841  -0.013  0.00  0.00    +0.310 C 
ATOM      6  O   UNL     1       3.311   0.933  -0.025  0.00  0.00    -0.252 OA
ATOM      7  N   UNL     1       1.438  -0.331  -0.013  0.00  0.00    -0.281 N 
ATOM      8  C   UNL     1      -0.662  -0.558   1.264  0.00  0.00    +0.047 C 
ATOM      9  H   UNL     1       1.763  -1.382  -0.022  0.00  0.00    +0.152 HD
ENDROOT
BRANCH   1  13
ATOM     10  C   UNL     1      -1.921  -1.514  -3.501  0.00  0.00    -0.047 A 
ATOM     11  C   UNL     1      -0.896  -2.231  -2.912  0.00  0.00    +0.004 A 
ATOM     12  C   UNL     1      -0.274  -1.742  -1.778  0.00  0.00    +0.006 A 
ATOM     13  C   UNL     1      -0.676  -0.537  -1.234  0.00  0.00    -0.015 A 
ATOM     14  C   UNL     1      -1.704   0.177  -1.820  0.00  0.00    +0.006 A 
ATOM     15  C   UNL     1      -2.324  -0.309  -2.956  0.00  0.00    +0.004 A 
BRANCH  10  16
ATOM     16  C   UNL     1      -2.599  -2.047  -4.737  0.00  0.00    +0.035 C 
BRANCH  16  18
ATOM     17  C   UNL     1      -4.476  -3.462  -5.585  0.00  0.00    +0.004 C 
ATOM     18  C   UNL     1      -3.787  -2.921  -4.330  0.00  0.00    +0.001 C 
ENDBRANCH  16  18
ENDBRANCH  10  16
ENDBRANCH   1  13
BRANCH   4  19
ATOM     19  C   UNL     1       1.720   3.289   0.002  0.00  0.00    +0.213 C 
BRANCH  19  20
ATOM     20  C   UNL     1       1.886   3.761   1.424  0.00  0.00    +0.232 C 
ATOM     21  O   UNL     1       1.655   3.006   2.344  0.00  0.00    -0.274 OA
ATOM     22  N   UNL     1       2.291   5.022   1.672  0.00  0.00    -0.303 N 
ATOM     23  H   UNL     1       2.501   5.707   0.837  0.00  0.00    +0.150 HD
BRANCH  22  24
ATOM     24  C   UNL     1       2.453   5.481   3.054  0.00  0.00    +0.140 C 
BRANCH  24  25
ATOM     25  C   UNL     1       2.301   6.979   3.107  0.00  0.00    -0.022 A 
ATOM     26  C   UNL     1       2.854   7.765   2.112  0.00  0.00    +0.008 A 
ATOM     27  C   UNL     1       2.712   9.139   2.157  0.00  0.00    +0.038 A 
ATOM     28  C   UNL     1       2.025   9.729   3.204  0.00  0.00    +0.123 A 
ATOM     29  C   UNL     1       1.476   8.942   4.202  0.00  0.00    +0.038 A 
ATOM     30  C   UNL     1       1.615   7.568   4.152  0.00  0.00    +0.008 A 
ATOM     31  F   UNL     1       1.889  11.073   3.251  0.00  0.00    -0.205 F 
ENDBRANCH  24  25
BRANCH  24  32
ATOM     32  C   UNL     1       3.821   5.096   3.554  0.00  0.00    +0.014 A 
ATOM     33  C   UNL     1       4.184   4.630   4.774  0.00  0.00    +0.013 A 
ATOM     34  C   UNL     1       5.514   4.339   5.012  0.00  0.00    +0.008 A 
ATOM     35  C   UNL     1       6.416   4.527   4.018  0.00  0.00    +0.045 A 
ATOM     36  S   UNL     1       5.384   5.128   2.692  0.00  0.00    -0.099 S 
ENDBRANCH  24  32
ENDBRANCH  22  24
ENDBRANCH  19  20
ENDBRANCH   4  19
TORSDOF 8
