REMARK  Name = ZINC36545487
REMARK  11 active torsions:
REMARK  status: ('A' for Active; 'I' for Inactive)
REMARK    1  A    between atoms: C_1  and  C_2
REMARK    2  A    between atoms: C_2  and  C_3
REMARK    3  A    between atoms: C_3  and  C_4
REMARK    4  A    between atoms: C_4  and  N_5
REMARK    5  A    between atoms: C_6  and  C_8
REMARK    6  A    between atoms: C_8  and  C_10
REMARK    7  A    between atoms: C_8  and  N_17
REMARK    8  A    between atoms: N_17  and  C_18
REMARK    9  A    between atoms: C_25  and  C_27
REMARK   10  A    between atoms: C_31  and  O_34
REMARK   11  A    between atoms: C_32  and  O_33
REMARK                            x       y       z     vdW  Elec       q    Type
REMARK                         _______ _______ _______ _____ _____    ______ ____
ROOT
ATOM      1  N   UNL     1       2.034  -5.695  -4.210  0.00  0.00    -0.250 N 
ATOM      2  C   UNL     1       1.621  -6.032  -5.447  0.00  0.00    +0.255 C 
ATOM      3  O   UNL     1       1.149  -5.187  -6.182  0.00  0.00    -0.269 OA
ENDROOT
BRANCH   1   4
ATOM      4  C   UNL     1       2.486  -6.684  -3.329  0.00  0.00    +0.056 A 
ATOM      5  C   UNL     1       1.589  -7.331  -2.490  0.00  0.00    +0.025 A 
ATOM      6  C   UNL     1       2.038  -8.307  -1.622  0.00  0.00    +0.002 A 
ATOM      7  C   UNL     1       3.380  -8.640  -1.587  0.00  0.00    +0.002 A 
ATOM      8  C   UNL     1       4.276  -7.998  -2.421  0.00  0.00    +0.022 A 
ATOM      9  C   UNL     1       3.833  -7.024  -3.296  0.00  0.00    +0.062 A 
ATOM     10 CL   UNL     1       4.958  -6.223  -4.348  0.00  0.00    -0.082 Cl
ENDBRANCH   1   4
BRANCH   2  11
ATOM     11  C   UNL     1       1.741  -7.428  -5.910  0.00  0.00    +0.082 A 
ATOM     12  C   UNL     1       1.175  -8.467  -5.164  0.00  0.00    +0.017 A 
ATOM     13  C   UNL     1       1.289  -9.768  -5.599  0.00  0.00    +0.005 A 
ATOM     14  C   UNL     1       1.963 -10.057  -6.774  0.00  0.00    +0.049 A 
ATOM     15  C   UNL     1       2.529  -9.040  -7.524  0.00  0.00    +0.159 A 
ATOM     16  C   UNL     1       2.417  -7.719  -7.101  0.00  0.00    +0.171 A 
BRANCH  16  17
ATOM     17  O   UNL     1       2.965  -6.718  -7.836  0.00  0.00    -0.503 OA
ATOM     18  H   UNL     1       3.879  -6.512  -7.599  0.00  0.00    +0.292 HD
ENDBRANCH  16  17
BRANCH  15  19
ATOM     19  O   UNL     1       3.189  -9.331  -8.676  0.00  0.00    -0.503 OA
ATOM     20  H   UNL     1       2.627  -9.331  -9.463  0.00  0.00    +0.292 HD
ENDBRANCH  15  19
ENDBRANCH   2  11
BRANCH   1  21
ATOM     21  C   UNL     1       2.010  -4.292  -3.787  0.00  0.00    +0.197 C 
BRANCH  21  22
ATOM     22  C   UNL     1       3.375  -3.896  -3.284  0.00  0.00    -0.018 A 
ATOM     23  C   UNL     1       4.060  -2.859  -3.888  0.00  0.00    +0.007 A 
ATOM     24  C   UNL     1       5.311  -2.495  -3.428  0.00  0.00    +0.020 A 
ATOM     25  C   UNL     1       5.878  -3.169  -2.361  0.00  0.00    +0.041 A 
ATOM     26  C   UNL     1       5.192  -4.207  -1.756  0.00  0.00    +0.020 A 
ATOM     27  C   UNL     1       3.938  -4.567  -2.214  0.00  0.00    +0.007 A 
ATOM     28 CL   UNL     1       7.449  -2.713  -1.782  0.00  0.00    -0.084 Cl
ENDBRANCH  21  22
BRANCH  21  30
ATOM     29  N   UNL     1       0.803  -2.902  -2.135  0.00  0.00    -0.313 N 
ATOM     30  C   UNL     1       0.998  -4.117  -2.684  0.00  0.00    +0.238 C 
ATOM     31  O   UNL     1       0.359  -5.070  -2.290  0.00  0.00    -0.273 OA
ATOM     32  H   UNL     1       1.313  -2.140  -2.450  0.00  0.00    +0.149 HD
BRANCH  29  33
ATOM     33  C   UNL     1      -0.181  -2.732  -1.063  0.00  0.00    +0.104 C 
BRANCH  33  34
ATOM     34  C   UNL     1      -0.206  -1.267  -0.622  0.00  0.00    +0.018 C 
BRANCH  34  36
ATOM     35  C   UNL     1      -1.259   0.375   0.939  0.00  0.00    +0.004 C 
ATOM     36  C   UNL     1      -1.234  -1.089   0.498  0.00  0.00    -0.002 C 
ENDBRANCH  34  36
ENDBRANCH  33  34
ENDBRANCH  29  33
ENDBRANCH  21  30
ENDBRANCH   1  21
TORSDOF 10
