REMARK  Name = ZINC43640474
REMARK  4 active torsions:
REMARK  status: ('A' for Active; 'I' for Inactive)
REMARK    1  A    between atoms: C_1  and  C_2
REMARK    2  A    between atoms: C_2  and  C_3
REMARK    3  A    between atoms: C_6  and  C_8
REMARK    4  A    between atoms: C_8  and  C_10
REMARK                            x       y       z     vdW  Elec       q    Type
REMARK                         _______ _______ _______ _____ _____    ______ ____
ROOT
ATOM      1  C   UNL     1       1.039  -3.117  -5.291  0.00  0.00    -0.023 A 
ATOM      2  C   UNL     1      -0.341  -3.167  -5.224  0.00  0.00    +0.009 A 
ATOM      3  C   UNL     1      -1.006  -4.363  -5.424  0.00  0.00    +0.048 A 
ATOM      4  C   UNL     1      -0.288  -5.515  -5.691  0.00  0.00    +0.142 A 
ATOM      5  C   UNL     1       1.104  -5.465  -5.757  0.00  0.00    +0.076 A 
ATOM      6  C   UNL     1       1.764  -4.263  -5.562  0.00  0.00    +0.032 A 
ATOM      7  N   UNL     1       1.820  -6.641  -6.025  0.00  0.00    -0.280 N 
ATOM      8  C   UNL     1       1.160  -7.710  -6.520  0.00  0.00    +0.255 C 
ATOM      9  O   UNL     1       1.753  -8.748  -6.731  0.00  0.00    -0.272 OA
ATOM     10  C   UNL     1      -0.316  -7.610  -6.809  0.00  0.00    +0.325 C 
ATOM     11  O   UNL     1      -0.925  -6.699  -5.891  0.00  0.00    -0.481 OA
ATOM     12  H   UNL     1       2.774  -6.685  -5.859  0.00  0.00    +0.155 HD
ENDROOT
BRANCH   1  13
ATOM     13  C   UNL     1       1.755  -1.809  -5.073  0.00  0.00    +0.147 C 
ATOM     14 CL   UNL     1       1.104  -0.571  -6.210  0.00  0.00    -0.111 Cl
BRANCH  13  18
ATOM     15  C   UNL     1       0.707  -0.490  -1.238  0.00  0.00    -0.010 A 
ATOM     16  C   UNL     1       2.023  -0.761  -1.421  0.00  0.00    +0.011 A 
ATOM     17  C   UNL     1       2.451  -1.202  -2.659  0.00  0.00    +0.013 A 
ATOM     18  C   UNL     1       1.542  -1.350  -3.654  0.00  0.00    +0.012 A 
ATOM     19  S   UNL     1       0.026  -0.866  -2.845  0.00  0.00    -0.096 S 
BRANCH  15  21
ATOM     20  C   UNL     1      -0.019   1.526   0.010  0.00  0.00    +0.009 C 
ATOM     21  C   UNL     1       0.002  -0.004   0.002  0.00  0.00    +0.039 C 
ENDBRANCH  15  21
ENDBRANCH  13  18
ENDBRANCH   1  13
TORSDOF 3
