REMARK  Name = ZINC34868643
REMARK  3 active torsions:
REMARK  status: ('A' for Active; 'I' for Inactive)
REMARK    1  A    between atoms: C_3  and  C_8
REMARK    2  A    between atoms: C_13  and  C_25
REMARK    3  A    between atoms: C_29  and  O_31
REMARK                            x       y       z     vdW  Elec       q    Type
REMARK                         _______ _______ _______ _____ _____    ______ ____
ROOT
ATOM      1  C   UNL     1       3.740   1.840  -0.442  0.00  0.00    +0.183 A 
ATOM      2  N   UNL     1       3.721   3.182  -0.358  0.00  0.00    -0.193 NA
ATOM      3  C   UNL     1       4.940   3.626  -0.215  0.00  0.00    +0.215 A 
ATOM      4  N   UNL     1       5.780   2.562  -0.205  0.00  0.00    -0.224 N 
ATOM      5  N   UNL     1       4.986   1.423  -0.346  0.00  0.00    -0.148 NA
ATOM      6  C   UNL     1       7.232   2.663  -0.068  0.00  0.00    +0.153 C 
ATOM      7  C   UNL     1       7.595   4.035   0.502  0.00  0.00    +0.104 C 
ATOM      8  C   UNL     1       6.836   5.146  -0.235  0.00  0.00    +0.086 C 
ATOM      9  N   UNL     1       5.395   4.930  -0.088  0.00  0.00    -0.310 N 
ATOM     10  C   UNL     1       7.189   6.489   0.416  0.00  0.00    +0.023 C 
ATOM     11  C   UNL     1       6.674   6.508   1.856  0.00  0.00    +0.009 C 
ATOM     12  C   UNL     1       7.391   5.431   2.675  0.00  0.00    +0.075 C 
ATOM     13  C   UNL     1       7.223   4.107   1.964  0.00  0.00    +0.141 C 
ATOM     14  O   UNL     1       6.818   3.133   2.552  0.00  0.00    -0.297 OA
ATOM     15  H   UNL     1       4.788   5.665   0.094  0.00  0.00    +0.149 HD
ENDROOT
BRANCH   1  18
ATOM     16  C   UNL     1       0.175   0.719  -0.855  0.00  0.00    +0.002 A 
ATOM     17  C   UNL     1       1.279   1.532  -0.699  0.00  0.00    +0.012 A 
ATOM     18  C   UNL     1       2.550   0.969  -0.609  0.00  0.00    +0.022 A 
ATOM     19  C   UNL     1       2.700  -0.414  -0.677  0.00  0.00    +0.031 A 
ATOM     20  C   UNL     1       1.589  -1.220  -0.834  0.00  0.00    +0.042 A 
ATOM     21  C   UNL     1       0.329  -0.654  -0.922  0.00  0.00    +0.020 A 
ATOM     22 CL   UNL     1       1.774  -2.944  -0.919  0.00  0.00    -0.084 Cl
ENDBRANCH   1  18
BRANCH   6  23
ATOM     23  C   UNL     1       7.725   1.586   0.864  0.00  0.00    -0.019 A 
ATOM     24  C   UNL     1       6.826   0.885   1.647  0.00  0.00    +0.006 A 
ATOM     25  C   UNL     1       7.275  -0.104   2.502  0.00  0.00    +0.004 A 
ATOM     26  C   UNL     1       8.624  -0.393   2.578  0.00  0.00    +0.045 A 
ATOM     27  C   UNL     1       9.528   0.309   1.794  0.00  0.00    +0.117 A 
ATOM     28  C   UNL     1       9.074   1.296   0.932  0.00  0.00    +0.051 A 
BRANCH  27  29
ATOM     29  O   UNL     1      10.855   0.026   1.867  0.00  0.00    -0.507 OA
ATOM     30  H   UNL     1      11.146  -0.655   1.245  0.00  0.00    +0.292 HD
ENDBRANCH  27  29
ENDBRANCH   6  23
TORSDOF 3
