REMARK  Name = ZINC32929274
REMARK  6 active torsions:
REMARK  status: ('A' for Active; 'I' for Inactive)
REMARK    1  A    between atoms: C_1  and  C_2
REMARK    2  A    between atoms: C_5  and  N_9
REMARK    3  A    between atoms: N_9  and  C_10
REMARK    4  A    between atoms: C_10  and  C_11
REMARK    5  A    between atoms: N_13  and  N_14
REMARK    6  A    between atoms: C_20  and  C_22
REMARK                            x       y       z     vdW  Elec       q    Type
REMARK                         _______ _______ _______ _____ _____    ______ ____
ROOT
ATOM      1  C   UNL     1       2.190   4.266   0.160  0.00  0.00    +0.199 C 
ENDROOT
BRANCH   1   2
ATOM      2  C   UNL     1       0.966   3.391   0.248  0.00  0.00    +0.249 C 
ATOM      3  O   UNL     1      -0.120   3.887   0.463  0.00  0.00    -0.272 OA
ATOM      4  N   UNL     1       1.078   2.057   0.088  0.00  0.00    -0.206 N 
ATOM      5  H   UNL     1       2.062   1.608  -0.107  0.00  0.00    +0.177 HD
BRANCH   4   6
ATOM      6  N   UNL     1      -0.060   1.244   0.170  0.00  0.00    -0.189 NA
ATOM      7  C   UNL     1       0.060  -0.030   0.140  0.00  0.00    +0.040 C 
ATOM      8  C   UNL     1      -1.051  -0.902  -0.400  0.00  0.00    +0.053 C 
ATOM      9  C   UNL     1      -1.367  -1.989   0.626  0.00  0.00    +0.006 C 
ATOM     10  C   UNL     1      -0.085  -2.746   0.978  0.00  0.00    +0.001 C 
ATOM     11  C   UNL     1       0.912  -1.797   1.644  0.00  0.00    +0.009 C 
ATOM     12  C   UNL     1       1.315  -0.703   0.651  0.00  0.00    +0.032 C 
ATOM     13  C   UNL     1       2.201   0.328   1.354  0.00  0.00    +0.014 C 
ENDBRANCH   4   6
ENDBRANCH   1   2
BRANCH   1  14
ATOM     14  N   UNL     1       1.806   5.664   0.367  0.00  0.00    -0.335 N 
ATOM     15  H   UNL     1       0.753   5.924   0.552  0.00  0.00    +0.147 HD
BRANCH  14  20
ATOM     16  C   UNL     1       5.750   9.738   0.218  0.00  0.00    +0.046 C 
ATOM     17  C   UNL     1       4.702   8.656   0.258  0.00  0.00    -0.022 A 
ATOM     18  C   UNL     1       3.378   8.985   0.490  0.00  0.00    +0.024 A 
ATOM     19  C   UNL     1       2.415   7.994   0.526  0.00  0.00    +0.038 A 
ATOM     20  C   UNL     1       2.777   6.668   0.330  0.00  0.00    +0.030 A 
ATOM     21  C   UNL     1       4.108   6.340   0.103  0.00  0.00    +0.038 A 
ATOM     22  C   UNL     1       5.066   7.335   0.062  0.00  0.00    +0.024 A 
ATOM     23 BR   UNL     1       6.876   6.891  -0.255  0.00  0.00    -0.050 Br
ATOM     24 BR   UNL     1       2.886  10.791   0.757  0.00  0.00    -0.050 Br
ENDBRANCH  14  20
ENDBRANCH   1  14
TORSDOF 4
