REMARK  Name = ZINC66592894
REMARK  9 active torsions:
REMARK  status: ('A' for Active; 'I' for Inactive)
REMARK    1  A    between atoms: C_1  and  C_2
REMARK    2  A    between atoms: C_2  and  C_3
REMARK    3  A    between atoms: C_2  and  C_4
REMARK    4  A    between atoms: C_2  and  N_28
REMARK    5  A    between atoms: C_4  and  N_5
REMARK    6  A    between atoms: C_6  and  C_8
REMARK    7  A    between atoms: C_20  and  C_22
REMARK    8  A    between atoms: N_28  and  C_29
REMARK    9  A    between atoms: N_28  and  C_30
REMARK                            x       y       z     vdW  Elec       q    Type
REMARK                         _______ _______ _______ _____ _____    ______ ____
ROOT
ATOM      1  C   UNL     1      -3.186  -3.499  -0.242  0.00  0.00    +0.163 C 
ATOM      2  C   UNL     1      -3.379  -3.729  -1.757  0.00  0.00    +0.037 C 
ATOM      3  C   UNL     1      -4.825  -4.308  -1.834  0.00  0.00    +0.012 C 
ATOM      4  C   UNL     1      -5.778  -3.117  -1.723  0.00  0.00    +0.005 C 
ATOM      5  C   UNL     1      -7.189  -3.586  -1.373  0.00  0.00    +0.000 C 
ATOM      6  C   UNL     1      -7.150  -4.279  -0.007  0.00  0.00    +0.002 C 
ATOM      7  C   UNL     1      -6.262  -5.519  -0.119  0.00  0.00    +0.023 C 
ATOM      8  C   UNL     1      -4.853  -5.165  -0.555  0.00  0.00    +0.080 C 
ATOM      9  N   UNL     1      -4.128  -4.390   0.460  0.00  0.00    -0.283 N 
ATOM     10  C   UNL     1      -4.295  -4.474   1.795  0.00  0.00    +0.247 C 
ATOM     11  O   UNL     1      -5.019  -5.330   2.264  0.00  0.00    -0.270 OA
ENDROOT
BRANCH  10  12
ATOM     12  C   UNL     1      -3.596  -3.526   2.688  0.00  0.00    +0.037 A 
ATOM     13  C   UNL     1      -2.501  -2.798   2.219  0.00  0.00    +0.013 A 
ATOM     14  C   UNL     1      -1.853  -1.915   3.058  0.00  0.00    +0.001 A 
ATOM     15  C   UNL     1      -2.287  -1.749   4.361  0.00  0.00    +0.000 A 
ATOM     16  C   UNL     1      -3.371  -2.468   4.833  0.00  0.00    +0.001 A 
ATOM     17  C   UNL     1      -4.031  -3.350   4.003  0.00  0.00    +0.013 A 
ENDBRANCH  10  12
BRANCH   1  19
ATOM     18  N   UNL     1      -2.624  -1.091  -0.257  0.00  0.00    -0.315 N 
ATOM     19  C   UNL     1      -3.486  -2.063   0.101  0.00  0.00    +0.234 C 
ATOM     20  O   UNL     1      -4.503  -1.782   0.699  0.00  0.00    -0.274 OA
ATOM     21  H   UNL     1      -1.810  -1.315  -0.735  0.00  0.00    +0.149 HD
BRANCH  18  22
ATOM     22  C   UNL     1      -2.916   0.306   0.077  0.00  0.00    +0.092 C 
BRANCH  22  24
ATOM     23  C   UNL     1      -2.090   2.658  -0.091  0.00  0.00    -0.008 C 
ATOM     24  C   UNL     1      -1.786   1.200  -0.439  0.00  0.00    -0.056 C 
ATOM     25  C   UNL     1      -0.467   0.784   0.216  0.00  0.00    -0.008 C 
BRANCH  24  26
ATOM     26  N   UNL     1      -1.675   1.057  -1.897  0.00  0.00    +0.380 N 
ATOM     27  C   UNL     1      -2.941   1.456  -2.526  0.00  0.00    -0.096 C 
ATOM     28  C   UNL     1      -0.590   1.915  -2.391  0.00  0.00    -0.096 C 
ATOM     29  H   UNL     1      -1.474   0.095  -2.126  0.00  0.00    -0.082 HD
ENDBRANCH  24  26
ENDBRANCH  22  24
ENDBRANCH  18  22
ENDBRANCH   1  19
TORSDOF 5
