REMARK  Name = ZINC04210071
REMARK  8 active torsions:
REMARK  status: ('A' for Active; 'I' for Inactive)
REMARK    1  A    between atoms: C_1  and  O_2
REMARK    2  A    between atoms: O_2  and  C_3
REMARK    3  A    between atoms: C_3  and  C_5
REMARK    4  A    between atoms: C_8  and  C_11
REMARK    5  A    between atoms: N_12  and  N_13
REMARK    6  A    between atoms: C_14  and  C_16
REMARK    7  A    between atoms: N_18  and  C_19
REMARK    8  A    between atoms: C_20  and  C_28
REMARK                            x       y       z     vdW  Elec       q    Type
REMARK                         _______ _______ _______ _____ _____    ______ ____
ROOT
ATOM      1  N   UNL     1      -2.983   8.956  -4.521  0.00  0.00    -0.199 N 
ATOM      2  C   UNL     1      -2.665   8.665  -3.244  0.00  0.00    +0.318 C 
ATOM      3  O   UNL     1      -2.681   9.537  -2.400  0.00  0.00    -0.263 OA
ATOM      4  H   UNL     1      -2.971   8.259  -5.195  0.00  0.00    +0.178 HD
ENDROOT
BRANCH   2   5
ATOM      5  C   UNL     1      -2.294   7.271  -2.868  0.00  0.00    +0.305 C 
ATOM      6  O   UNL     1      -2.278   6.398  -3.712  0.00  0.00    -0.265 OA
ATOM      7  N   UNL     1      -1.976   6.979  -1.591  0.00  0.00    -0.271 N 
ATOM      8  H   UNL     1      -1.989   7.676  -0.917  0.00  0.00    +0.156 HD
BRANCH   7   9
ATOM      9  C   UNL     1      -1.631   5.684  -1.242  0.00  0.00    +0.090 A 
ATOM     10  C   UNL     1      -1.275   5.183   0.004  0.00  0.00    +0.084 A 
ATOM     11  C   UNL     1      -0.956   3.769   0.100  0.00  0.00    -0.018 A 
ATOM     12  C   UNL     1      -1.036   3.058  -1.048  0.00  0.00    -0.004 A 
ATOM     13  S   UNL     1      -1.532   4.234  -2.277  0.00  0.00    -0.077 S 
ATOM     14  C   UNL     1      -0.762   1.598  -1.231  0.00  0.00    +0.043 C 
ATOM     15  C   UNL     1      -0.013   1.086   0.008  0.00  0.00    +0.005 C 
ATOM     16  C   UNL     1      -0.736   1.583   1.263  0.00  0.00    +0.005 C 
ATOM     17  C   UNL     1      -0.552   3.093   1.407  0.00  0.00    +0.037 C 
BRANCH  10  18
ATOM     18  C   UNL     1      -1.224   6.032   1.156  0.00  0.00    +0.102 C 
ATOM     19  N   UNL     1      -1.183   6.706   2.069  0.00  0.00    -0.191 NA
ENDBRANCH  10  18
ENDBRANCH   7   9
ENDBRANCH   2   5
BRANCH   1  21
ATOM     20  C   UNL     1      -3.639  10.547  -6.105  0.00  0.00    +0.138 C 
ATOM     21  N   UNL     1      -3.332  10.266  -4.874  0.00  0.00    -0.187 NA
BRANCH  20  25
ATOM     22  C   UNL     1      -4.694  14.510  -7.173  0.00  0.00    +0.059 A 
ATOM     23  C   UNL     1      -4.676  13.505  -8.146  0.00  0.00    +0.015 A 
ATOM     24  C   UNL     1      -4.336  12.228  -7.802  0.00  0.00    +0.010 A 
ATOM     25  C   UNL     1      -4.005  11.925  -6.476  0.00  0.00    -0.005 A 
ATOM     26  C   UNL     1      -4.029  12.929  -5.503  0.00  0.00    +0.010 A 
ATOM     27  C   UNL     1      -4.364  14.207  -5.849  0.00  0.00    +0.015 A 
BRANCH  22  28
ATOM     28  C   UNL     1      -5.062  15.889  -7.545  0.00  0.00    +0.339 C 
ATOM     29  O   UNL     1      -5.350  16.152  -8.696  0.00  0.00    -0.245 OA
BRANCH  28  31
ATOM     30  C   UNL     1      -5.452  18.191  -7.046  0.00  0.00    +0.280 C 
ATOM     31  O   UNL     1      -5.080  16.858  -6.609  0.00  0.00    -0.464 OA
ENDBRANCH  28  31
ENDBRANCH  22  28
ENDBRANCH  20  25
ENDBRANCH   1  21
TORSDOF 7
