REMARK  Name = ZINC34923263
REMARK  13 active torsions:
REMARK  status: ('A' for Active; 'I' for Inactive)
REMARK    1  A    between atoms: C_1  and  C_2
REMARK    2  A    between atoms: C_2  and  C_3
REMARK    3  A    between atoms: C_4  and  C_33
REMARK    4  A    between atoms: C_5  and  C_25
REMARK    5  A    between atoms: C_8  and  C_13
REMARK    6  A    between atoms: C_14  and  N_16
REMARK    7  A    between atoms: N_16  and  C_17
REMARK    8  A    between atoms: C_17  and  C_18
REMARK    9  A    between atoms: C_18  and  N_19
REMARK   10  A    between atoms: C_28  and  C_32
REMARK   11  A    between atoms: C_30  and  C_31
REMARK   12  A    between atoms: C_33  and  O_35
REMARK   13  A    between atoms: O_35  and  C_36
REMARK                            x       y       z     vdW  Elec       q    Type
REMARK                         _______ _______ _______ _____ _____    ______ ____
ROOT
ATOM      1  C   UNL     1      -1.887  -1.292   0.287  0.00  0.00    +0.056 C 
ATOM      2  C   UNL     1      -2.272  -1.415  -1.035  0.00  0.00    +0.083 C 
ATOM      3  C   UNL     1      -3.744  -1.607  -1.326  0.00  0.00    +0.150 C 
ATOM      4  N   UNL     1      -4.665  -1.646  -0.159  0.00  0.00    -0.267 N 
ATOM      5  C   UNL     1      -6.035  -1.810  -0.187  0.00  0.00    +0.048 C 
ATOM      6  C   UNL     1      -6.690  -1.818   0.995  0.00  0.00    +0.072 C 
ATOM      7  S   UNL     1      -5.358  -1.592   2.156  0.00  0.00    -0.060 S 
ATOM      8  C   UNL     1      -4.082  -1.505   1.070  0.00  0.00    +0.166 C 
ATOM      9  N   UNL     1      -2.788  -1.346   1.255  0.00  0.00    -0.229 NA
ENDROOT
BRANCH   3  10
ATOM     10  C   UNL     1      -3.903  -2.898  -2.085  0.00  0.00    -0.019 A 
ATOM     11  C   UNL     1      -4.144  -4.076  -1.403  0.00  0.00    +0.006 A 
ATOM     12  C   UNL     1      -4.290  -5.261  -2.099  0.00  0.00    +0.004 A 
ATOM     13  C   UNL     1      -4.194  -5.268  -3.478  0.00  0.00    -0.050 A 
ATOM     14  C   UNL     1      -3.954  -4.091  -4.161  0.00  0.00    +0.007 A 
ATOM     15  C   UNL     1      -3.812  -2.905  -3.464  0.00  0.00    -0.045 A 
ATOM     16  C   UNL     1      -3.555  -1.620  -4.208  0.00  0.00    +0.044 C 
ATOM     17  C   UNL     1      -4.352  -6.561  -4.238  0.00  0.00    +0.044 C 
ENDBRANCH   3  10
BRANCH   5  18
ATOM     18  C   UNL     1      -6.757  -1.971  -1.457  0.00  0.00    +0.091 C 
ATOM     19  C   UNL     1      -8.069  -2.273  -1.453  0.00  0.00    +0.239 C 
ATOM     20  O   UNL     1      -8.751  -2.317  -0.282  0.00  0.00    -0.271 OA
BRANCH  19  21
ATOM     21  N   UNL     1      -8.723  -2.538  -2.645  0.00  0.00    -0.314 N 
ATOM     22  H   UNL     1      -8.235  -2.506  -3.483  0.00  0.00    +0.149 HD
BRANCH  21  23
ATOM     23  C   UNL     1     -10.150  -2.867  -2.640  0.00  0.00    +0.086 C 
BRANCH  23  24
ATOM     24  C   UNL     1     -10.621  -3.114  -4.075  0.00  0.00    -0.060 C 
BRANCH  24  25
ATOM     25  N   UNL     1     -12.053  -3.443  -4.070  0.00  0.00    +0.381 N 
ATOM     26  C   UNL     1     -12.259  -4.711  -3.361  0.00  0.00    -0.079 C 
ATOM     27  C   UNL     1     -13.756  -5.019  -3.283  0.00  0.00    -0.019 C 
ATOM     28  C   UNL     1     -14.325  -5.126  -4.701  0.00  0.00    -0.004 C 
ATOM     29  C   UNL     1     -14.038  -3.825  -5.455  0.00  0.00    -0.019 C 
ATOM     30  C   UNL     1     -12.530  -3.562  -5.453  0.00  0.00    -0.079 C 
ATOM     31  H   UNL     1     -12.564  -2.711  -3.601  0.00  0.00    -0.082 HD
ENDBRANCH  24  25
ENDBRANCH  23  24
ENDBRANCH  21  23
ENDBRANCH  19  21
ENDBRANCH   5  18
BRANCH   1  33
ATOM     32  C   UNL     1      -0.115   0.396   0.686  0.00  0.00    +0.010 C 
ATOM     33  C   UNL     1      -0.432  -1.100   0.627  0.00  0.00    +0.053 C 
ENDBRANCH   1  33
BRANCH   2  34
ATOM     34  C   UNL     1      -1.331  -1.365  -2.070  0.00  0.00    +0.339 C 
ATOM     35  O   UNL     1      -1.147  -0.324  -2.676  0.00  0.00    -0.245 OA
BRANCH  34  36
ATOM     36  O   UNL     1      -0.626  -2.471  -2.397  0.00  0.00    -0.465 OA
ATOM     37  C   UNL     1       0.368  -2.329  -3.414  0.00  0.00    +0.280 C 
ENDBRANCH  34  36
ENDBRANCH   2  34
TORSDOF 9
