REMARK  Name = ZINC14510238
REMARK  11 active torsions:
REMARK  status: ('A' for Active; 'I' for Inactive)
REMARK    1  A    between atoms: C_1  and  C_2
REMARK    2  A    between atoms: C_2  and  C_3
REMARK    3  A    between atoms: C_3  and  C_4
REMARK    4  A    between atoms: C_4  and  N_5
REMARK    5  A    between atoms: N_5  and  C_6
REMARK    6  A    between atoms: C_7  and  N_22
REMARK    7  A    between atoms: N_8  and  C_15
REMARK    8  A    between atoms: C_15  and  C_16
REMARK    9  A    between atoms: C_23  and  C_25
REMARK   10  A    between atoms: C_25  and  O_26
REMARK   11  A    between atoms: O_26  and  C_27
REMARK                            x       y       z     vdW  Elec       q    Type
REMARK                         _______ _______ _______ _____ _____    ______ ____
ROOT
ATOM      1  C   UNL     1      -0.046   1.361  -0.014  0.00  0.00    +0.140 A 
ATOM      2  C   UNL     1       0.370   0.689  -1.145  0.00  0.00    +0.128 A 
ATOM      3  N   UNL     1       1.563   0.006  -1.119  0.00  0.00    -0.276 N 
ATOM      4  C   UNL     1       2.316  -0.008  -0.004  0.00  0.00    +0.331 A 
ATOM      5  O   UNL     1       3.367  -0.619  -0.001  0.00  0.00    -0.246 OA
ATOM      6  N   UNL     1       1.926   0.640   1.108  0.00  0.00    -0.273 N 
ATOM      7  H   UNL     1       2.504   0.614   1.923  0.00  0.00    +0.173 HD
ATOM      8  C   UNL     1       0.766   1.325   1.135  0.00  0.00    +0.277 A 
ATOM      9  O   UNL     1       0.422   1.909   2.149  0.00  0.00    -0.266 OA
ENDROOT
BRANCH   1  10
ATOM     10  N   UNL     1      -1.268   2.066  -0.007  0.00  0.00    -0.261 N 
ATOM     11  C   UNL     1      -1.271   3.410   0.110  0.00  0.00    +0.258 C 
ATOM     12  O   UNL     1      -0.231   4.005   0.300  0.00  0.00    -0.272 OA
BRANCH  10  13
ATOM     13  C   UNL     1      -2.535   1.339  -0.126  0.00  0.00    +0.114 C 
BRANCH  13  14
ATOM     14  C   UNL     1      -3.106   1.077   1.269  0.00  0.00    +0.019 C 
BRANCH  14  16
ATOM     15  C   UNL     1      -4.999   0.055   2.539  0.00  0.00    +0.004 C 
ATOM     16  C   UNL     1      -4.428   0.317   1.144  0.00  0.00    -0.002 C 
ENDBRANCH  14  16
ENDBRANCH  13  14
ENDBRANCH  10  13
BRANCH  11  17
ATOM     17  C   UNL     1      -2.566   4.173   0.004  0.00  0.00    +0.325 C 
BRANCH  17  18
ATOM     18  O   UNL     1      -2.310   5.571   0.160  0.00  0.00    -0.481 OA
BRANCH  18  19
ATOM     19  C   UNL     1      -3.380   6.406   0.090  0.00  0.00    +0.140 A 
ATOM     20  C   UNL     1      -4.650   5.891  -0.124  0.00  0.00    +0.048 A 
ATOM     21  C   UNL     1      -5.737   6.741  -0.195  0.00  0.00    +0.023 A 
ATOM     22  C   UNL     1      -5.559   8.106  -0.053  0.00  0.00    +0.043 A 
ATOM     23  C   UNL     1      -4.293   8.623   0.160  0.00  0.00    +0.043 A 
ATOM     24  C   UNL     1      -3.204   7.775   0.238  0.00  0.00    +0.084 A 
ATOM     25 CL   UNL     1      -1.617   8.422   0.514  0.00  0.00    -0.080 Cl
ATOM     26 CL   UNL     1      -6.926   9.172  -0.142  0.00  0.00    -0.083 Cl
ENDBRANCH  18  19
ENDBRANCH  17  18
ENDBRANCH  11  17
ENDBRANCH   1  10
BRANCH   2  27
ATOM     27  N   UNL     1      -0.399   0.703  -2.284  0.00  0.00    -0.343 N 
ATOM     28  H   UNL     1      -1.196   1.255  -2.325  0.00  0.00    +0.144 HD
ATOM     29  H   UNL     1      -0.144   0.161  -3.047  0.00  0.00    +0.144 HD
ENDBRANCH   2  27
BRANCH   3  30
ATOM     30  C   UNL     1       2.017  -0.712  -2.313  0.00  0.00    +0.163 C 
BRANCH  30  31
ATOM     31  C   UNL     1       1.494  -2.125  -2.279  0.00  0.00    -0.028 A 
ATOM     32  C   UNL     1       2.241  -3.124  -1.683  0.00  0.00    +0.005 A 
ATOM     33  C   UNL     1       1.759  -4.419  -1.648  0.00  0.00    +0.000 A 
ATOM     34  C   UNL     1       0.535  -4.717  -2.217  0.00  0.00    +0.000 A 
ATOM     35  C   UNL     1      -0.209  -3.719  -2.817  0.00  0.00    +0.000 A 
ATOM     36  C   UNL     1       0.270  -2.423  -2.848  0.00  0.00    +0.005 A 
ENDBRANCH  30  31
ENDBRANCH   3  30
TORSDOF 10
