REMARK  Name = ZINC09344498
REMARK  7 active torsions:
REMARK  status: ('A' for Active; 'I' for Inactive)
REMARK    1  A    between atoms: C_1  and  C_2
REMARK    2  A    between atoms: C_10  and  C_18
REMARK    3  A    between atoms: C_25  and  C_28
REMARK    4  A    between atoms: C_32  and  O_36
REMARK    5  A    between atoms: C_33  and  O_34
REMARK    6  A    between atoms: O_34  and  C_35
REMARK    7  A    between atoms: O_36  and  C_37
REMARK                            x       y       z     vdW  Elec       q    Type
REMARK                         _______ _______ _______ _____ _____    ______ ____
ROOT
ATOM      1  C   UNL     1      -0.132   1.280  -0.870  0.00  0.00    +0.044 C 
ATOM      2  C   UNL     1      -0.080  -0.213  -0.667  0.00  0.00    -0.050 A 
ATOM      3  C   UNL     1      -0.043  -1.057  -1.763  0.00  0.00    +0.007 A 
ATOM      4  C   UNL     1       0.006  -2.428  -1.592  0.00  0.00    +0.046 A 
ATOM      5  C   UNL     1       0.017  -2.964  -0.316  0.00  0.00    +0.131 A 
ATOM      6  C   UNL     1      -0.021  -2.109   0.793  0.00  0.00    +0.043 A 
ATOM      7  C   UNL     1      -0.065  -0.734   0.613  0.00  0.00    +0.017 A 
ATOM      8  C   UNL     1      -0.003  -2.715   2.149  0.00  0.00    +0.083 C 
ATOM      9  C   UNL     1       0.371  -4.006   2.248  0.00  0.00    +0.027 C 
ATOM     10  C   UNL     1       0.386  -4.640   3.622  0.00  0.00    +0.159 C 
ATOM     11  N   UNL     1      -0.015  -3.771   4.734  0.00  0.00    -0.208 N 
ATOM     12  C   UNL     1      -0.368  -2.463   4.467  0.00  0.00    +0.237 C 
ATOM     13  N   UNL     1      -0.352  -1.992   3.242  0.00  0.00    -0.213 NA
ATOM     14  N   UNL     1      -0.688  -1.892   5.649  0.00  0.00    -0.205 NA
ATOM     15  C   UNL     1      -0.558  -2.754   6.619  0.00  0.00    +0.203 C 
ATOM     16  N   UNL     1      -0.141  -3.948   6.114  0.00  0.00    -0.251 N 
ATOM     17  C   UNL     1       0.768  -4.783   1.027  0.00  0.00    +0.238 C 
ATOM     18  O   UNL     1       0.060  -4.306  -0.119  0.00  0.00    -0.479 OA
ATOM     19  H   UNL     1       0.034  -4.761   6.613  0.00  0.00    +0.171 HD
ENDROOT
BRANCH  10  20
ATOM     20  C   UNL     1      -0.541  -5.829   3.601  0.00  0.00    -0.021 A 
ATOM     21  C   UNL     1      -1.906  -5.642   3.716  0.00  0.00    +0.008 A 
ATOM     22  C   UNL     1      -2.757  -6.731   3.696  0.00  0.00    +0.038 A 
ATOM     23  C   UNL     1      -2.241  -8.009   3.563  0.00  0.00    +0.123 A 
ATOM     24  C   UNL     1      -0.874  -8.195   3.448  0.00  0.00    +0.038 A 
ATOM     25  C   UNL     1      -0.026  -7.104   3.462  0.00  0.00    +0.008 A 
ATOM     26  F   UNL     1      -3.072  -9.075   3.544  0.00  0.00    -0.205 F 
ENDBRANCH  10  20
BRANCH  17  27
ATOM     27  C   UNL     1       2.248  -4.625   0.795  0.00  0.00    +0.042 A 
ATOM     28  C   UNL     1       2.716  -3.612  -0.022  0.00  0.00    +0.011 A 
ATOM     29  C   UNL     1       4.073  -3.464  -0.237  0.00  0.00    +0.004 A 
ATOM     30  C   UNL     1       4.970  -4.329   0.364  0.00  0.00    +0.049 A 
ATOM     31  C   UNL     1       4.508  -5.345   1.184  0.00  0.00    +0.162 A 
ATOM     32  C   UNL     1       3.142  -5.490   1.405  0.00  0.00    +0.168 A 
BRANCH  32  33
ATOM     33  O   UNL     1       2.684  -6.483   2.214  0.00  0.00    -0.491 OA
ATOM     34  C   UNL     1       2.392  -7.739   1.597  0.00  0.00    +0.277 C 
ENDBRANCH  32  33
BRANCH  31  35
ATOM     35  O   UNL     1       5.388  -6.196   1.776  0.00  0.00    -0.491 OA
ATOM     36  C   UNL     1       6.776  -5.984   1.508  0.00  0.00    +0.277 C 
ENDBRANCH  31  35
ENDBRANCH  17  27
TORSDOF 4
