REMARK  Name = ZINC06194967
REMARK  11 active torsions:
REMARK  status: ('A' for Active; 'I' for Inactive)
REMARK    1  A    between atoms: C_1  and  C_2
REMARK    2  A    between atoms: C_6  and  C_15
REMARK    3  A    between atoms: C_13  and  C_14
REMARK    4  A    between atoms: C_15  and  C_17
REMARK    5  A    between atoms: C_15  and  N_68
REMARK    6  A    between atoms: N_21  and  C_22
REMARK    7  A    between atoms: C_22  and  C_23
REMARK    8  A    between atoms: C_23  and  O_24
REMARK    9  A    between atoms: O_24  and  C_25
REMARK   10  A    between atoms: N_28  and  C_31
REMARK   11  A    between atoms: C_34  and  N_37
REMARK                            x       y       z     vdW  Elec       q    Type
REMARK                         _______ _______ _______ _____ _____    ______ ____
ROOT
ATOM      1  C   UNL     1       1.383   3.500  -0.069  0.00  0.00    +0.039 C 
ENDROOT
BRANCH   1   7
ATOM      2  C   UNL     1       7.124   7.634  -2.428  0.00  0.00    +0.044 C 
ATOM      3  C   UNL     1       6.526   6.647  -1.458  0.00  0.00    -0.047 A 
ATOM      4  C   UNL     1       5.230   6.244  -1.616  0.00  0.00    +0.013 A 
ATOM      5  C   UNL     1       4.674   5.329  -0.717  0.00  0.00    -0.001 A 
ATOM      6  C   UNL     1       3.290   4.872  -0.859  0.00  0.00    +0.017 A 
ATOM      7  C   UNL     1       2.804   3.987   0.046  0.00  0.00    +0.011 A 
ATOM      8  C   UNL     1       3.627   3.515   1.092  0.00  0.00    +0.251 A 
ATOM      9  O   UNL     1       3.171   2.717   1.892  0.00  0.00    -0.268 OA
ATOM     10  N   UNL     1       4.900   3.925   1.228  0.00  0.00    -0.322 N 
ATOM     11  H   UNL     1       5.438   3.582   1.958  0.00  0.00    +0.169 HD
ATOM     12  C   UNL     1       5.452   4.828   0.344  0.00  0.00    +0.049 A 
ATOM     13  C   UNL     1       6.769   5.253   0.485  0.00  0.00    +0.030 A 
ATOM     14  C   UNL     1       7.296   6.156  -0.413  0.00  0.00    -0.046 A 
ATOM     15  C   UNL     1       8.723   6.615  -0.259  0.00  0.00    +0.044 C 
ENDBRANCH   1   7
BRANCH   1  21
ATOM     16  C   UNL     1       2.094   1.505  -1.244  0.00  0.00    -0.058 C 
ATOM     17  C   UNL     1       2.123  -0.024  -1.175  0.00  0.00    +0.086 C 
ATOM     18  N   UNL     1       0.747  -0.537  -1.141  0.00  0.00    -0.333 N 
ATOM     19  C   UNL     1       0.021  -0.011   0.023  0.00  0.00    +0.086 C 
ATOM     20  C   UNL     1      -0.009   1.518  -0.045  0.00  0.00    -0.058 C 
ATOM     21  N   UNL     1       1.381   2.021  -0.056  0.00  0.00    +0.391 N 
ATOM     22  H   UNL     1       1.861   1.694   0.790  0.00  0.00    -0.080 HD
BRANCH  18  23
ATOM     23  C   UNL     1       0.732  -1.933  -1.151  0.00  0.00    +0.030 A 
ATOM     24  C   UNL     1       1.927  -2.641  -1.195  0.00  0.00    +0.025 A 
ATOM     25  C   UNL     1       1.909  -4.022  -1.199  0.00  0.00    +0.034 A 
ATOM     26  C   UNL     1       0.704  -4.700  -1.171  0.00  0.00    +0.126 A 
ATOM     27  C   UNL     1      -0.487  -3.998  -1.133  0.00  0.00    +0.034 A 
ATOM     28  C   UNL     1      -0.476  -2.617  -1.123  0.00  0.00    +0.025 A 
BRANCH  26  29
ATOM     29  N   UNL     1       0.689  -6.180  -1.181  0.00  0.00    +0.056 N 
ATOM     30  O   UNL     1      -0.372  -6.778  -1.156  0.00  0.00    -0.126 OA
ATOM     31  O   UNL     1       1.737  -6.800  -1.214  0.00  0.00    -0.126 OA
ENDBRANCH  26  29
ENDBRANCH  18  23
ENDBRANCH   1  21
BRANCH   1  32
ATOM     32  C   UNL     1       0.584   4.002   1.106  0.00  0.00    +0.143 A 
ATOM     33  N   UNL     1       0.634   3.553   2.336  0.00  0.00    -0.115 NA
ATOM     34  N   UNL     1      -0.196   4.238   3.045  0.00  0.00    -0.023 NA
ATOM     35  N   UNL     1      -0.774   5.113   2.298  0.00  0.00    -0.044 NA
ATOM     36  N   UNL     1      -0.317   5.003   1.097  0.00  0.00    -0.228 N 
BRANCH  36  37
ATOM     37  C   UNL     1      -0.706   5.812  -0.061  0.00  0.00    +0.175 C 
BRANCH  37  38
ATOM     38  C   UNL     1      -1.888   5.149  -0.772  0.00  0.00    +0.183 C 
BRANCH  38  39
ATOM     39  O   UNL     1      -2.268   5.939  -1.901  0.00  0.00    -0.381 OA
ATOM     40  C   UNL     1      -3.369   5.405  -2.639  0.00  0.00    +0.194 C 
ENDBRANCH  38  39
ENDBRANCH  37  38
ENDBRANCH  36  37
ENDBRANCH   1  32
TORSDOF 8
