REMARK  Name = ZINC67026832
REMARK  10 active torsions:
REMARK  status: ('A' for Active; 'I' for Inactive)
REMARK    1  A    between atoms: C_1  and  C_2
REMARK    2  A    between atoms: C_2  and  C_3
REMARK    3  A    between atoms: C_3  and  C_4
REMARK    4  A    between atoms: C_4  and  C_5
REMARK    5  A    between atoms: C_5  and  C_6
REMARK    6  A    between atoms: C_9  and  N_12
REMARK    7  A    between atoms: C_13  and  C_15
REMARK    8  A    between atoms: C_18  and  C_20
REMARK    9  A    between atoms: C_20  and  N_21
REMARK   10  A    between atoms: C_22  and  C_24
REMARK                            x       y       z     vdW  Elec       q    Type
REMARK                         _______ _______ _______ _____ _____    ______ ____
ROOT
ATOM      1  N   UNL     1      -2.770  -8.265  -0.016  0.00  0.00    -0.281 N 
ATOM      2  C   UNL     1      -3.249  -8.951   1.041  0.00  0.00    +0.255 C 
ATOM      3  O   UNL     1      -3.780  -8.358   1.961  0.00  0.00    -0.269 OA
ATOM      4  H   UNL     1      -2.416  -8.741  -0.783  0.00  0.00    +0.155 HD
ENDROOT
BRANCH   1   8
ATOM      5  C   UNL     1      -2.812  -4.100   0.014  0.00  0.00    -0.047 A 
ATOM      6  C   UNL     1      -2.987  -4.783  -1.175  0.00  0.00    +0.005 A 
ATOM      7  C   UNL     1      -2.974  -6.164  -1.189  0.00  0.00    +0.023 A 
ATOM      8  C   UNL     1      -2.784  -6.867  -0.006  0.00  0.00    +0.034 A 
ATOM      9  C   UNL     1      -2.608  -6.177   1.187  0.00  0.00    +0.023 A 
ATOM     10  C   UNL     1      -2.617  -4.796   1.193  0.00  0.00    +0.005 A 
BRANCH   5  11
ATOM     11  C   UNL     1      -2.826  -2.593   0.025  0.00  0.00    +0.035 C 
BRANCH  11  12
ATOM     12  C   UNL     1      -1.407  -2.067  -0.197  0.00  0.00    +0.005 C 
BRANCH  12  13
ATOM     13  C   UNL     1      -1.422  -0.537  -0.186  0.00  0.00    +0.000 C 
BRANCH  13  15
ATOM     14  C   UNL     1      -0.017   1.518  -0.398  0.00  0.00    +0.004 C 
ATOM     15  C   UNL     1      -0.002  -0.012  -0.409  0.00  0.00    -0.003 C 
ENDBRANCH  13  15
ENDBRANCH  12  13
ENDBRANCH  11  12
ENDBRANCH   5  11
ENDBRANCH   1   8
BRANCH   2  16
ATOM     16  C   UNL     1      -3.130 -10.411   1.081  0.00  0.00    +0.074 A 
ATOM     17  C   UNL     1      -3.555 -11.296   2.060  0.00  0.00    +0.021 A 
ATOM     18  C   UNL     1      -3.301 -12.624   1.816  0.00  0.00    +0.013 A 
ATOM     19  C   UNL     1      -2.668 -12.974   0.668  0.00  0.00    +0.008 A 
ATOM     20  S   UNL     1      -2.406 -11.513  -0.119  0.00  0.00    -0.087 S 
BRANCH  19  21
ATOM     21  C   UNL     1      -2.293 -14.357   0.202  0.00  0.00    +0.146 C 
BRANCH  21  22
ATOM     22  N   UNL     1      -3.391 -14.922  -0.585  0.00  0.00    -0.311 N 
ATOM     23  C   UNL     1      -3.279 -16.159  -1.108  0.00  0.00    +0.210 C 
ATOM     24  O   UNL     1      -2.268 -16.804  -0.927  0.00  0.00    -0.276 OA
ATOM     25  C   UNL     1      -4.409 -16.740  -1.919  0.00  0.00    +0.109 C 
ATOM     26  H   UNL     1      -4.200 -14.406  -0.730  0.00  0.00    +0.149 HD
ENDBRANCH  21  22
ENDBRANCH  19  21
ENDBRANCH   2  16
TORSDOF 8
