REMARK  Name = ZINC14547731
REMARK  7 active torsions:
REMARK  status: ('A' for Active; 'I' for Inactive)
REMARK    1  A    between atoms: C_1  and  O_2
REMARK    2  A    between atoms: O_2  and  C_3
REMARK    3  A    between atoms: C_6  and  N_9
REMARK    4  A    between atoms: N_9  and  S_10
REMARK    5  A    between atoms: S_10  and  C_13
REMARK    6  A    between atoms: C_26  and  C_29
REMARK    7  A    between atoms: C_38  and  O_39
REMARK                            x       y       z     vdW  Elec       q    Type
REMARK                         _______ _______ _______ _____ _____    ______ ____
ROOT
ATOM      1  C   UNL     1       3.650   3.540  -0.758  0.00  0.00    +0.109 A 
ATOM      2  C   UNL     1       3.168   4.775  -1.152  0.00  0.00    +0.030 A 
ATOM      3  C   UNL     1       3.822   5.928  -0.769  0.00  0.00    +0.025 A 
ATOM      4  C   UNL     1       4.975   5.858   0.004  0.00  0.00    +0.031 A 
ATOM      5  C   UNL     1       5.453   4.605   0.403  0.00  0.00    -0.018 A 
ATOM      6  C   UNL     1       4.793   3.459   0.016  0.00  0.00    +0.034 A 
ATOM      7  C   UNL     1       6.661   4.576   1.256  0.00  0.00    +0.049 C 
ATOM      8  C   UNL     1       7.575   3.405   1.280  0.00  0.00    -0.023 C 
ATOM      9  C   UNL     1       8.808   3.835   1.522  0.00  0.00    -0.030 C 
ATOM     10  C   UNL     1       8.832   5.374   1.628  0.00  0.00    +0.033 C 
ATOM     11  C   UNL     1       7.590   5.744   0.807  0.00  0.00    +0.029 C 
ATOM     12  C   UNL     1       6.856   7.016   1.192  0.00  0.00    +0.109 C 
ATOM     13  N   UNL     1       5.636   7.041   0.357  0.00  0.00    -0.336 N 
ATOM     14  H   UNL     1       5.287   7.891   0.048  0.00  0.00    +0.147 HD
ENDROOT
BRANCH  12  15
ATOM     15  C   UNL     1       6.487   6.981   2.653  0.00  0.00    +0.022 A 
ATOM     16  C   UNL     1       5.139   6.907   3.039  0.00  0.00    -0.009 A 
ATOM     17  C   UNL     1       4.109   6.851   2.083  0.00  0.00    +0.009 A 
ATOM     18  C   UNL     1       2.814   6.775   2.493  0.00  0.00    +0.001 A 
ATOM     19  C   UNL     1       2.490   6.745   3.849  0.00  0.00    +0.001 A 
ATOM     20  C   UNL     1       3.461   6.792   4.802  0.00  0.00    +0.008 A 
ATOM     21  C   UNL     1       4.810   6.871   4.417  0.00  0.00    -0.017 A 
ATOM     22  C   UNL     1       5.839   6.921   5.374  0.00  0.00    +0.012 A 
ATOM     23  C   UNL     1       7.135   6.997   4.968  0.00  0.00    +0.046 A 
ATOM     24  C   UNL     1       7.461   7.028   3.609  0.00  0.00    +0.122 A 
BRANCH  24  25
ATOM     25  O   UNL     1       8.765   7.104   3.234  0.00  0.00    -0.506 OA
ATOM     26  H   UNL     1       9.117   8.005   3.216  0.00  0.00    +0.292 HD
ENDBRANCH  24  25
ENDBRANCH  12  15
BRANCH   1  27
ATOM     27  S   UNL     1       2.812   2.070  -1.249  0.00  0.00    +0.072 S 
ATOM     28  O   UNL     1       3.769   1.020  -1.198  0.00  0.00    -0.150 OA
ATOM     29  O   UNL     1       2.093   2.388  -2.432  0.00  0.00    -0.150 OA
BRANCH  27  30
ATOM     30  N   UNL     1       1.683   1.738  -0.084  0.00  0.00    -0.216 N 
ATOM     31  H   UNL     1       1.754   0.926   0.443  0.00  0.00    +0.174 HD
BRANCH  30  35
ATOM     32  C   UNL     1      -1.462   4.389   0.588  0.00  0.00    +0.120 A 
ATOM     33  C   UNL     1      -1.467   3.579  -0.538  0.00  0.00    +0.047 A 
ATOM     34  C   UNL     1      -0.428   2.696  -0.758  0.00  0.00    +0.028 A 
ATOM     35  C   UNL     1       0.627   2.628   0.142  0.00  0.00    +0.048 A 
ATOM     36  C   UNL     1       0.634   3.443   1.266  0.00  0.00    +0.028 A 
ATOM     37  C   UNL     1      -0.408   4.322   1.487  0.00  0.00    +0.047 A 
BRANCH  32  39
ATOM     38  C   UNL     1      -3.539   5.272  -0.161  0.00  0.00    +0.277 C 
ATOM     39  O   UNL     1      -2.488   5.255   0.806  0.00  0.00    -0.495 OA
ENDBRANCH  32  39
ENDBRANCH  30  35
ENDBRANCH  27  30
ENDBRANCH   1  27
TORSDOF 6
