REMARK  Name = ZINC40148100
REMARK  6 active torsions:
REMARK  status: ('A' for Active; 'I' for Inactive)
REMARK    1  A    between atoms: C_4  and  C_7
REMARK    2  A    between atoms: C_17  and  C_19
REMARK    3  A    between atoms: C_22  and  C_25
REMARK    4  A    between atoms: C_31  and  C_33
REMARK    5  A    between atoms: C_33  and  C_34
REMARK    6  A    between atoms: C_34  and  C_35
REMARK                            x       y       z     vdW  Elec       q    Type
REMARK                         _______ _______ _______ _____ _____    ______ ____
ROOT
ATOM      1  C   UNL     1       3.463  -0.384  -0.315  0.00  0.00    -0.014 C 
ATOM      2  C   UNL     1       4.664   0.321  -0.437  0.00  0.00    +0.002 A 
ATOM      3  C   UNL     1       4.662   1.713  -0.661  0.00  0.00    +0.030 A 
ATOM      4  C   UNL     1       5.846   2.376  -0.775  0.00  0.00    +0.042 A 
ATOM      5  C   UNL     1       7.064   1.705  -0.675  0.00  0.00    +0.022 A 
ATOM      6  C   UNL     1       7.128   0.362  -0.459  0.00  0.00    +0.025 A 
ATOM      7  C   UNL     1       5.945  -0.386  -0.331  0.00  0.00    +0.041 A 
ATOM      8  N   UNL     1       6.011  -1.705  -0.118  0.00  0.00    -0.284 N 
ATOM      9  C   UNL     1       4.949  -2.476   0.013  0.00  0.00    +0.230 C 
ATOM     10  O   UNL     1       5.085  -3.670   0.204  0.00  0.00    -0.274 OA
ATOM     11  C   UNL     1       3.563  -1.877  -0.068  0.00  0.00    +0.152 C 
ATOM     12 CL   UNL     1       5.838   4.090  -1.052  0.00  0.00    -0.084 Cl
ATOM     13  H   UNL     1       6.887  -2.117  -0.057  0.00  0.00    +0.155 HD
ENDROOT
BRANCH  11  14
ATOM     14  C   UNL     1       2.825  -2.580  -1.178  0.00  0.00    +0.055 C 
ATOM     15  N   UNL     1       2.313  -2.010  -2.190  0.00  0.00    -0.185 NA
ATOM     16  N   UNL     1       1.681  -2.875  -3.082  0.00  0.00    -0.189 N 
ATOM     17  C   UNL     1       1.797  -4.250  -2.569  0.00  0.00    +0.120 C 
ATOM     18  C   UNL     1       2.589  -4.072  -1.257  0.00  0.00    +0.079 C 
ATOM     19  C   UNL     1       1.066  -2.512  -4.225  0.00  0.00    +0.236 C 
ATOM     20  O   UNL     1       0.463  -3.338  -4.877  0.00  0.00    -0.274 OA
BRANCH  17  21
ATOM     21  C   UNL     1       0.414  -4.843  -2.298  0.00  0.00    +0.077 C 
ATOM     22  C   UNL     1      -0.405  -3.956  -1.323  0.00  0.00    +0.044 C 
ATOM     23  C   UNL     1      -1.195  -4.800  -0.375  0.00  0.00    -0.019 C 
ATOM     24  C   UNL     1      -0.871  -6.066  -0.198  0.00  0.00    +0.036 C 
ATOM     25  S   UNL     1       0.522  -6.370  -1.271  0.00  0.00    -0.128 S 
ENDBRANCH  17  21
BRANCH  19  26
ATOM     26  C   UNL     1       1.128  -1.081  -4.693  0.00  0.00    +0.109 C 
BRANCH  26  27
ATOM     27  C   UNL     1       0.354  -0.940  -6.005  0.00  0.00    +0.134 C 
BRANCH  27  28
ATOM     28  C   UNL     1       0.415   0.492  -6.473  0.00  0.00    +0.356 C 
ATOM     29  O   UNL     1       1.022   1.322  -5.817  0.00  0.00    -0.246 OA
ATOM     30  O   UNL     1      -0.141   0.820  -7.507  0.00  0.00    -0.246 OA
ENDBRANCH  27  28
ENDBRANCH  26  27
ENDBRANCH  19  26
ENDBRANCH  11  14
BRANCH   1  34
ATOM     31  C   UNL     1      -0.245   1.544  -0.602  0.00  0.00    +0.000 A 
ATOM     32  C   UNL     1       0.103   0.893   0.571  0.00  0.00    +0.001 A 
ATOM     33  C   UNL     1       1.319   0.256   0.675  0.00  0.00    +0.008 A 
ATOM     34  C   UNL     1       2.208   0.268  -0.412  0.00  0.00    -0.020 A 
ATOM     35  C   UNL     1       1.845   0.930  -1.597  0.00  0.00    +0.008 A 
ATOM     36  C   UNL     1       0.624   1.561  -1.680  0.00  0.00    +0.001 A 
ENDBRANCH   1  34
TORSDOF 6
