REMARK  Name = ZINC01419008
REMARK  12 active torsions:
REMARK  status: ('A' for Active; 'I' for Inactive)
REMARK    1  A    between atoms: C_1  and  C_2
REMARK    2  A    between atoms: C_7  and  C_8
REMARK    3  A    between atoms: C_8  and  N_9
REMARK    4  A    between atoms: N_9  and  C_10
REMARK    5  A    between atoms: C_10  and  C_12
REMARK    6  A    between atoms: C_10  and  C_19
REMARK    7  A    between atoms: N_21  and  C_22
REMARK    8  A    between atoms: C_25  and  N_28
REMARK    9  A    between atoms: N_28  and  C_29
REMARK   10  A    between atoms: N_28  and  C_30
REMARK   11  A    between atoms: C_31  and  C_33
REMARK   12  A    between atoms: C_33  and  N_34
REMARK                            x       y       z     vdW  Elec       q    Type
REMARK                         _______ _______ _______ _____ _____    ______ ____
ROOT
ATOM      1  N   UNL     1      -3.496   7.260  -0.777  0.00  0.00    -0.284 N 
ATOM      2  C   UNL     1      -2.856   6.117  -0.458  0.00  0.00    +0.238 C 
ATOM      3  O   UNL     1      -2.663   5.272  -1.307  0.00  0.00    -0.274 OA
ENDROOT
BRANCH   1   4
ATOM      4  C   UNL     1      -3.738   8.275   0.251  0.00  0.00    +0.144 C 
BRANCH   4  11
ATOM      5  C   UNL     1      -5.482   6.432   1.632  0.00  0.00    +0.044 C 
ATOM      6  C   UNL     1      -6.050   7.676   0.999  0.00  0.00    -0.046 A 
ATOM      7  C   UNL     1      -7.405   7.938   1.083  0.00  0.00    +0.003 A 
ATOM      8  C   UNL     1      -7.927   9.077   0.498  0.00  0.00    +0.000 A 
ATOM      9  C   UNL     1      -7.093   9.956  -0.167  0.00  0.00    +0.000 A 
ATOM     10  C   UNL     1      -5.737   9.697  -0.248  0.00  0.00    +0.005 A 
ATOM     11  C   UNL     1      -5.216   8.558   0.338  0.00  0.00    -0.027 A 
ENDBRANCH   4  11
ENDBRANCH   1   4
BRANCH   1  12
ATOM     12  C   UNL     1      -3.949   7.486  -2.152  0.00  0.00    +0.166 C 
BRANCH  12  13
ATOM     13  C   UNL     1      -3.700   8.946  -2.537  0.00  0.00    +0.023 C 
ATOM     14  C   UNL     1      -4.246   9.207  -3.947  0.00  0.00    +0.010 C 
ATOM     15  C   UNL     1      -4.142  10.706  -4.236  0.00  0.00    +0.027 C 
ATOM     16  C   UNL     1      -2.766  11.205  -3.905  0.00  0.00    -0.031 C 
ATOM     17  C   UNL     1      -1.922  10.565  -3.161  0.00  0.00    -0.031 C 
ATOM     18  C   UNL     1      -2.196   9.229  -2.535  0.00  0.00    +0.032 C 
ENDBRANCH  12  13
BRANCH  12  19
ATOM     19  C   UNL     1      -5.422   7.184  -2.252  0.00  0.00    +0.238 C 
ATOM     20  O   UNL     1      -6.088   7.077  -1.244  0.00  0.00    -0.273 OA
ATOM     21  N   UNL     1      -5.998   7.032  -3.460  0.00  0.00    -0.284 N 
ATOM     22  H   UNL     1      -5.456   7.066  -4.264  0.00  0.00    +0.155 HD
BRANCH  21  23
ATOM     23  C   UNL     1      -7.381   6.827  -3.556  0.00  0.00    +0.034 A 
ATOM     24  C   UNL     1      -8.046   6.107  -2.572  0.00  0.00    +0.025 A 
ATOM     25  C   UNL     1      -9.409   5.908  -2.663  0.00  0.00    +0.025 A 
ATOM     26  C   UNL     1     -10.114   6.419  -3.746  0.00  0.00    +0.029 A 
ATOM     27  C   UNL     1      -9.448   7.134  -4.733  0.00  0.00    +0.025 A 
ATOM     28  C   UNL     1      -8.086   7.338  -4.638  0.00  0.00    +0.025 A 
BRANCH  26  29
ATOM     29  N   UNL     1     -11.494   6.212  -3.842  0.00  0.00    -0.336 N 
ATOM     30  C   UNL     1     -12.238   6.751  -4.984  0.00  0.00    +0.129 C 
ATOM     31  C   UNL     1     -12.196   5.458  -2.801  0.00  0.00    +0.129 C 
ENDBRANCH  26  29
ENDBRANCH  21  23
ENDBRANCH  12  19
ENDBRANCH   1  12
BRANCH   2  32
ATOM     32  C   UNL     1      -2.379   5.890   0.953  0.00  0.00    +0.241 C 
BRANCH  32  33
ATOM     33  N   UNL     1      -1.790   4.553   1.060  0.00  0.00    -0.235 N 
ATOM     34  C   UNL     1      -0.473   4.215   0.854  0.00  0.00    +0.090 A 
ATOM     35  C   UNL     1       0.665   4.933   0.505  0.00  0.00    +0.029 A 
ATOM     36  C   UNL     1       1.863   4.287   0.374  0.00  0.00    +0.002 A 
ATOM     37  C   UNL     1       1.953   2.917   0.586  0.00  0.00    +0.002 A 
ATOM     38  C   UNL     1       0.851   2.190   0.929  0.00  0.00    +0.032 A 
ATOM     39  C   UNL     1      -0.389   2.828   1.065  0.00  0.00    +0.113 A 
ATOM     40  N   UNL     1      -1.623   2.386   1.380  0.00  0.00    -0.129 NA
ATOM     41  N   UNL     1      -2.461   3.363   1.380  0.00  0.00    -0.064 NA
ENDBRANCH  32  33
ENDBRANCH   2  32
TORSDOF 9
