REMARK  Name = ZINC65406375
REMARK  3 active torsions:
REMARK  status: ('A' for Active; 'I' for Inactive)
REMARK    1  A    between atoms: C_4  and  N_22
REMARK    2  A    between atoms: C_5  and  C_7
REMARK    3  A    between atoms: C_7  and  N_8
REMARK                            x       y       z     vdW  Elec       q    Type
REMARK                         _______ _______ _______ _____ _____    ______ ____
ROOT
ATOM      1  N   UNL     1       1.486  -2.680   1.333  0.00  0.00    -0.324 N 
ATOM      2  C   UNL     1       1.550  -4.040   1.573  0.00  0.00    +0.131 A 
ATOM      3  C   UNL     1       1.907  -4.528   2.861  0.00  0.00    +0.051 A 
ATOM      4  C   UNL     1       2.244  -3.775   4.068  0.00  0.00    -0.022 A 
ATOM      5  C   UNL     1       2.549  -4.488   5.173  0.00  0.00    +0.009 A 
ATOM      6  S   UNL     1       2.405  -6.184   4.681  0.00  0.00    -0.072 S 
ATOM      7  C   UNL     1       1.938  -5.932   2.988  0.00  0.00    +0.114 A 
ATOM      8  N   UNL     1       1.655  -6.723   1.971  0.00  0.00    -0.228 NA
ATOM      9  C   UNL     1       1.331  -6.211   0.800  0.00  0.00    +0.224 A 
ATOM     10  N   UNL     1       1.276  -4.905   0.610  0.00  0.00    -0.220 NA
ATOM     11  C   UNL     1       2.926  -3.939   6.514  0.00  0.00    +0.124 C 
ATOM     12  N   UNL     1       3.260  -2.512   6.352  0.00  0.00    -0.311 NA
ATOM     13  C   UNL     1       2.212  -1.819   5.588  0.00  0.00    +0.086 C 
ATOM     14  C   UNL     1       2.261  -2.249   4.120  0.00  0.00    +0.052 C 
ATOM     15  H   UNL     1       1.762  -2.052   2.019  0.00  0.00    +0.148 HD
ATOM     16  H   UNL     1       3.406  -2.071   7.247  0.00  0.00    +0.122 HD
ENDROOT
BRANCH   1  17
ATOM     17  C   UNL     1       1.001  -2.186   0.042  0.00  0.00    +0.140 C 
BRANCH  17  22
ATOM     18  C   UNL     1      -0.104   1.418   0.256  0.00  0.00    +0.000 A 
ATOM     19  C   UNL     1       1.083   2.089   0.027  0.00  0.00    +0.002 A 
ATOM     20  C   UNL     1       2.247   1.380  -0.199  0.00  0.00    +0.028 A 
ATOM     21  C   UNL     1       2.224  -0.008  -0.195  0.00  0.00    +0.070 A 
ATOM     22  C   UNL     1       1.031  -0.679   0.037  0.00  0.00    -0.005 A 
ATOM     23  C   UNL     1      -0.130   0.035   0.261  0.00  0.00    +0.007 A 
BRANCH  21  24
ATOM     24  N   UNL     1       3.403  -0.731  -0.424  0.00  0.00    -0.240 N 
ATOM     25  C   UNL     1       4.627  -0.204  -0.656  0.00  0.00    +0.114 A 
ATOM     26  C   UNL     1       5.491  -1.231  -0.825  0.00  0.00    +0.041 A 
ATOM     27  C   UNL     1       4.774  -2.425  -0.693  0.00  0.00    +0.135 A 
ATOM     28  N   UNL     1       3.523  -2.126  -0.447  0.00  0.00    -0.175 NA
ENDBRANCH  21  24
ENDBRANCH  17  22
ENDBRANCH   1  17
TORSDOF 3
