REMARK  Name = ZINC23348020
REMARK  11 active torsions:
REMARK  status: ('A' for Active; 'I' for Inactive)
REMARK    1  A    between atoms: C_1  and  C_2
REMARK    2  A    between atoms: C_2  and  C_3
REMARK    3  A    between atoms: C_7  and  C_28
REMARK    4  A    between atoms: C_8  and  N_9
REMARK    5  A    between atoms: C_10  and  C_12
REMARK    6  A    between atoms: C_12  and  S_13
REMARK    7  A    between atoms: S_13  and  C_14
REMARK    8  A    between atoms: C_17  and  C_23
REMARK    9  A    between atoms: N_18  and  C_19
REMARK   10  A    between atoms: C_19  and  C_20
REMARK   11  A    between atoms: C_28  and  C_29
REMARK                            x       y       z     vdW  Elec       q    Type
REMARK                         _______ _______ _______ _____ _____    ______ ____
ROOT
ATOM      1  S   UNL     1       2.877   2.980  -6.197  0.00  0.00    -0.077 S 
ENDROOT
BRANCH   1   2
ATOM      2  C   UNL     1       2.027   2.612  -7.696  0.00  0.00    +0.193 A 
ATOM      3  N   UNL     1       0.918   1.916  -7.812  0.00  0.00    -0.122 NA
ATOM      4  N   UNL     1       0.569   1.842  -9.047  0.00  0.00    -0.125 NA
ATOM      5  C   UNL     1       1.440   2.479  -9.798  0.00  0.00    +0.201 A 
ATOM      6  N   UNL     1       2.401   2.992  -8.955  0.00  0.00    -0.291 N 
BRANCH   5   7
ATOM      7  C   UNL     1       1.397   2.618 -11.262  0.00  0.00    +0.172 A 
ATOM      8  C   UNL     1       0.629   1.882 -12.114  0.00  0.00    +0.053 A 
ATOM      9  C   UNL     1       0.901   2.350 -13.413  0.00  0.00    +0.042 A 
ATOM     10  C   UNL     1       1.818   3.331 -13.296  0.00  0.00    +0.196 A 
ATOM     11  O   UNL     1       2.116   3.490 -11.996  0.00  0.00    -0.460 OA
ENDBRANCH   5   7
BRANCH   6  12
ATOM     12  C   UNL     1       3.578   3.780  -9.328  0.00  0.00    +0.221 C 
BRANCH  12  13
ATOM     13  C   UNL     1       4.739   2.855  -9.592  0.00  0.00    +0.230 C 
ATOM     14  O   UNL     1       4.596   1.656  -9.480  0.00  0.00    -0.274 OA
ATOM     15  N   UNL     1       5.934   3.360  -9.954  0.00  0.00    -0.328 N 
ATOM     16  H   UNL     1       6.781   2.685 -10.147  0.00  0.00    +0.145 HD
ATOM     17  H   UNL     1       6.064   4.448 -10.056  0.00  0.00    +0.145 HD
ENDBRANCH  12  13
ENDBRANCH   6  12
ENDBRANCH   1   2
BRANCH   1  18
ATOM     18  C   UNL     1       1.789   2.156  -5.008  0.00  0.00    +0.173 C 
BRANCH  18  20
ATOM     19  N   UNL     1       1.684   1.812  -2.561  0.00  0.00    -0.284 N 
ATOM     20  C   UNL     1       2.333   2.343  -3.616  0.00  0.00    +0.228 C 
ATOM     21  O   UNL     1       3.357   2.971  -3.444  0.00  0.00    -0.275 OA
ATOM     22  H   UNL     1       0.802   1.175  -2.723  0.00  0.00    +0.155 HD
BRANCH  19  28
ATOM     23  C   UNL     1       1.721   3.223  -0.601  0.00  0.00    -0.026 A 
ATOM     24  C   UNL     1       2.169   3.479   0.680  0.00  0.00    +0.005 A 
ATOM     25  C   UNL     1       3.016   2.586   1.310  0.00  0.00    +0.001 A 
ATOM     26  C   UNL     1       3.425   1.438   0.655  0.00  0.00    +0.005 A 
ATOM     27  C   UNL     1       2.985   1.179  -0.628  0.00  0.00    -0.026 A 
ATOM     28  C   UNL     1       2.131   2.072  -1.261  0.00  0.00    +0.040 A 
BRANCH  23  30
ATOM     29  C   UNL     1      -0.655   3.742  -1.087  0.00  0.00    +0.009 C 
ATOM     30  C   UNL     1       0.794   4.194  -1.284  0.00  0.00    +0.033 C 
ENDBRANCH  23  30
BRANCH  27  31
ATOM     31  C   UNL     1       3.433  -0.071  -1.340  0.00  0.00    +0.033 C 
ATOM     32  C   UNL     1       4.636   0.251  -2.229  0.00  0.00    +0.009 C 
ENDBRANCH  27  31
ENDBRANCH  19  28
ENDBRANCH  18  20
ENDBRANCH   1  18
TORSDOF 9
