REMARK  Name = ZINC08587217
REMARK  8 active torsions:
REMARK  status: ('A' for Active; 'I' for Inactive)
REMARK    1  A    between atoms: C_1  and  C_2
REMARK    2  A    between atoms: C_5  and  N_9
REMARK    3  A    between atoms: C_12  and  C_14
REMARK    4  A    between atoms: C_15  and  C_22
REMARK    5  A    between atoms: C_26  and  O_30
REMARK    6  A    between atoms: C_27  and  O_28
REMARK    7  A    between atoms: O_28  and  C_29
REMARK    8  A    between atoms: O_30  and  C_31
REMARK                            x       y       z     vdW  Elec       q    Type
REMARK                         _______ _______ _______ _____ _____    ______ ____
ROOT
ATOM      1  N   UNL     1       0.536  -4.389  -0.557  0.00  0.00    -0.218 N 
ATOM      2  C   UNL     1       0.823  -5.050   0.618  0.00  0.00    +0.133 A 
ATOM      3  C   UNL     1       0.448  -6.337   0.449  0.00  0.00    +0.033 A 
ATOM      4  C   UNL     1      -0.077  -6.465  -0.855  0.00  0.00    +0.067 A 
ATOM      5  N   UNL     1      -0.028  -5.305  -1.445  0.00  0.00    -0.170 NA
ATOM      6  C   UNL     1      -0.612  -7.736  -1.463  0.00  0.00    +0.068 C 
ATOM      7  C   UNL     1       0.524  -7.496   1.391  0.00  0.00    +0.115 C 
ATOM      8  S   UNL     1       0.276  -7.034   3.108  0.00  0.00    -0.138 S 
ATOM      9  C   UNL     1       1.702  -6.038   3.565  0.00  0.00    +0.166 C 
ATOM     10  C   UNL     1       1.726  -4.722   2.893  0.00  0.00    +0.228 C 
ATOM     11  O   UNL     1       2.120  -3.805   3.581  0.00  0.00    -0.275 OA
ATOM     12  N   UNL     1       1.392  -4.392   1.681  0.00  0.00    -0.269 N 
ATOM     13  H   UNL     1       1.592  -3.464   1.480  0.00  0.00    +0.156 HD
ENDROOT
BRANCH   1  18
ATOM     14  C   UNL     1       1.463   1.113  -1.595  0.00  0.00    +0.045 C 
ATOM     15  C   UNL     1       1.217  -0.347  -1.319  0.00  0.00    -0.032 A 
ATOM     16  C   UNL     1       0.006  -0.920  -1.661  0.00  0.00    +0.007 A 
ATOM     17  C   UNL     1      -0.223  -2.259  -1.409  0.00  0.00    +0.028 A 
ATOM     18  C   UNL     1       0.766  -3.031  -0.814  0.00  0.00    +0.069 A 
ATOM     19  C   UNL     1       1.982  -2.455  -0.472  0.00  0.00    +0.048 A 
ATOM     20  C   UNL     1       2.207  -1.115  -0.730  0.00  0.00    +0.046 A 
ATOM     21 CL   UNL     1       3.729  -0.394  -0.309  0.00  0.00    -0.083 Cl
ENDBRANCH   1  18
BRANCH   7  22
ATOM     22  C   UNL     1      -0.531  -8.502   1.007  0.00  0.00    +0.015 A 
ATOM     23  C   UNL     1      -1.870  -8.188   1.148  0.00  0.00    +0.009 A 
ATOM     24  C   UNL     1      -2.840  -9.108   0.796  0.00  0.00    +0.004 A 
ATOM     25  C   UNL     1      -2.475 -10.347   0.302  0.00  0.00    +0.049 A 
ATOM     26  C   UNL     1      -1.135 -10.668   0.159  0.00  0.00    +0.162 A 
ATOM     27  C   UNL     1      -0.159  -9.739   0.507  0.00  0.00    +0.166 A 
BRANCH  27  28
ATOM     28  O   UNL     1       1.158 -10.048   0.363  0.00  0.00    -0.491 OA
ATOM     29  C   UNL     1       1.805 -10.667   1.476  0.00  0.00    +0.277 C 
ENDBRANCH  27  28
BRANCH  26  30
ATOM     30  O   UNL     1      -0.775 -11.886  -0.327  0.00  0.00    -0.491 OA
ATOM     31  C   UNL     1      -1.830 -12.786  -0.669  0.00  0.00    +0.277 C 
ENDBRANCH  26  30
ENDBRANCH   7  22
TORSDOF 4
