REMARK  Name = ZINC03188485
REMARK  7 active torsions:
REMARK  status: ('A' for Active; 'I' for Inactive)
REMARK    1  A    between atoms: C_4  and  C_7
REMARK    2  A    between atoms: C_7  and  N_52
REMARK    3  A    between atoms: C_8  and  C_10
REMARK    4  A    between atoms: C_8  and  P_32
REMARK    5  A    between atoms: C_8  and  N_52
REMARK    6  A    between atoms: N_12  and  C_26
REMARK    7  A    between atoms: C_14  and  C_15
REMARK                            x       y       z     vdW  Elec       q    Type
REMARK                         _______ _______ _______ _____ _____    ______ ____
ROOT
ATOM      1  C   UNL     1      -0.226  -0.042  -2.626  0.00  0.00    -0.004 A 
ATOM      2  C   UNL     1      -1.113  -0.772  -3.336  0.00  0.00    +0.117 A 
ATOM      3  N   UNL     1      -1.500  -0.033  -4.408  0.00  0.00    -0.239 N 
ATOM      4  N   UNL     1      -0.826   1.194  -4.355  0.00  0.00    -0.166 NA
ATOM      5  C   UNL     1      -0.062   1.196  -3.281  0.00  0.00    +0.102 A 
ENDROOT
BRANCH   5   6
ATOM      6  C   UNL     1       0.817   2.304  -2.841  0.00  0.00    +0.087 A 
ATOM      7  C   UNL     1       2.113   2.059  -2.475  0.00  0.00    +0.028 A 
ATOM      8  C   UNL     1       2.940   3.191  -2.053  0.00  0.00    +0.018 A 
ATOM      9  C   UNL     1       4.274   2.995  -1.673  0.00  0.00    +0.011 A 
ATOM     10  C   UNL     1       5.031   4.061  -1.277  0.00  0.00    +0.001 A 
ATOM     11  C   UNL     1       4.487   5.338  -1.249  0.00  0.00    +0.004 A 
ATOM     12  C   UNL     1       3.176   5.552  -1.619  0.00  0.00    +0.047 A 
ATOM     13  C   UNL     1       2.386   4.483  -2.025  0.00  0.00    +0.139 A 
ATOM     14  O   UNL     1       1.102   4.687  -2.388  0.00  0.00    -0.422 OA
ATOM     15  C   UNL     1       0.311   3.679  -2.785  0.00  0.00    +0.347 A 
ATOM     16  O   UNL     1      -0.841   3.908  -3.103  0.00  0.00    -0.244 OA
ENDBRANCH   5   6
BRANCH   3  17
ATOM     17  C   UNL     1      -2.413  -0.429  -5.394  0.00  0.00    +0.065 A 
ATOM     18  C   UNL     1      -3.008  -1.681  -5.329  0.00  0.00    +0.028 A 
ATOM     19  C   UNL     1      -3.912  -2.066  -6.300  0.00  0.00    +0.002 A 
ATOM     20  C   UNL     1      -4.216  -1.210  -7.342  0.00  0.00    +0.000 A 
ATOM     21  C   UNL     1      -3.620   0.036  -7.413  0.00  0.00    +0.002 A 
ATOM     22  C   UNL     1      -2.720   0.429  -6.442  0.00  0.00    +0.028 A 
ENDBRANCH   3  17
BRANCH   1  23
ATOM     23  C   UNL     1       0.463  -0.471  -1.356  0.00  0.00    +0.084 C 
BRANCH  23  24
ATOM     24  P   UNL     1      -0.318   0.356   0.068  0.00  0.00    +0.378 P 
ATOM     25  O   UNL     1      -1.776   0.100   0.049  0.00  0.00    -0.255 OA
ATOM     26  O   UNL     1      -0.052   1.942  -0.020  0.00  0.00    -0.140 OA
ATOM     27  O   UNL     1       0.311  -0.218   1.434  0.00  0.00    -0.140 OA
ENDBRANCH  23  24
BRANCH  23  28
ATOM     28  N   UNL     1       0.334  -1.933  -1.204  0.00  0.00    +0.394 N 
ATOM     29  H   UNL     1      -0.368  -2.138  -0.483  0.00  0.00    -0.084 HD
ATOM     30  H   UNL     1       0.036  -2.341  -2.098  0.00  0.00    -0.084 HD
BRANCH  28  31
ATOM     31  C   UNL     1       1.627  -2.522  -0.806  0.00  0.00    -0.045 C 
BRANCH  31  35
ATOM     32  C   UNL     1       1.170  -6.748  -0.388  0.00  0.00    +0.000 A 
ATOM     33  C   UNL     1       1.532  -6.210  -1.608  0.00  0.00    +0.000 A 
ATOM     34  C   UNL     1       1.680  -4.842  -1.744  0.00  0.00    +0.002 A 
ATOM     35  C   UNL     1       1.465  -4.013  -0.659  0.00  0.00    -0.064 A 
ATOM     36  C   UNL     1       1.108  -4.552   0.563  0.00  0.00    +0.002 A 
ATOM     37  C   UNL     1       0.955  -5.919   0.697  0.00  0.00    +0.000 A 
ENDBRANCH  31  35
ENDBRANCH  28  31
ENDBRANCH  23  28
ENDBRANCH   1  23
TORSDOF 7
