REMARK  Name = ZINC45235316
REMARK  11 active torsions:
REMARK  status: ('A' for Active; 'I' for Inactive)
REMARK    1  A    between atoms: C_1  and  O_2
REMARK    2  A    between atoms: O_2  and  C_3
REMARK    3  A    between atoms: C_3  and  C_4
REMARK    4  A    between atoms: C_10  and  C_14
REMARK    5  A    between atoms: N_16  and  N_17
REMARK    6  A    between atoms: C_18  and  C_19
REMARK    7  A    between atoms: C_22  and  O_36
REMARK    8  A    between atoms: C_23  and  C_25
REMARK    9  A    between atoms: C_25  and  S_26
REMARK   10  A    between atoms: S_26  and  C_27
REMARK   11  A    between atoms: O_36  and  C_37
REMARK                            x       y       z     vdW  Elec       q    Type
REMARK                         _______ _______ _______ _____ _____    ______ ____
ROOT
ATOM      1  N   UNL     1      -1.954 -10.319  -0.205  0.00  0.00    -0.187 NA
ATOM      2  C   UNL     1      -1.220 -11.389  -0.150  0.00  0.00    +0.138 C 
ENDROOT
BRANCH   2   3
ATOM      3  C   UNL     1       0.249 -11.275  -0.157  0.00  0.00    -0.005 A 
ATOM      4  C   UNL     1       0.858 -10.037   0.063  0.00  0.00    +0.013 A 
ATOM      5  C   UNL     1       2.232  -9.935   0.057  0.00  0.00    +0.046 A 
ATOM      6  C   UNL     1       3.012 -11.062  -0.168  0.00  0.00    +0.124 A 
ATOM      7  C   UNL     1       2.412 -12.295  -0.388  0.00  0.00    +0.005 A 
ATOM      8  C   UNL     1       1.038 -12.407  -0.377  0.00  0.00    +0.017 A 
BRANCH   6   9
ATOM      9  O   UNL     1       4.367 -10.958  -0.175  0.00  0.00    -0.495 OA
ATOM     10  C   UNL     1       4.918  -9.660   0.057  0.00  0.00    +0.277 C 
ENDBRANCH   6   9
BRANCH   7  11
ATOM     11  C   UNL     1       3.264 -13.514  -0.631  0.00  0.00    +0.117 C 
BRANCH  11  12
ATOM     12  S   UNL     1       3.638 -14.318   0.952  0.00  0.00    -0.062 S 
BRANCH  12  13
ATOM     13  C   UNL     1       4.626 -15.705   0.503  0.00  0.00    +0.258 A 
ATOM     14  N   UNL     1       4.975 -16.014  -0.721  0.00  0.00    -0.203 NA
ATOM     15  C   UNL     1       5.734 -17.143  -0.687  0.00  0.00    +0.110 A 
ATOM     16  C   UNL     1       6.365 -17.910  -1.668  0.00  0.00    +0.031 A 
ATOM     17  C   UNL     1       7.081 -19.030  -1.304  0.00  0.00    +0.002 A 
ATOM     18  C   UNL     1       7.178 -19.398   0.029  0.00  0.00    +0.004 A 
ATOM     19  C   UNL     1       6.559 -18.648   1.009  0.00  0.00    +0.048 A 
ATOM     20  C   UNL     1       5.835 -17.519   0.661  0.00  0.00    +0.156 A 
ATOM     21  O   UNL     1       5.139 -16.599   1.367  0.00  0.00    -0.431 OA
ENDBRANCH  12  13
ENDBRANCH  11  12
ENDBRANCH   7  11
ENDBRANCH   2   3
BRANCH   1  24
ATOM     22  C   UNL     1      -2.138  -7.989  -0.657  0.00  0.00    +0.263 C 
ATOM     23  O   UNL     1      -3.251  -7.995  -0.166  0.00  0.00    -0.268 OA
ATOM     24  N   UNL     1      -1.419  -9.128  -0.713  0.00  0.00    -0.203 N 
ATOM     25  H   UNL     1      -0.532  -9.123  -1.105  0.00  0.00    +0.178 HD
BRANCH  22  32
ATOM     26  C   UNL     1      -1.337  -2.356  -2.302  0.00  0.00    +0.134 A 
ATOM     27  N   UNL     1      -0.240  -3.099  -2.614  0.00  0.00    -0.340 N 
ATOM     28  H   UNL     1       0.568  -2.778  -3.044  0.00  0.00    +0.167 HD
ATOM     29  C   UNL     1      -0.489  -4.392  -2.207  0.00  0.00    +0.066 A 
ATOM     30  C   UNL     1       0.239  -5.576  -2.257  0.00  0.00    +0.028 A 
ATOM     31  C   UNL     1      -0.292  -6.729  -1.758  0.00  0.00    +0.015 A 
ATOM     32  C   UNL     1      -1.575  -6.734  -1.193  0.00  0.00    +0.040 A 
ATOM     33  C   UNL     1      -2.318  -5.559  -1.135  0.00  0.00    +0.043 A 
ATOM     34  C   UNL     1      -1.778  -4.379  -1.643  0.00  0.00    +0.090 A 
ATOM     35  N   UNL     1      -2.235  -3.102  -1.730  0.00  0.00    -0.230 NA
BRANCH  26  36
ATOM     36  C   UNL     1      -1.486  -0.881  -2.575  0.00  0.00    +0.233 C 
BRANCH  36  38
ATOM     37  C   UNL     1      -0.342   1.002  -3.518  0.00  0.00    +0.194 C 
ATOM     38  O   UNL     1      -0.304  -0.393  -3.214  0.00  0.00    -0.375 OA
ENDBRANCH  36  38
ENDBRANCH  26  36
ENDBRANCH  22  32
ENDBRANCH   1  24
TORSDOF 9
