REMARK  Name = ZINC20463363
REMARK  7 active torsions:
REMARK  status: ('A' for Active; 'I' for Inactive)
REMARK    1  A    between atoms: C_4  and  N_7
REMARK    2  A    between atoms: C_13  and  C_37
REMARK    3  A    between atoms: C_15  and  C_18
REMARK    4  A    between atoms: C_18  and  C_19
REMARK    5  A    between atoms: C_19  and  N_20
REMARK    6  A    between atoms: C_23  and  N_26
REMARK    7  A    between atoms: C_37  and  C_38
REMARK                            x       y       z     vdW  Elec       q    Type
REMARK                         _______ _______ _______ _____ _____    ______ ____
ROOT
ATOM      1  N   UNL     1      -9.274   9.292   1.256  0.00  0.00    -0.269 N 
ATOM      2  C   UNL     1     -10.074   8.239   1.516  0.00  0.00    +0.306 C 
ATOM      3  O   UNL     1     -10.242   7.872   2.663  0.00  0.00    -0.252 OA
ATOM      4  N   UNL     1     -10.687   7.592   0.505  0.00  0.00    -0.285 N 
ATOM      5  C   UNL     1     -10.575   8.084  -0.875  0.00  0.00    +0.109 C 
ATOM      6  C   UNL     1     -10.079   6.940  -1.766  0.00  0.00    +0.023 C 
ATOM      7  C   UNL     1     -11.005   5.733  -1.602  0.00  0.00    +0.006 C 
ATOM      8  C   UNL     1     -10.975   5.259  -0.148  0.00  0.00    +0.008 C 
ATOM      9  C   UNL     1     -11.481   6.382   0.763  0.00  0.00    +0.113 C 
ATOM     10  H   UNL     1      -9.221   9.703   0.237  0.00  0.00    +0.156 HD
ENDROOT
BRANCH   1  14
ATOM     11  C   UNL     1      -7.008  10.991   4.312  0.00  0.00    +0.000 A 
ATOM     12  C   UNL     1      -7.495  11.786   3.290  0.00  0.00    +0.002 A 
ATOM     13  C   UNL     1      -8.246  11.226   2.276  0.00  0.00    +0.023 A 
ATOM     14  C   UNL     1      -8.513   9.863   2.282  0.00  0.00    +0.035 A 
ATOM     15  C   UNL     1      -8.027   9.069   3.313  0.00  0.00    +0.023 A 
ATOM     16  C   UNL     1      -7.272   9.634   4.321  0.00  0.00    +0.002 A 
ENDBRANCH   1  14
BRANCH   8  17
ATOM     17  C   UNL     1      -9.541   4.893   0.241  0.00  0.00    -0.013 C 
BRANCH  17  18
ATOM     18  C   UNL     1      -9.530   4.304   1.653  0.00  0.00    -0.079 C 
BRANCH  18  19
ATOM     19  N   UNL     1      -8.153   3.953   2.026  0.00  0.00    +0.380 N 
ATOM     20  C   UNL     1      -8.066   3.607   3.450  0.00  0.00    -0.077 C 
ATOM     21  C   UNL     1      -6.600   3.390   3.835  0.00  0.00    +0.006 C 
ATOM     22  C   UNL     1      -6.016   2.262   2.980  0.00  0.00    +0.089 C 
ATOM     23  C   UNL     1      -6.163   2.623   1.500  0.00  0.00    +0.006 C 
ATOM     24  C   UNL     1      -7.641   2.865   1.183  0.00  0.00    -0.077 C 
ATOM     25  H   UNL     1      -7.519   4.836   1.855  0.00  0.00    -0.082 HD
BRANCH  22  26
ATOM     26  N   UNL     1      -4.597   2.088   3.303  0.00  0.00    -0.289 N 
ATOM     27  C   UNL     1      -4.010   0.925   3.795  0.00  0.00    +0.070 A 
ATOM     28  C   UNL     1      -4.504  -0.331   4.109  0.00  0.00    +0.028 A 
ATOM     29  C   UNL     1      -3.652  -1.304   4.594  0.00  0.00    +0.002 A 
ATOM     30  C   UNL     1      -2.304  -1.033   4.758  0.00  0.00    +0.002 A 
ATOM     31  C   UNL     1      -1.802   0.214   4.442  0.00  0.00    +0.028 A 
ATOM     32  C   UNL     1      -2.650   1.199   3.960  0.00  0.00    +0.067 A 
ATOM     33  N   UNL     1      -2.454   2.519   3.562  0.00  0.00    -0.306 N 
ATOM     34  H   UNL     1      -1.448   2.963   3.605  0.00  0.00    +0.170 HD
ATOM     35  C   UNL     1      -3.639   3.026   3.174  0.00  0.00    +0.328 A 
ATOM     36  O   UNL     1      -3.818   4.159   2.769  0.00  0.00    -0.247 OA
ENDBRANCH  22  26
ENDBRANCH  18  19
ENDBRANCH  17  18
ENDBRANCH   8  17
BRANCH   7  37
ATOM     37  C   UNL     1     -10.534   4.601  -2.517  0.00  0.00    +0.129 C 
BRANCH  37  38
ATOM     38  C   UNL     1     -10.679   5.025  -3.956  0.00  0.00    +0.356 C 
ATOM     39  O   UNL     1     -11.115   6.120  -4.223  0.00  0.00    -0.246 OA
ATOM     40  O   UNL     1     -10.324   4.186  -4.942  0.00  0.00    -0.246 OA
ENDBRANCH  37  38
ENDBRANCH   7  37
TORSDOF 7
