REMARK  Name = ZINC13069944
REMARK  11 active torsions:
REMARK  status: ('A' for Active; 'I' for Inactive)
REMARK    1  A    between atoms: C_1  and  C_2
REMARK    2  A    between atoms: C_7  and  N_12
REMARK    3  A    between atoms: C_9  and  C_11
REMARK    4  A    between atoms: C_13  and  C_15
REMARK    5  A    between atoms: C_15  and  N_16
REMARK    6  A    between atoms: N_23  and  C_24
REMARK    7  A    between atoms: C_24  and  C_25
REMARK    8  A    between atoms: C_25  and  C_26
REMARK    9  A    between atoms: C_25  and  C_27
REMARK   10  A    between atoms: N_28  and  C_31
REMARK   11  A    between atoms: C_31  and  C_32
REMARK                            x       y       z     vdW  Elec       q    Type
REMARK                         _______ _______ _______ _____ _____    ______ ____
ROOT
ATOM      1  N   UNL     1      -0.018   1.461   0.010  0.00  0.00    -0.250 N 
ATOM      2  C   UNL     1      -1.201   2.109   0.019  0.00  0.00    +0.283 A 
ATOM      3  O   UNL     1      -2.246   1.484   0.021  0.00  0.00    -0.265 OA
ATOM      4  C   UNL     1      -1.213   3.521   0.032  0.00  0.00    +0.151 A 
ATOM      5  C   UNL     1      -0.006   4.208   0.024  0.00  0.00    +0.168 A 
ATOM      6  N   UNL     1      -0.293   5.512   0.034  0.00  0.00    -0.218 NA
ATOM      7  C   UNL     1      -1.591   5.681   0.047  0.00  0.00    +0.202 A 
ATOM      8  N   UNL     1      -2.205   4.481   0.047  0.00  0.00    -0.324 N 
ATOM      9  N   UNL     1       1.175   3.485   0.009  0.00  0.00    -0.272 N 
ATOM     10  C   UNL     1       1.143   2.139   0.003  0.00  0.00    +0.334 A 
ATOM     11  O   UNL     1       2.190   1.521  -0.010  0.00  0.00    -0.246 OA
ENDROOT
BRANCH   1  12
ATOM     12  C   UNL     1       0.002  -0.004   0.002  0.00  0.00    +0.225 C 
BRANCH  12  14
ATOM     13  N   UNL     1       0.043  -1.840   1.659  0.00  0.00    -0.311 N 
ATOM     14  C   UNL     1       0.022  -0.514   1.420  0.00  0.00    +0.233 C 
ATOM     15  O   UNL     1       0.021   0.269   2.346  0.00  0.00    -0.274 OA
ATOM     16  H   UNL     1       0.044  -2.466   0.918  0.00  0.00    +0.149 HD
BRANCH  13  22
ATOM     17  C   UNL     1       1.341  -5.642   4.540  0.00  0.00    +0.008 C 
ATOM     18  C   UNL     1       0.712  -4.248   4.509  0.00  0.00    -0.009 C 
ATOM     19  C   UNL     1      -0.719  -4.322   5.045  0.00  0.00    +0.003 C 
ATOM     20  C   UNL     1      -1.348  -2.928   5.013  0.00  0.00    +0.002 C 
ATOM     21  C   UNL     1      -1.369  -2.410   3.573  0.00  0.00    +0.022 C 
ATOM     22  C   UNL     1       0.063  -2.336   3.037  0.00  0.00    +0.076 C 
ATOM     23  C   UNL     1       0.692  -3.730   3.069  0.00  0.00    +0.009 C 
ATOM     24  C   UNL     1       2.123  -3.656   2.533  0.00  0.00    +0.009 C 
ENDBRANCH  13  22
ENDBRANCH  12  14
ENDBRANCH   1  12
BRANCH   8  25
ATOM     25  C   UNL     1      -3.650   4.242   0.060  0.00  0.00    +0.126 C 
BRANCH  25  26
ATOM     26  C   UNL     1      -4.119   4.027   1.500  0.00  0.00    +0.003 C 
ATOM     27  C   UNL     1      -3.915   5.314   2.301  0.00  0.00    +0.009 C 
ATOM     28  C   UNL     1      -5.603   3.654   1.503  0.00  0.00    +0.009 C 
ENDBRANCH  25  26
ENDBRANCH   8  25
BRANCH   9  29
ATOM     29  C   UNL     1       2.462   4.185  -0.000  0.00  0.00    +0.163 C 
BRANCH  29  30
ATOM     30  C   UNL     1       2.890   4.432  -1.424  0.00  0.00    -0.028 A 
ATOM     31  C   UNL     1       3.663   3.497  -2.086  0.00  0.00    +0.005 A 
ATOM     32  C   UNL     1       4.051   3.721  -3.393  0.00  0.00    +0.000 A 
ATOM     33  C   UNL     1       3.674   4.885  -4.036  0.00  0.00    +0.000 A 
ATOM     34  C   UNL     1       2.905   5.823  -3.373  0.00  0.00    +0.000 A 
ATOM     35  C   UNL     1       2.513   5.597  -2.067  0.00  0.00    +0.005 A 
ENDBRANCH  29  30
ENDBRANCH   9  29
TORSDOF 7
