REMARK  Name = ZINC54581281
REMARK  7 active torsions:
REMARK  status: ('A' for Active; 'I' for Inactive)
REMARK    1  A    between atoms: C_1  and  C_2
REMARK    2  A    between atoms: C_2  and  C_4
REMARK    3  A    between atoms: C_2  and  N_15
REMARK    4  A    between atoms: C_7  and  S_10
REMARK    5  A    between atoms: S_10  and  N_13
REMARK    6  A    between atoms: N_13  and  C_14
REMARK    7  A    between atoms: C_22  and  C_24
REMARK                            x       y       z     vdW  Elec       q    Type
REMARK                         _______ _______ _______ _____ _____    ______ ____
ROOT
ATOM      1  N   UNL     1       1.202  -1.087   1.235  0.00  0.00    -0.293 N 
ATOM      2  C   UNL     1       0.389  -1.043   2.309  0.00  0.00    +0.303 C 
ATOM      3  O   UNL     1      -0.788  -0.774   2.171  0.00  0.00    -0.253 OA
ATOM      4  N   UNL     1       0.882  -1.297   3.538  0.00  0.00    -0.282 N 
ATOM      5  C   UNL     1       2.260  -1.728   3.838  0.00  0.00    +0.110 C 
ATOM      6  C   UNL     1       2.501  -1.289   5.304  0.00  0.00    +0.021 C 
ATOM      7  C   UNL     1       1.110  -1.549   5.941  0.00  0.00    +0.024 C 
ATOM      8  C   UNL     1       0.137  -1.185   4.800  0.00  0.00    +0.081 C 
ATOM      9  H   UNL     1       2.141  -1.301   1.346  0.00  0.00    +0.151 HD
ENDROOT
BRANCH   8  10
ATOM     10  C   UNL     1      -1.043  -2.159   4.796  0.00  0.00    +0.010 C 
ATOM     11  C   UNL     1      -1.778  -2.075   6.135  0.00  0.00    +0.005 C 
ATOM     12  C   UNL     1      -2.958  -3.049   6.131  0.00  0.00    +0.000 C 
ATOM     13  C   UNL     1      -2.443  -4.474   5.920  0.00  0.00    +0.000 C 
ATOM     14  C   UNL     1      -1.708  -4.558   4.581  0.00  0.00    +0.000 C 
ATOM     15  C   UNL     1      -0.528  -3.584   4.585  0.00  0.00    +0.005 C 
ENDBRANCH   8  10
BRANCH   1  17
ATOM     16  C   UNL     1       0.664   0.700  -0.346  0.00  0.00    +0.033 C 
ATOM     17  C   UNL     1       0.666  -0.810  -0.100  0.00  0.00    +0.102 C 
BRANCH  17  18
ATOM     18  C   UNL     1       1.526  -1.487  -1.137  0.00  0.00    -0.027 A 
ATOM     19  C   UNL     1       2.900  -1.502  -0.992  0.00  0.00    +0.007 A 
ATOM     20  C   UNL     1       3.689  -2.123  -1.942  0.00  0.00    +0.029 A 
ATOM     21  C   UNL     1       3.103  -2.729  -3.038  0.00  0.00    +0.105 A 
ATOM     22  C   UNL     1       1.728  -2.715  -3.182  0.00  0.00    +0.029 A 
ATOM     23  C   UNL     1       0.939  -2.098  -2.229  0.00  0.00    +0.007 A 
BRANCH  21  24
ATOM     24  S   UNL     1       4.108  -3.519  -4.250  0.00  0.00    +0.058 S 
ATOM     25  O   UNL     1       3.354  -3.537  -5.454  0.00  0.00    -0.153 OA
ATOM     26  O   UNL     1       5.394  -2.920  -4.164  0.00  0.00    -0.153 OA
BRANCH  24  27
ATOM     27  N   UNL     1       4.289  -5.098  -3.782  0.00  0.00    -0.193 NA
ATOM     28  C   UNL     1       3.126  -5.987  -3.737  0.00  0.00    +0.127 C 
ATOM     29  H   UNL     1       5.166  -5.433  -3.538  0.00  0.00    +0.148 HD
ENDBRANCH  24  27
ENDBRANCH  21  24
ENDBRANCH  17  18
ENDBRANCH   1  17
TORSDOF 5
