REMARK  Name = ZINC52634512
REMARK  11 active torsions:
REMARK  status: ('A' for Active; 'I' for Inactive)
REMARK    1  A    between atoms: C_1  and  C_2
REMARK    2  A    between atoms: C_2  and  C_3
REMARK    3  A    between atoms: C_3  and  C_4
REMARK    4  A    between atoms: C_4  and  C_5
REMARK    5  A    between atoms: C_9  and  C_40
REMARK    6  A    between atoms: C_11  and  C_39
REMARK    7  A    between atoms: N_14  and  C_15
REMARK    8  A    between atoms: C_15  and  C_16
REMARK    9  A    between atoms: C_19  and  C_22
REMARK   10  A    between atoms: N_31  and  C_38
REMARK   11  A    between atoms: C_32  and  C_33
REMARK                            x       y       z     vdW  Elec       q    Type
REMARK                         _______ _______ _______ _____ _____    ______ ____
ROOT
ATOM      1  C   UNL     1      -3.346  -5.098   2.236  0.00  0.00    -0.030 A 
ATOM      2  C   UNL     1      -3.499  -4.201   3.278  0.00  0.00    +0.006 A 
ATOM      3  C   UNL     1      -4.466  -4.412   4.238  0.00  0.00    +0.009 A 
ATOM      4  C   UNL     1      -5.293  -5.534   4.157  0.00  0.00    -0.015 A 
ATOM      5  C   UNL     1      -5.134  -6.435   3.103  0.00  0.00    +0.009 A 
ATOM      6  C   UNL     1      -4.165  -6.210   2.147  0.00  0.00    +0.006 A 
ENDROOT
BRANCH   4   7
ATOM      7  C   UNL     1      -6.332  -5.766   5.183  0.00  0.00    +0.017 A 
ATOM      8  C   UNL     1      -6.248  -6.929   6.079  0.00  0.00    -0.003 A 
ATOM      9  C   UNL     1      -5.200  -7.844   5.997  0.00  0.00    +0.009 A 
ATOM     10  C   UNL     1      -5.165  -8.918   6.859  0.00  0.00    +0.001 A 
ATOM     11  C   UNL     1      -6.164  -9.096   7.808  0.00  0.00    +0.001 A 
ATOM     12  C   UNL     1      -7.209  -8.204   7.907  0.00  0.00    +0.014 A 
ATOM     13  C   UNL     1      -7.264  -7.110   7.044  0.00  0.00    +0.047 A 
ATOM     14  C   UNL     1      -8.357  -6.131   7.110  0.00  0.00    +0.259 A 
ATOM     15  O   UNL     1      -9.245  -6.263   7.932  0.00  0.00    -0.267 OA
ATOM     16  N   UNL     1      -8.374  -5.088   6.259  0.00  0.00    -0.307 N 
ATOM     17  C   UNL     1      -7.392  -4.893   5.317  0.00  0.00    +0.101 A 
ATOM     18  C   UNL     1      -9.474  -4.124   6.344  0.00  0.00    +0.152 C 
BRANCH  17  19
ATOM     19  C   UNL     1      -7.475  -3.724   4.425  0.00  0.00    +0.224 A 
ATOM     20  N   UNL     1      -6.617  -3.394   3.455  0.00  0.00    -0.104 NA
ATOM     21  N   UNL     1      -7.047  -2.308   2.911  0.00  0.00    -0.021 NA
ATOM     22  N   UNL     1      -8.134  -1.941   3.493  0.00  0.00    -0.021 NA
ATOM     23  N   UNL     1      -8.428  -2.786   4.421  0.00  0.00    -0.104 NA
ENDBRANCH  17  19
ENDBRANCH   4   7
BRANCH   1  24
ATOM     24  C   UNL     1      -2.287  -4.861   1.191  0.00  0.00    +0.143 C 
BRANCH  24  33
ATOM     25  C   UNL     1      -2.848  -2.593   0.015  0.00  0.00    +0.160 C 
ATOM     26  N   UNL     1      -3.518  -2.267  -1.250  0.00  0.00    -0.323 N 
ATOM     27  C   UNL     1      -3.877  -3.479  -1.851  0.00  0.00    +0.070 A 
ATOM     28  C   UNL     1      -4.530  -3.742  -3.050  0.00  0.00    -0.025 A 
ATOM     29  C   UNL     1      -4.760  -5.064  -3.403  0.00  0.00    +0.026 A 
ATOM     30  C   UNL     1      -4.337  -6.070  -2.559  0.00  0.00    +0.015 A 
ATOM     31  N   UNL     1      -3.720  -5.794  -1.426  0.00  0.00    -0.346 N 
ATOM     32  C   UNL     1      -3.477  -4.545  -1.046  0.00  0.00    +0.122 A 
ATOM     33  N   UNL     1      -2.847  -4.058   0.101  0.00  0.00    -0.292 N 
ATOM     34  C   UNL     1      -4.583  -7.508  -2.937  0.00  0.00    +0.063 C 
ATOM     35  C   UNL     1      -4.979  -2.616  -3.945  0.00  0.00    +0.046 C 
ATOM     36  H   UNL     1      -3.682  -1.378  -1.602  0.00  0.00    +0.148 HD
ATOM     37  H   UNL     1      -3.435  -6.524  -0.855  0.00  0.00    +0.167 HD
BRANCH  25  38
ATOM     38  C   UNL     1      -1.413  -2.063   0.004  0.00  0.00    +0.042 C 
BRANCH  38  39
ATOM     39  C   UNL     1      -1.433  -0.534   0.013  0.00  0.00    +0.003 C 
BRANCH  39  41
ATOM     40  C   UNL     1      -0.019   1.526   0.010  0.00  0.00    +0.004 C 
ATOM     41  C   UNL     1       0.002  -0.004   0.002  0.00  0.00    -0.003 C 
ENDBRANCH  39  41
ENDBRANCH  38  39
ENDBRANCH  25  38
ENDBRANCH  24  33
ENDBRANCH   1  24
TORSDOF 7
