REMARK  Name = ZINC63311247
REMARK  7 active torsions:
REMARK  status: ('A' for Active; 'I' for Inactive)
REMARK    1  A    between atoms: C_1  and  C_2
REMARK    2  A    between atoms: C_3  and  S_9
REMARK    3  A    between atoms: N_5  and  C_7
REMARK    4  A    between atoms: S_9  and  N_12
REMARK    5  A    between atoms: N_12  and  C_13
REMARK    6  A    between atoms: N_16  and  C_19
REMARK    7  A    between atoms: C_19  and  C_20
REMARK                            x       y       z     vdW  Elec       q    Type
REMARK                         _______ _______ _______ _____ _____    ______ ____
ROOT
ATOM      1  N   UNL     1       1.394  -0.352  -3.047  0.00  0.00    -0.187 NA
ATOM      2  H   UNL     1       1.675   0.545  -3.285  0.00  0.00    +0.148 HD
ENDROOT
BRANCH   1   3
ATOM      3  C   UNL     1       2.329  -1.472  -3.177  0.00  0.00    +0.073 C 
ATOM      4  C   UNL     1       3.201  -1.560  -1.921  0.00  0.00    +0.002 C 
ATOM      5  C   UNL     1       4.228  -2.680  -2.098  0.00  0.00    -0.077 C 
ATOM      6  N   UNL     1       5.074  -2.395  -3.263  0.00  0.00    +0.380 N 
ATOM      7  C   UNL     1       4.255  -2.380  -4.481  0.00  0.00    -0.077 C 
ATOM      8  C   UNL     1       3.229  -1.248  -4.396  0.00  0.00    +0.002 C 
ATOM      9  H   UNL     1       5.515  -1.495  -3.144  0.00  0.00    -0.082 HD
BRANCH   6  10
ATOM     10  C   UNL     1       6.107  -3.432  -3.382  0.00  0.00    -0.075 C 
BRANCH  10  11
ATOM     11  C   UNL     1       7.061  -3.341  -2.189  0.00  0.00    -0.028 C 
ATOM     12  C   UNL     1       7.861  -2.024  -2.250  0.00  0.00    +0.002 C 
ATOM     13  C   UNL     1       9.270  -2.411  -1.738  0.00  0.00    +0.000 C 
ATOM     14  C   UNL     1       9.480  -3.820  -2.345  0.00  0.00    +0.000 C 
ATOM     15  C   UNL     1       8.090  -4.484  -2.249  0.00  0.00    +0.002 C 
ENDBRANCH  10  11
ENDBRANCH   6  10
ENDBRANCH   1   3
BRANCH   1  16
ATOM     16  S   UNL     1      -0.143  -0.618  -2.491  0.00  0.00    +0.063 S 
ATOM     17  O   UNL     1      -0.660  -1.713  -3.235  0.00  0.00    -0.153 OA
ATOM     18  O   UNL     1      -0.786   0.649  -2.453  0.00  0.00    -0.153 OA
BRANCH  16  21
ATOM     19  C   UNL     1      -0.107   1.156   0.321  0.00  0.00    +0.069 C 
ATOM     20  C   UNL     1       0.000  -0.347   0.314  0.00  0.00    +0.088 A 
ATOM     21  C   UNL     1      -0.007  -1.164  -0.821  0.00  0.00    +0.164 A 
ATOM     22  C   UNL     1       0.110  -2.449  -0.410  0.00  0.00    +0.153 A 
ATOM     23  N   UNL     1       0.187  -2.444   0.938  0.00  0.00    -0.254 N 
ATOM     24  N   UNL     1       0.121  -1.112   1.368  0.00  0.00    -0.173 NA
ATOM     25  C   UNL     1       0.321  -3.622   1.798  0.00  0.00    +0.174 C 
ATOM     26 CL   UNL     1       0.151  -3.852  -1.432  0.00  0.00    -0.060 Cl
ENDBRANCH  16  21
ENDBRANCH   1  16
TORSDOF 5
