REMARK  Name = ZINC39611858
REMARK  11 active torsions:
REMARK  status: ('A' for Active; 'I' for Inactive)
REMARK    1  A    between atoms: C_1  and  C_2
REMARK    2  A    between atoms: C_2  and  C_3
REMARK    3  A    between atoms: C_2  and  C_4
REMARK    4  A    between atoms: C_4  and  C_6
REMARK    5  A    between atoms: C_4  and  N_25
REMARK    6  A    between atoms: C_6  and  O_8
REMARK    7  A    between atoms: O_8  and  C_9
REMARK    8  A    between atoms: C_9  and  C_10
REMARK    9  A    between atoms: C_12  and  O_13
REMARK   10  A    between atoms: C_22  and  C_24
REMARK   11  A    between atoms: C_26  and  C_28
REMARK                            x       y       z     vdW  Elec       q    Type
REMARK                         _______ _______ _______ _____ _____    ______ ____
ROOT
ATOM      1  O   UNL     1       1.715   1.923   1.429  0.00  0.00    -0.459 OA
ENDROOT
BRANCH   1   2
ATOM      2  C   UNL     1       1.221   0.693   1.219  0.00  0.00    +0.328 C 
ATOM      3  O   UNL     1       1.930  -0.173   0.764  0.00  0.00    -0.249 OA
BRANCH   2   4
ATOM      4  C   UNL     1      -0.218   0.392   1.550  0.00  0.00    +0.185 C 
BRANCH   4   5
ATOM      5  N   UNL     1      -0.451  -1.051   1.449  0.00  0.00    -0.298 N 
ATOM      6  C   UNL     1      -1.450  -1.623   2.151  0.00  0.00    +0.246 C 
ATOM      7  O   UNL     1      -2.157  -0.942   2.867  0.00  0.00    -0.270 OA
ATOM      8  H   UNL     1       0.114  -1.595   0.878  0.00  0.00    +0.150 HD
BRANCH   6   9
ATOM      9  C   UNL     1      -1.684  -3.079   2.049  0.00  0.00    +0.055 A 
ATOM     10  C   UNL     1      -0.870  -3.865   1.232  0.00  0.00    +0.014 A 
ATOM     11  C   UNL     1      -1.094  -5.223   1.142  0.00  0.00    +0.001 A 
ATOM     12  C   UNL     1      -2.124  -5.807   1.859  0.00  0.00    +0.001 A 
ATOM     13  C   UNL     1      -2.935  -5.036   2.670  0.00  0.00    +0.021 A 
ATOM     14  C   UNL     1      -2.718  -3.675   2.775  0.00  0.00    +0.053 A 
ATOM     15 CL   UNL     1      -3.732  -2.709   3.800  0.00  0.00    -0.083 Cl
ENDBRANCH   6   9
ENDBRANCH   4   5
BRANCH   4  17
ATOM     16  C   UNL     1      -0.885   2.632   0.668  0.00  0.00    +0.009 C 
ATOM     17  C   UNL     1      -1.132   1.126   0.567  0.00  0.00    +0.014 C 
ATOM     18  C   UNL     1      -0.833   0.654  -0.857  0.00  0.00    +0.009 C 
ENDBRANCH   4  17
ENDBRANCH   2   4
ENDBRANCH   1   2
BRANCH   1  19
ATOM     19  C   UNL     1       3.112   2.109   1.199  0.00  0.00    +0.268 C 
BRANCH  19  20
ATOM     20  C   UNL     1       3.506   3.507   1.600  0.00  0.00    +0.007 A 
ATOM     21  C   UNL     1       3.409   3.918   2.915  0.00  0.00    +0.095 A 
ATOM     22  C   UNL     1       3.776   5.209   3.266  0.00  0.00    +0.285 A 
ATOM     23  O   UNL     1       4.227   6.076   2.353  0.00  0.00    -0.425 OA
ATOM     24  C   UNL     1       4.343   5.728   1.055  0.00  0.00    +0.141 A 
ATOM     25  C   UNL     1       3.988   4.424   0.642  0.00  0.00    +0.024 A 
ATOM     26  C   UNL     1       4.112   4.055  -0.709  0.00  0.00    +0.014 A 
ATOM     27  C   UNL     1       4.578   4.952  -1.617  0.00  0.00    +0.024 A 
ATOM     28  C   UNL     1       4.938   6.250  -1.214  0.00  0.00    +0.037 A 
ATOM     29  C   UNL     1       4.811   6.635   0.122  0.00  0.00    +0.070 A 
ATOM     30  N   UNL     1       5.404   7.139  -2.133  0.00  0.00    -0.286 N 
ATOM     31  C   UNL     1       6.019   8.236  -1.737  0.00  0.00    +0.214 C 
ATOM     32  O   UNL     1       6.288   8.392  -0.558  0.00  0.00    -0.276 OA
ATOM     33  C   UNL     1       6.391   9.297  -2.741  0.00  0.00    +0.109 C 
ATOM     34  H   UNL     1       5.283   6.966  -3.080  0.00  0.00    +0.155 HD
BRANCH  22  35
ATOM     35  O   UNL     1       3.675   5.596   4.551  0.00  0.00    -0.480 OA
ATOM     36  H   UNL     1       3.951   6.510   4.710  0.00  0.00    +0.295 HD
ENDBRANCH  22  35
ENDBRANCH  19  20
ENDBRANCH   1  19
TORSDOF 8
