REMARK  Name = ZINC23763300
REMARK  7 active torsions:
REMARK  status: ('A' for Active; 'I' for Inactive)
REMARK    1  A    between atoms: C_1  and  C_2
REMARK    2  A    between atoms: C_2  and  C_25
REMARK    3  A    between atoms: C_3  and  C_4
REMARK    4  A    between atoms: C_6  and  C_11
REMARK    5  A    between atoms: C_8  and  C_9
REMARK    6  A    between atoms: C_8  and  C_10
REMARK    7  A    between atoms: C_16  and  C_19
REMARK                            x       y       z     vdW  Elec       q    Type
REMARK                         _______ _______ _______ _____ _____    ______ ____
ROOT
ATOM      1  C   UNL     1       1.063  -0.122   4.835  0.00  0.00    +0.223 C 
ATOM      2  O   UNL     1       1.576   0.965   4.672  0.00  0.00    -0.275 OA
ATOM      3  N   UNL     1       1.201  -0.763   6.012  0.00  0.00    -0.264 N 
ATOM      4  C   UNL     1       1.932  -0.178   7.039  0.00  0.00    +0.165 A 
ATOM      5  N   UNL     1       2.186  -0.640   8.249  0.00  0.00    -0.223 NA
ATOM      6  C   UNL     1       2.912   0.062   9.116  0.00  0.00    +0.096 A 
ATOM      7  C   UNL     1       3.402   1.284   8.742  0.00  0.00    +0.078 A 
ATOM      8  S   UNL     1       2.782   1.393   7.069  0.00  0.00    -0.060 S 
ATOM      9  H   UNL     1       0.791  -1.632   6.142  0.00  0.00    +0.157 HD
ENDROOT
BRANCH   6  10
ATOM     10  C   UNL     1       3.185  -0.472  10.468  0.00  0.00    +0.066 A 
ATOM     11  C   UNL     1       2.762  -1.670  10.957  0.00  0.00    +0.029 A 
ATOM     12  C   UNL     1       3.243  -1.779  12.274  0.00  0.00    +0.019 A 
ATOM     13  C   UNL     1       3.939  -0.657  12.550  0.00  0.00    +0.083 A 
ATOM     14  N   UNL     1       3.915   0.149  11.448  0.00  0.00    -0.359 N 
ATOM     15  H   UNL     1       4.341   1.018  11.373  0.00  0.00    +0.165 HD
ENDBRANCH   6  10
BRANCH   1  17
ATOM     16  C   UNL     1       0.165   0.014   2.402  0.00  0.00    +0.030 C 
ATOM     17  C   UNL     1       0.271  -0.756   3.720  0.00  0.00    +0.089 C 
ATOM     18  C   UNL     1      -1.051  -0.091   3.325  0.00  0.00    -0.016 C 
ATOM     19  C   UNL     1      -2.196  -1.004   2.883  0.00  0.00    +0.012 C 
ATOM     20  C   UNL     1      -1.466   1.165   4.093  0.00  0.00    +0.012 C 
BRANCH  16  23
ATOM     21  C   UNL     1       0.344   1.319  -0.088  0.00  0.00    +0.038 C 
ATOM     22  C   UNL     1       0.226  -0.182  -0.031  0.00  0.00    -0.079 C 
ATOM     23  C   UNL     1       0.142  -0.789   1.127  0.00  0.00    -0.023 C 
ATOM     24  C   UNL     1       0.203  -0.985  -1.306  0.00  0.00    +0.038 C 
ENDBRANCH  16  23
ENDBRANCH   1  17
TORSDOF 3
