REMARK  Name = ZINC00221388
REMARK  3 active torsions:
REMARK  status: ('A' for Active; 'I' for Inactive)
REMARK    1  A    between atoms: C_1  and  O_2
REMARK    2  A    between atoms: O_2  and  C_3
REMARK    3  A    between atoms: C_20  and  C_22
REMARK                            x       y       z     vdW  Elec       q    Type
REMARK                         _______ _______ _______ _____ _____    ______ ____
ROOT
ATOM      1  C   UNL     1       2.510   5.547   0.297  0.00  0.00    +0.162 A 
ATOM      2  C   UNL     1       3.549   6.309   0.797  0.00  0.00    +0.049 A 
ATOM      3  C   UNL     1       4.554   5.710   1.534  0.00  0.00    +0.004 A 
ATOM      4  C   UNL     1       4.519   4.348   1.762  0.00  0.00    +0.009 A 
ATOM      5  C   UNL     1       3.487   3.579   1.256  0.00  0.00    +0.020 A 
ATOM      6  C   UNL     1       2.465   4.168   0.529  0.00  0.00    +0.170 A 
ATOM      7  O   UNL     1       1.404   3.485   0.025  0.00  0.00    -0.463 OA
ATOM      8  C   UNL     1       1.413   2.057  -0.000  0.00  0.00    +0.193 C 
ATOM      9  C   UNL     1      -0.019   1.526   0.010  0.00  0.00    +0.070 C 
ATOM     10  C   UNL     1       0.002  -0.004   0.002  0.00  0.00    +0.006 C 
ATOM     11  C   UNL     1       0.726  -0.496  -1.253  0.00  0.00    +0.000 C 
ATOM     12  C   UNL     1       2.163   0.030  -1.252  0.00  0.00    +0.006 C 
ATOM     13  C   UNL     1       2.146   1.560  -1.244  0.00  0.00    +0.070 C 
ATOM     14  N   UNL     1       2.119   1.616   1.206  0.00  0.00    -0.206 N 
ATOM     15  C   UNL     1       3.491   2.092   1.496  0.00  0.00    +0.136 C 
ATOM     16  C   UNL     1       3.687   1.749   2.979  0.00  0.00    +0.090 C 
ATOM     17  C   UNL     1       2.507   0.854   3.298  0.00  0.00    +0.103 C 
ATOM     18  N   UNL     1       1.704   0.821   2.282  0.00  0.00    -0.181 NA
ENDROOT
BRANCH  17  19
ATOM     19  C   UNL     1       2.306   0.135   4.561  0.00  0.00    +0.150 A 
ATOM     20  C   UNL     1       1.247  -0.669   4.865  0.00  0.00    +0.051 A 
ATOM     21  C   UNL     1       1.464  -1.149   6.171  0.00  0.00    +0.042 A 
ATOM     22  C   UNL     1       2.626  -0.616   6.600  0.00  0.00    +0.196 A 
ATOM     23  O   UNL     1       3.131   0.159   5.626  0.00  0.00    -0.462 OA
ENDBRANCH  17  19
BRANCH   1  25
ATOM     24  C   UNL     1       1.630   7.553  -0.629  0.00  0.00    +0.277 C 
ATOM     25  O   UNL     1       1.524   6.142  -0.427  0.00  0.00    -0.491 OA
ENDBRANCH   1  25
TORSDOF 2
