REMARK  Name = ZINC39735909
REMARK  8 active torsions:
REMARK  status: ('A' for Active; 'I' for Inactive)
REMARK    1  A    between atoms: C_1  and  C_2
REMARK    2  A    between atoms: C_2  and  S_3
REMARK    3  A    between atoms: S_3  and  C_4
REMARK    4  A    between atoms: C_7  and  C_10
REMARK    5  A    between atoms: C_10  and  C_11
REMARK    6  A    between atoms: N_13  and  C_14
REMARK    7  A    between atoms: C_15  and  C_25
REMARK    8  A    between atoms: C_20  and  C_24
REMARK                            x       y       z     vdW  Elec       q    Type
REMARK                         _______ _______ _______ _____ _____    ______ ____
ROOT
ATOM      1  C   UNL     1      -2.013  -8.915  -2.321  0.00  0.00    +0.082 A 
ATOM      2  C   UNL     1      -2.458 -10.221  -2.443  0.00  0.00    +0.039 A 
ATOM      3  C   UNL     1      -3.711 -10.451  -3.139  0.00  0.00    -0.026 A 
ATOM      4  C   UNL     1      -4.341  -9.351  -3.614  0.00  0.00    -0.004 A 
ATOM      5  S   UNL     1      -3.300  -7.996  -3.147  0.00  0.00    -0.077 S 
ATOM      6  C   UNL     1      -5.636  -9.302  -4.364  0.00  0.00    +0.046 C 
ATOM      7  C   UNL     1      -5.971 -10.720  -4.846  0.00  0.00    -0.009 C 
ATOM      8  C   UNL     1      -5.795 -11.691  -3.675  0.00  0.00    +0.008 C 
ATOM      9  C   UNL     1      -4.311 -11.839  -3.340  0.00  0.00    +0.037 C 
ATOM     10  C   UNL     1      -7.418 -10.765  -5.341  0.00  0.00    +0.008 C 
ENDROOT
BRANCH   2  11
ATOM     11  C   UNL     1      -1.684 -11.342  -1.884  0.00  0.00    +0.112 A 
ATOM     12  N   UNL     1      -1.955 -12.631  -1.915  0.00  0.00    -0.239 NA
ATOM     13  C   UNL     1      -1.147 -13.554  -1.355  0.00  0.00    +0.079 A 
ATOM     14  C   UNL     1      -1.319 -14.958  -1.317  0.00  0.00    +0.029 A 
ATOM     15  C   UNL     1      -0.395 -15.760  -0.702  0.00  0.00    +0.002 A 
ATOM     16  C   UNL     1       0.737 -15.232  -0.097  0.00  0.00    +0.001 A 
ATOM     17  C   UNL     1       0.938 -13.864  -0.116  0.00  0.00    +0.017 A 
ATOM     18  C   UNL     1       0.018 -13.051  -0.730  0.00  0.00    +0.040 A 
ATOM     19  S   UNL     1      -0.132 -11.301  -0.997  0.00  0.00    -0.067 S 
ENDBRANCH   2  11
BRANCH   1  22
ATOM     20  C   UNL     1      -0.601  -7.118  -1.688  0.00  0.00    +0.222 C 
ATOM     21  O   UNL     1      -1.375  -6.341  -2.206  0.00  0.00    -0.275 OA
ATOM     22  N   UNL     1      -0.859  -8.441  -1.707  0.00  0.00    -0.279 N 
ATOM     23  H   UNL     1      -0.240  -9.062  -1.293  0.00  0.00    +0.155 HD
BRANCH  20  24
ATOM     24  C   UNL     1       0.650  -6.604  -1.022  0.00  0.00    +0.131 C 
BRANCH  24  28
ATOM     25  C   UNL     1       0.792  -2.345  -1.354  0.00  0.00    +0.008 A 
ATOM     26  C   UNL     1       0.174  -2.938  -0.260  0.00  0.00    +0.015 A 
ATOM     27  C   UNL     1       0.130  -4.314  -0.156  0.00  0.00    +0.005 A 
ATOM     28  C   UNL     1       0.700  -5.102  -1.139  0.00  0.00    -0.039 A 
ATOM     29  C   UNL     1       1.317  -4.515  -2.229  0.00  0.00    +0.005 A 
ATOM     30  C   UNL     1       1.359  -3.140  -2.343  0.00  0.00    +0.015 A 
BRANCH  25  31
ATOM     31  S   UNL     1       0.851  -0.589  -1.490  0.00  0.00    -0.125 S 
BRANCH  31  33
ATOM     32  C   UNL     1      -0.019   1.526   0.010  0.00  0.00    +0.015 C 
ATOM     33  C   UNL     1       0.002  -0.004   0.002  0.00  0.00    +0.071 C 
ENDBRANCH  31  33
ENDBRANCH  25  31
ENDBRANCH  24  28
ENDBRANCH  20  24
ENDBRANCH   1  22
TORSDOF 6
