REMARK  Name = ZINC50252770
REMARK  6 active torsions:
REMARK  status: ('A' for Active; 'I' for Inactive)
REMARK    1  A    between atoms: C_1  and  C_2
REMARK    2  A    between atoms: C_4  and  S_8
REMARK    3  A    between atoms: N_6  and  C_7
REMARK    4  A    between atoms: S_8  and  N_11
REMARK    5  A    between atoms: N_11  and  C_12
REMARK    6  A    between atoms: C_13  and  N_20
REMARK                            x       y       z     vdW  Elec       q    Type
REMARK                         _______ _______ _______ _____ _____    ______ ____
ROOT
ATOM      1  N   UNL     1       1.628  -3.801  -2.082  0.00  0.00    -0.093 NA
ENDROOT
BRANCH   1   2
ATOM      2  C   UNL     1       1.952  -4.936  -2.837  0.00  0.00    +0.109 A 
ATOM      3  C   UNL     1       2.755  -4.815  -3.971  0.00  0.00    +0.052 A 
ATOM      4  C   UNL     1       3.073  -5.942  -4.715  0.00  0.00    +0.040 A 
ATOM      5  C   UNL     1       2.593  -7.182  -4.331  0.00  0.00    +0.021 A 
ATOM      6  C   UNL     1       1.797  -7.302  -3.207  0.00  0.00    +0.032 A 
ATOM      7  C   UNL     1       1.481  -6.183  -2.456  0.00  0.00    +0.045 A 
ATOM      8 BR   UNL     1       0.398  -6.354  -0.915  0.00  0.00    -0.048 Br
ATOM      9 BR   UNL     1       3.027  -8.716  -5.347  0.00  0.00    -0.050 Br
BRANCH   3  10
ATOM     10  N   UNL     1       3.239  -3.560  -4.358  0.00  0.00    -0.356 N 
ATOM     11  H   UNL     1       3.016  -2.772  -3.837  0.00  0.00    +0.142 HD
ATOM     12  H   UNL     1       3.797  -3.477  -5.147  0.00  0.00    +0.142 HD
ENDBRANCH   3  10
ENDBRANCH   1   2
BRANCH   1  13
ATOM     13  S   UNL     1       0.076  -3.222  -2.082  0.00  0.00    +0.109 S 
ATOM     14  O   UNL     1      -0.702  -4.147  -1.335  0.00  0.00    -0.147 OA
ATOM     15  O   UNL     1      -0.230  -2.881  -3.427  0.00  0.00    -0.147 OA
BRANCH  13  19
ATOM     16  C   UNL     1       0.404   1.876  -0.863  0.00  0.00    +0.084 C 
ATOM     17  C   UNL     1       0.224   0.388  -0.709  0.00  0.00    +0.085 A 
ATOM     18  N   UNL     1       0.291  -0.490  -1.672  0.00  0.00    -0.328 N 
ATOM     19  C   UNL     1       0.083  -1.716  -1.169  0.00  0.00    +0.195 A 
ATOM     20  C   UNL     1      -0.121  -1.593   0.156  0.00  0.00    +0.134 A 
ATOM     21  N   UNL     1      -0.026  -0.259   0.450  0.00  0.00    -0.337 N 
ATOM     22  C   UNL     1      -0.172   0.353   1.773  0.00  0.00    +0.150 C 
ATOM     23  H   UNL     1       0.465  -0.288  -2.605  0.00  0.00    +0.168 HD
ENDBRANCH  13  19
ENDBRANCH   1  13
TORSDOF 4
