REMARK  Name = ZINC64976669
REMARK  5 active torsions:
REMARK  status: ('A' for Active; 'I' for Inactive)
REMARK    1  A    between atoms: C_1  and  C_2
REMARK    2  A    between atoms: C_6  and  N_8
REMARK    3  A    between atoms: N_11  and  S_16
REMARK    4  A    between atoms: C_13  and  C_15
REMARK    5  A    between atoms: S_16  and  C_19
REMARK                            x       y       z     vdW  Elec       q    Type
REMARK                         _______ _______ _______ _____ _____    ______ ____
ROOT
ATOM      1  S   UNL     1       1.120  -5.105   5.846  0.00  0.00    +0.062 S 
ATOM      2  O   UNL     1       1.554  -6.419   5.522  0.00  0.00    -0.153 OA
ATOM      3  O   UNL     1       1.761  -4.314   6.838  0.00  0.00    -0.153 OA
ENDROOT
BRANCH   1   4
ATOM      4  C   UNL     1      -0.571  -5.236   6.321  0.00  0.00    +0.121 A 
ATOM      5  C   UNL     1      -1.187  -6.437   6.254  0.00  0.00    +0.055 A 
ATOM      6  C   UNL     1      -2.593  -6.537   6.651  0.00  0.00    +0.058 A 
ATOM      7  N   UNL     1      -3.465  -7.510   6.708  0.00  0.00    -0.267 N 
ATOM      8  C   UNL     1      -4.657  -6.999   7.168  0.00  0.00    +0.308 C 
ATOM      9  O   UNL     1      -5.672  -7.641   7.337  0.00  0.00    -0.252 OA
ATOM     10  N   UNL     1      -4.525  -5.655   7.409  0.00  0.00    -0.268 N 
ATOM     11  C   UNL     1      -3.295  -5.300   7.117  0.00  0.00    +0.057 A 
ATOM     12  C   UNL     1      -2.578  -4.083   7.158  0.00  0.00    +0.042 A 
ATOM     13  C   UNL     1      -1.278  -4.045   6.786  0.00  0.00    +0.046 A 
ATOM     14 BR   UNL     1      -0.350  -2.399   6.861  0.00  0.00    -0.048 Br
ATOM     15  H   UNL     1      -3.300  -8.435   6.465  0.00  0.00    +0.156 HD
ATOM     16  H   UNL     1      -5.223  -5.067   7.738  0.00  0.00    +0.156 HD
ENDBRANCH   1   4
BRANCH   1  20
ATOM     17  N   UNL     1       0.074  -2.696   2.461  0.00  0.00    -0.325 N 
ATOM     18  C   UNL     1       0.325  -2.046   3.755  0.00  0.00    +0.122 C 
ATOM     19  C   UNL     1       1.463  -2.791   4.464  0.00  0.00    +0.128 C 
ATOM     20  N   UNL     1       1.168  -4.231   4.440  0.00  0.00    -0.173 NA
ATOM     21  C   UNL     1       0.916  -4.880   3.146  0.00  0.00    +0.131 C 
ATOM     22  C   UNL     1      -0.227  -4.134   2.437  0.00  0.00    +0.086 C 
ATOM     23  C   UNL     1      -0.334  -4.613   0.988  0.00  0.00    +0.029 C 
BRANCH  17  29
ATOM     24  C   UNL     1       2.673  -0.214  -0.892  0.00  0.00    +0.044 C 
ATOM     25  C   UNL     1       1.360  -0.743  -0.374  0.00  0.00    -0.049 A 
ATOM     26  C   UNL     1       0.193  -0.498  -1.073  0.00  0.00    +0.003 A 
ATOM     27  C   UNL     1      -1.014  -0.981  -0.602  0.00  0.00    +0.002 A 
ATOM     28  C   UNL     1      -1.057  -1.710   0.570  0.00  0.00    +0.023 A 
ATOM     29  C   UNL     1       0.114  -1.958   1.275  0.00  0.00    +0.030 A 
ATOM     30  C   UNL     1       1.325  -1.476   0.795  0.00  0.00    +0.026 A 
ENDBRANCH  17  29
ENDBRANCH   1  20
TORSDOF 3
