REMARK  Name = ZINC49127404
REMARK  9 active torsions:
REMARK  status: ('A' for Active; 'I' for Inactive)
REMARK    1  A    between atoms: C_1  and  C_2
REMARK    2  A    between atoms: C_2  and  C_3
REMARK    3  A    between atoms: C_3  and  C_5
REMARK    4  A    between atoms: C_3  and  N_8
REMARK    5  A    between atoms: C_5  and  C_6
REMARK    6  A    between atoms: C_5  and  C_7
REMARK    7  A    between atoms: N_8  and  S_9
REMARK    8  A    between atoms: S_9  and  C_12
REMARK    9  A    between atoms: C_13  and  N_20
REMARK                            x       y       z     vdW  Elec       q    Type
REMARK                         _______ _______ _______ _____ _____    ______ ____
ROOT
ATOM      1  S   UNL     1      -4.277   1.385  -0.987  0.00  0.00    +0.061 S 
ATOM      2  O   UNL     1      -5.048   2.000  -2.011  0.00  0.00    -0.153 OA
ATOM      3  O   UNL     1      -4.872   0.734   0.127  0.00  0.00    -0.153 OA
ENDROOT
BRANCH   1   4
ATOM      4  C   UNL     1      -3.219   2.634  -0.335  0.00  0.00    +0.140 A 
ATOM      5  C   UNL     1      -2.800   2.569   0.988  0.00  0.00    +0.053 A 
ATOM      6  C   UNL     1      -1.966   3.555   1.498  0.00  0.00    +0.040 A 
ATOM      7  C   UNL     1      -1.554   4.597   0.689  0.00  0.00    +0.021 A 
ATOM      8  C   UNL     1      -1.973   4.659  -0.628  0.00  0.00    +0.032 A 
ATOM      9  C   UNL     1      -2.800   3.675  -1.141  0.00  0.00    +0.047 A 
ATOM     10 BR   UNL     1      -3.363   3.760  -2.944  0.00  0.00    -0.048 Br
ATOM     11 BR   UNL     1      -0.417   5.940   1.383  0.00  0.00    -0.050 Br
BRANCH   5  12
ATOM     12  N   UNL     1      -3.218   1.515   1.804  0.00  0.00    -0.356 N 
ATOM     13  H   UNL     1      -3.468   0.666   1.408  0.00  0.00    +0.142 HD
ATOM     14  H   UNL     1      -3.259   1.633   2.765  0.00  0.00    +0.142 HD
ENDBRANCH   5  12
ENDBRANCH   1   4
BRANCH   1  15
ATOM     15  N   UNL     1      -3.312   0.264  -1.730  0.00  0.00    -0.187 NA
ATOM     16  H   UNL     1      -3.364   0.139  -2.691  0.00  0.00    +0.148 HD
BRANCH  15  17
ATOM     17  C   UNL     1      -2.378  -0.540  -0.937  0.00  0.00    +0.079 C 
BRANCH  17  18
ATOM     18  C   UNL     1      -2.785  -2.013  -1.008  0.00  0.00    +0.001 C 
ATOM     19  C   UNL     1      -4.145  -2.200  -0.332  0.00  0.00    +0.009 C 
ATOM     20  C   UNL     1      -2.881  -2.445  -2.473  0.00  0.00    +0.009 C 
ENDBRANCH  17  18
BRANCH  17  22
ATOM     21  C   UNL     1      -0.508   1.074  -1.308  0.00  0.00    +0.005 C 
ATOM     22  C   UNL     1      -0.963  -0.375  -1.493  0.00  0.00    +0.017 C 
ENDBRANCH  17  22
ENDBRANCH  15  17
ENDBRANCH   1  15
TORSDOF 6
