REMARK  Name = ZINC07036630
REMARK  7 active torsions:
REMARK  status: ('A' for Active; 'I' for Inactive)
REMARK    1  A    between atoms: C_1  and  C_2
REMARK    2  A    between atoms: C_2  and  C_9
REMARK    3  A    between atoms: C_9  and  C_10
REMARK    4  A    between atoms: C_10  and  C_11
REMARK    5  A    between atoms: C_14  and  O_17
REMARK    6  A    between atoms: O_17  and  C_18
REMARK    7  A    between atoms: C_18  and  C_20
REMARK                            x       y       z     vdW  Elec       q    Type
REMARK                         _______ _______ _______ _____ _____    ______ ____
ROOT
ATOM      1  C   UNL     1      -6.935  -0.858   0.131  0.00  0.00    -0.047 A 
ATOM      2  C   UNL     1      -7.124   0.510   0.067  0.00  0.00    +0.007 A 
ATOM      3  C   UNL     1      -6.035   1.359   0.033  0.00  0.00    +0.046 A 
ATOM      4  C   UNL     1      -4.749   0.837   0.062  0.00  0.00    +0.132 A 
ATOM      5  C   UNL     1      -4.562  -0.537   0.121  0.00  0.00    +0.046 A 
ATOM      6  C   UNL     1      -5.655  -1.381   0.161  0.00  0.00    +0.007 A 
ENDROOT
BRANCH   1   7
ATOM      7  C   UNL     1      -8.125  -1.782   0.169  0.00  0.00    +0.038 C 
BRANCH   7   8
ATOM      8  C   UNL     1      -8.522  -2.161  -1.259  0.00  0.00    +0.039 C 
BRANCH   8  10
ATOM      9  C   UNL     1     -10.913  -2.421  -0.525  0.00  0.00    +0.041 C 
ATOM     10  C   UNL     1      -9.730  -3.098  -1.220  0.00  0.00    +0.110 C 
ATOM     11  C   UNL     1      -9.376  -4.398  -0.525  0.00  0.00    +0.244 C 
ATOM     12  O   UNL     1      -9.009  -4.538   0.622  0.00  0.00    -0.273 OA
ATOM     13  N   UNL     1      -9.552  -5.364  -1.453  0.00  0.00    -0.238 N 
ATOM     14  C   UNL     1      -9.967  -4.858  -2.621  0.00  0.00    +0.307 C 
ATOM     15  O   UNL     1     -10.196  -5.532  -3.606  0.00  0.00    -0.252 OA
ATOM     16  N   UNL     1     -10.103  -3.520  -2.582  0.00  0.00    -0.285 N 
ATOM     17  H   UNL     1      -9.398  -6.308  -1.292  0.00  0.00    +0.159 HD
ATOM     18  H   UNL     1     -10.390  -2.946  -3.309  0.00  0.00    +0.151 HD
ENDBRANCH   8  10
ENDBRANCH   7   8
ENDBRANCH   1   7
BRANCH   4  19
ATOM     19  O   UNL     1      -3.676   1.670   0.028  0.00  0.00    -0.422 OA
BRANCH  19  20
ATOM     20  C   UNL     1      -3.362   2.311   1.171  0.00  0.00    +0.344 C 
ATOM     21  O   UNL     1      -4.080   2.201   2.145  0.00  0.00    -0.245 OA
BRANCH  20  22
ATOM     22  C   UNL     1      -2.146   3.147   1.239  0.00  0.00    +0.061 A 
ATOM     23  C   UNL     1      -1.819   3.812   2.422  0.00  0.00    +0.015 A 
ATOM     24  C   UNL     1      -0.679   4.586   2.482  0.00  0.00    +0.002 A 
ATOM     25  C   UNL     1       0.137   4.709   1.371  0.00  0.00    +0.020 A 
ATOM     26  C   UNL     1      -0.184   4.056   0.193  0.00  0.00    +0.042 A 
ATOM     27  C   UNL     1      -1.322   3.278   0.120  0.00  0.00    +0.035 A 
ATOM     28 CL   UNL     1       0.847   4.216  -1.195  0.00  0.00    -0.084 Cl
ENDBRANCH  20  22
ENDBRANCH  19  20
ENDBRANCH   4  19
TORSDOF 6
