REMARK  Name = ZINC01190401
REMARK  6 active torsions:
REMARK  status: ('A' for Active; 'I' for Inactive)
REMARK    1  A    between atoms: C_1  and  C_2
REMARK    2  A    between atoms: C_3  and  C_17
REMARK    3  A    between atoms: C_4  and  C_10
REMARK    4  A    between atoms: C_17  and  O_19
REMARK    5  A    between atoms: O_19  and  C_20
REMARK    6  A    between atoms: C_20  and  C_21
REMARK                            x       y       z     vdW  Elec       q    Type
REMARK                         _______ _______ _______ _____ _____    ______ ____
ROOT
ATOM      1  C   UNL     1      -6.582  -1.195   1.880  0.00  0.00    +0.061 C 
ATOM      2  C   UNL     1      -5.720  -0.831   3.061  0.00  0.00    +0.021 C 
ATOM      3  C   UNL     1      -4.450  -0.419   2.855  0.00  0.00    +0.078 C 
ATOM      4  C   UNL     1      -3.620  -0.058   4.070  0.00  0.00    +0.144 C 
ATOM      5  N   UNL     1      -4.269  -0.193   5.386  0.00  0.00    -0.288 N 
ATOM      6  C   UNL     1      -5.545  -0.624   5.430  0.00  0.00    +0.304 C 
ATOM      7  O   UNL     1      -6.089  -0.739   6.511  0.00  0.00    -0.252 OA
ATOM      8  N   UNL     1      -6.233  -0.930   4.323  0.00  0.00    -0.273 N 
ATOM      9  H   UNL     1      -3.713   0.056   6.301  0.00  0.00    +0.151 HD
ATOM     10  H   UNL     1      -7.266  -1.278   4.471  0.00  0.00    +0.156 HD
ENDROOT
BRANCH   4  11
ATOM     11  C   UNL     1      -3.172   1.373   3.918  0.00  0.00    -0.021 A 
ATOM     12  C   UNL     1      -4.042   2.405   4.217  0.00  0.00    +0.006 A 
ATOM     13  C   UNL     1      -3.630   3.717   4.082  0.00  0.00    +0.002 A 
ATOM     14  C   UNL     1      -2.351   3.999   3.638  0.00  0.00    +0.020 A 
ATOM     15  C   UNL     1      -1.482   2.966   3.333  0.00  0.00    +0.041 A 
ATOM     16  C   UNL     1      -1.894   1.652   3.474  0.00  0.00    +0.025 A 
ATOM     17 CL   UNL     1       0.123   3.318   2.775  0.00  0.00    -0.084 Cl
ENDBRANCH   4  11
BRANCH   3  18
ATOM     18  C   UNL     1      -3.916  -0.323   1.549  0.00  0.00    +0.339 C 
ATOM     19  O   UNL     1      -4.633  -0.504   0.583  0.00  0.00    -0.245 OA
BRANCH  18  20
ATOM     20  O   UNL     1      -2.610  -0.029   1.375  0.00  0.00    -0.457 OA
BRANCH  20  21
ATOM     21  C   UNL     1      -2.138   0.052   0.028  0.00  0.00    +0.268 C 
BRANCH  21  22
ATOM     22  C   UNL     1      -0.669   0.387   0.031  0.00  0.00    -0.010 A 
ATOM     23  C   UNL     1       0.271  -0.627   0.054  0.00  0.00    +0.007 A 
ATOM     24  C   UNL     1       1.619  -0.321   0.051  0.00  0.00    +0.000 A 
ATOM     25  C   UNL     1       2.027   1.000   0.029  0.00  0.00    +0.000 A 
ATOM     26  C   UNL     1       1.088   2.014   0.012  0.00  0.00    +0.000 A 
ATOM     27  C   UNL     1      -0.260   1.707   0.015  0.00  0.00    +0.007 A 
ENDBRANCH  21  22
ENDBRANCH  20  21
ENDBRANCH  18  20
ENDBRANCH   3  18
TORSDOF 5
