REMARK  Name = ZINC23690913
REMARK  6 active torsions:
REMARK  status: ('A' for Active; 'I' for Inactive)
REMARK    1  A    between atoms: C_1  and  C_2
REMARK    2  A    between atoms: C_2  and  C_3
REMARK    3  A    between atoms: C_3  and  C_4
REMARK    4  A    between atoms: C_5  and  C_6
REMARK    5  A    between atoms: C_8  and  C_11
REMARK    6  A    between atoms: C_11  and  O_12
REMARK                            x       y       z     vdW  Elec       q    Type
REMARK                         _______ _______ _______ _____ _____    ______ ____
ROOT
ATOM      1  C   UNL     1       0.774  -4.615  -1.279  0.00  0.00    +0.224 C 
ATOM      2  C   UNL     1       2.131  -5.310  -1.154  0.00  0.00    +0.186 C 
ATOM      3  O   UNL     1       1.405  -5.266  -2.384  0.00  0.00    -0.352 OA
ENDROOT
BRANCH   1   5
ATOM      4  C   UNL     1       0.738  -1.969  -1.265  0.00  0.00    -0.100 C 
ATOM      5  C   UNL     1       0.754  -3.143  -1.271  0.00  0.00    -0.068 C 
BRANCH   4   6
ATOM      6  C   UNL     1       0.718  -0.497  -1.257  0.00  0.00    +0.088 C 
BRANCH   6   8
ATOM      7  C   UNL     1      -0.019   1.526   0.010  0.00  0.00    +0.005 C 
ATOM      8  C   UNL     1       0.002  -0.004   0.002  0.00  0.00    +0.009 C 
ENDBRANCH   6   8
ENDBRANCH   4   6
ENDBRANCH   1   5
BRANCH   2   9
ATOM      9  C   UNL     1       2.183  -6.643  -0.404  0.00  0.00    +0.191 C 
BRANCH   9  10
ATOM     10  O   UNL     1       3.541  -7.074  -0.292  0.00  0.00    -0.392 OA
ATOM     11  H   UNL     1       3.778  -8.018   0.220  0.00  0.00    +0.210 HD
ENDBRANCH   9  10
ENDBRANCH   2   9
TORSDOF 5
