REMARK  Name = ZINC32074883
REMARK  6 active torsions:
REMARK  status: ('A' for Active; 'I' for Inactive)
REMARK    1  A    between atoms: C_1  and  C_2
REMARK    2  A    between atoms: C_5  and  S_16
REMARK    3  A    between atoms: N_6  and  C_7
REMARK    4  A    between atoms: C_12  and  O_13
REMARK    5  A    between atoms: O_13  and  C_14
REMARK    6  A    between atoms: S_16  and  C_17
REMARK                            x       y       z     vdW  Elec       q    Type
REMARK                         _______ _______ _______ _____ _____    ______ ____
ROOT
ATOM      1  C   UNL     1      -0.018   1.503   0.010  0.00  0.00    +0.088 C 
ATOM      2  C   UNL     1       0.002  -0.004   0.002  0.00  0.00    +0.136 A 
ATOM      3  N   UNL     1       0.008  -0.771  -1.052  0.00  0.00    -0.133 NA
ATOM      4  N   UNL     1       0.026  -2.007  -0.700  0.00  0.00    -0.122 NA
ATOM      5  C   UNL     1       0.033  -2.098   0.610  0.00  0.00    +0.197 A 
ATOM      6  N   UNL     1       0.024  -0.822   1.100  0.00  0.00    -0.271 N 
ENDROOT
BRANCH   6   7
ATOM      7  C   UNL     1       0.031  -0.431   2.449  0.00  0.00    +0.093 A 
ATOM      8  C   UNL     1      -1.165  -0.260   3.130  0.00  0.00    +0.050 A 
ATOM      9  C   UNL     1      -1.155   0.125   4.458  0.00  0.00    +0.043 A 
ATOM     10  C   UNL     1       0.046   0.340   5.110  0.00  0.00    +0.024 A 
ATOM     11  C   UNL     1       1.242   0.171   4.437  0.00  0.00    +0.049 A 
ATOM     12  C   UNL     1       1.240  -0.220   3.107  0.00  0.00    +0.144 A 
ATOM     13 CL   UNL     1      -2.653   0.339   5.309  0.00  0.00    -0.083 Cl
BRANCH  12  14
ATOM     14  O   UNL     1       2.415  -0.391   2.446  0.00  0.00    -0.493 OA
ATOM     15  C   UNL     1       3.616  -0.157   3.185  0.00  0.00    +0.277 C 
ENDBRANCH  12  14
ENDBRANCH   6   7
BRANCH   5  16
ATOM     16  S   UNL     1       0.057  -3.584   1.557  0.00  0.00    -0.073 S 
BRANCH  16  17
ATOM     17  C   UNL     1       0.071  -4.900   0.308  0.00  0.00    +0.141 C 
ATOM     18  C   UNL     1      -0.062  -6.235   0.999  0.00  0.00    +0.028 C 
ATOM     19  C   UNL     1      -0.394  -7.359   0.068  0.00  0.00    +0.038 C 
ATOM     20  C   UNL     1       0.742  -7.885  -0.748  0.00  0.00    -0.026 A 
ATOM     21  C   UNL     1       0.726  -9.260  -0.985  0.00  0.00    +0.005 A 
ATOM     22  C   UNL     1       1.718  -9.876  -1.712  0.00  0.00    +0.000 A 
ATOM     23  C   UNL     1       2.758  -9.119  -2.220  0.00  0.00    +0.002 A 
ATOM     24  C   UNL     1       2.782  -7.764  -1.998  0.00  0.00    +0.023 A 
ATOM     25  C   UNL     1       1.769  -7.124  -1.262  0.00  0.00    +0.037 A 
ATOM     26  N   UNL     1       1.913  -5.760  -1.146  0.00  0.00    -0.284 N 
ATOM     27  C   UNL     1       1.328  -4.807  -0.479  0.00  0.00    +0.231 C 
ATOM     28  O   UNL     1       1.869  -3.721  -0.506  0.00  0.00    -0.274 OA
ATOM     29  H   UNL     1       2.634  -5.425  -1.701  0.00  0.00    +0.155 HD
ENDBRANCH  16  17
ENDBRANCH   5  16
TORSDOF 4
