REMARK  Name = ZINC59250163
REMARK  4 active torsions:
REMARK  status: ('A' for Active; 'I' for Inactive)
REMARK    1  A    between atoms: C_3  and  N_8
REMARK    2  A    between atoms: C_5  and  O_7
REMARK    3  A    between atoms: C_9  and  C_10
REMARK    4  A    between atoms: N_14  and  C_15
REMARK                            x       y       z     vdW  Elec       q    Type
REMARK                         _______ _______ _______ _____ _____    ______ ____
ROOT
ATOM      1  C   UNL     1       4.923   3.864  -0.827  0.00  0.00    +0.065 A 
ATOM      2  C   UNL     1       6.038   3.599  -0.055  0.00  0.00    +0.029 A 
ATOM      3  C   UNL     1       7.004   4.557  -0.383  0.00  0.00    +0.020 A 
ATOM      4  C   UNL     1       6.478   5.374  -1.326  0.00  0.00    +0.092 A 
ATOM      5  N   UNL     1       5.213   4.961  -1.610  0.00  0.00    -0.315 N 
ENDROOT
BRANCH   5   6
ATOM      6  C   UNL     1       4.349   5.553  -2.540  0.00  0.00    +0.047 A 
ATOM      7  C   UNL     1       3.699   4.768  -3.484  0.00  0.00    +0.027 A 
ATOM      8  C   UNL     1       2.848   5.355  -4.399  0.00  0.00    +0.017 A 
ATOM      9  C   UNL     1       2.642   6.723  -4.377  0.00  0.00    +0.018 A 
ATOM     10  C   UNL     1       3.288   7.507  -3.438  0.00  0.00    +0.017 A 
ATOM     11  C   UNL     1       4.136   6.925  -2.516  0.00  0.00    +0.027 A 
ATOM     12 BR   UNL     1       1.476   7.522  -5.633  0.00  0.00    -0.050 Br
ENDBRANCH   5   6
BRANCH   1  14
ATOM     13  N   UNL     1       3.562   2.111  -0.021  0.00  0.00    -0.253 NA
ATOM     14  C   UNL     1       3.705   3.138  -0.818  0.00  0.00    +0.137 C 
BRANCH  13  17
ATOM     15  C   UNL     1      -0.017   1.379   0.010  0.00  0.00    +0.006 A 
ATOM     16  C   UNL     1       1.166   2.089   0.002  0.00  0.00    +0.028 A 
ATOM     17  C   UNL     1       2.387   1.411  -0.013  0.00  0.00    +0.067 A 
ATOM     18  C   UNL     1       2.404   0.014  -0.021  0.00  0.00    +0.073 A 
ATOM     19  C   UNL     1       1.211  -0.688  -0.013  0.00  0.00    +0.119 A 
ATOM     20  C   UNL     1       0.002  -0.004   0.002  0.00  0.00    +0.045 A 
BRANCH  19  21
ATOM     21  O   UNL     1       1.223  -2.047  -0.021  0.00  0.00    -0.507 OA
ATOM     22  H   UNL     1       1.234  -2.445   0.861  0.00  0.00    +0.292 HD
ENDBRANCH  19  21
ENDBRANCH  13  17
ENDBRANCH   1  14
TORSDOF 4
