REMARK  Name = ZINC40784810
REMARK  5 active torsions:
REMARK  status: ('A' for Active; 'I' for Inactive)
REMARK    1  A    between atoms: C_5  and  C_7
REMARK    2  A    between atoms: N_9  and  N_10
REMARK    3  A    between atoms: C_12  and  N_25
REMARK    4  A    between atoms: C_13  and  O_17
REMARK    5  A    between atoms: O_17  and  C_18
REMARK                            x       y       z     vdW  Elec       q    Type
REMARK                         _______ _______ _______ _____ _____    ______ ____
ROOT
ATOM      1  N   UNL     1       0.133  -4.263   0.055  0.00  0.00    -0.246 N 
ATOM      2  C   UNL     1      -1.059  -4.977   0.062  0.00  0.00    +0.163 A 
ATOM      3  C   UNL     1      -1.050  -6.374   0.019  0.00  0.00    +0.129 A 
ATOM      4  C   UNL     1      -2.274  -7.041   0.028  0.00  0.00    +0.246 A 
ATOM      5  N   UNL     1      -3.396  -6.329   0.076  0.00  0.00    -0.199 NA
ATOM      6  C   UNL     1      -3.362  -5.013   0.115  0.00  0.00    +0.227 A 
ATOM      7  N   UNL     1      -2.227  -4.343   0.114  0.00  0.00    -0.217 NA
ATOM      8  H   UNL     1       0.980  -4.734   0.016  0.00  0.00    +0.172 HD
ENDROOT
BRANCH   1  11
ATOM      9  C   UNL     1       1.267  -2.171   0.097  0.00  0.00    +0.263 C 
ATOM     10  O   UNL     1       2.329  -2.760   0.049  0.00  0.00    -0.269 OA
ATOM     11  N   UNL     1       0.111  -2.863   0.103  0.00  0.00    -0.231 N 
ATOM     12  H   UNL     1      -0.737  -2.393   0.142  0.00  0.00    +0.173 HD
BRANCH   9  17
ATOM     13  C   UNL     1       0.011   1.364   0.250  0.00  0.00    +0.001 A 
ATOM     14  C   UNL     1       1.200   2.075   0.243  0.00  0.00    +0.003 A 
ATOM     15  C   UNL     1       2.410   1.409   0.189  0.00  0.00    +0.039 A 
ATOM     16  C   UNL     1       2.441   0.027   0.141  0.00  0.00    +0.136 A 
ATOM     17  C   UNL     1       1.244  -0.695   0.148  0.00  0.00    +0.073 A 
ATOM     18  C   UNL     1       0.026  -0.013   0.203  0.00  0.00    +0.016 A 
ATOM     19  F   UNL     1       3.624  -0.623   0.088  0.00  0.00    -0.205 F 
ENDBRANCH   9  17
ENDBRANCH   1  11
BRANCH   3  20
ATOM     20  N   UNL     1       0.159  -7.086  -0.031  0.00  0.00    -0.351 N 
ATOM     21  H   UNL     1       1.003  -6.609  -0.037  0.00  0.00    +0.143 HD
ATOM     22  H   UNL     1       0.150  -8.056  -0.060  0.00  0.00    +0.143 HD
ENDBRANCH   3  20
BRANCH   4  23
ATOM     23  O   UNL     1      -2.319  -8.396  -0.012  0.00  0.00    -0.436 OA
BRANCH  23  24
ATOM     24  C   UNL     1      -3.533  -8.998   0.101  0.00  0.00    +0.130 A 
ATOM     25  C   UNL     1      -4.398  -9.026  -0.984  0.00  0.00    +0.047 A 
ATOM     26  C   UNL     1      -5.631  -9.637  -0.868  0.00  0.00    +0.019 A 
ATOM     27  C   UNL     1      -6.004 -10.221   0.329  0.00  0.00    +0.018 A 
ATOM     28  C   UNL     1      -5.144 -10.194   1.412  0.00  0.00    +0.019 A 
ATOM     29  C   UNL     1      -3.907  -9.589   1.299  0.00  0.00    +0.047 A 
ATOM     30 BR   UNL     1      -7.693 -11.058   0.486  0.00  0.00    -0.050 Br
ENDBRANCH  23  24
ENDBRANCH   4  23
TORSDOF 5
