REMARK  Name = ZINC14981554
REMARK  11 active torsions:
REMARK  status: ('A' for Active; 'I' for Inactive)
REMARK    1  A    between atoms: C_1  and  C_2
REMARK    2  A    between atoms: C_6  and  C_7
REMARK    3  A    between atoms: C_12  and  C_15
REMARK    4  A    between atoms: C_15  and  C_26
REMARK    5  A    between atoms: N_18  and  C_22
REMARK    6  A    between atoms: C_22  and  C_23
REMARK    7  A    between atoms: C_23  and  N_68
REMARK    8  A    between atoms: C_24  and  N_68
REMARK    9  A    between atoms: C_25  and  N_68
REMARK   10  A    between atoms: C_26  and  C_27
REMARK   11  A    between atoms: C_27  and  C_28
REMARK                            x       y       z     vdW  Elec       q    Type
REMARK                         _______ _______ _______ _____ _____    ______ ____
ROOT
ATOM      1  C   UNL     1       0.970  -1.846   1.073  0.00  0.00    +0.116 C 
ATOM      2  C   UNL     1       2.417  -1.396   1.040  0.00  0.00    +0.247 C 
ATOM      3  O   UNL     1       2.916  -0.488   1.669  0.00  0.00    -0.273 OA
ATOM      4  N   UNL     1       3.034  -2.217   0.166  0.00  0.00    -0.226 N 
ATOM      5  C   UNL     1       2.186  -3.113  -0.352  0.00  0.00    +0.309 C 
ATOM      6  O   UNL     1       2.510  -3.959  -1.163  0.00  0.00    -0.252 OA
ATOM      7  N   UNL     1       0.936  -2.974   0.125  0.00  0.00    -0.285 N 
ATOM      8  H   UNL     1       0.163  -3.511  -0.109  0.00  0.00    +0.151 HD
ENDROOT
BRANCH   1  14
ATOM      9  C   UNL     1      -2.747   0.505  -2.148  0.00  0.00    +0.253 C 
ATOM     10  O   UNL     1      -2.387   0.988  -3.206  0.00  0.00    -0.269 OA
ATOM     11  N   UNL     1      -1.886   0.428  -1.115  0.00  0.00    -0.297 N 
ATOM     12  C   UNL     1      -0.484   0.836  -1.276  0.00  0.00    +0.108 C 
ATOM     13  C   UNL     1       0.421  -0.314  -0.822  0.00  0.00    +0.025 C 
ATOM     14  C   UNL     1       0.046  -0.721   0.605  0.00  0.00    +0.024 C 
ATOM     15  C   UNL     1      -1.406  -1.207   0.633  0.00  0.00    +0.025 C 
ATOM     16  C   UNL     1      -2.331  -0.067   0.196  0.00  0.00    +0.108 C 
BRANCH   9  22
ATOM     17  C   UNL     1      -4.295  -1.254  -4.178  0.00  0.00    +0.045 C 
ATOM     18  C   UNL     1      -4.862  -0.778  -2.865  0.00  0.00    -0.031 A 
ATOM     19  C   UNL     1      -6.135  -1.107  -2.473  0.00  0.00    +0.011 A 
ATOM     20  C   UNL     1      -6.603  -0.647  -1.283  0.00  0.00    +0.046 A 
ATOM     21  S   UNL     1      -5.267   0.264  -0.658  0.00  0.00    -0.092 S 
ATOM     22  C   UNL     1      -4.118   0.008  -1.999  0.00  0.00    +0.077 A 
ENDBRANCH   9  22
ENDBRANCH   1  14
BRANCH   4  23
ATOM     23  C   UNL     1       4.456  -2.136  -0.175  0.00  0.00    +0.099 C 
BRANCH  23  24
ATOM     24  C   UNL     1       5.261  -3.020   0.780  0.00  0.00    -0.060 C 
BRANCH  24  27
ATOM     25  C   UNL     1       7.212  -1.590   0.685  0.00  0.00    -0.097 C 
ATOM     26  C   UNL     1       7.462  -3.948   1.172  0.00  0.00    -0.097 C 
ATOM     27  N   UNL     1       6.690  -2.945   0.410  0.00  0.00    +0.377 N 
ATOM     28  H   UNL     1       6.785  -3.142  -0.593  0.00  0.00    -0.083 HD
ENDBRANCH  24  27
ENDBRANCH  23  24
ENDBRANCH   4  23
BRANCH   1  29
ATOM     29  C   UNL     1       0.583  -2.309   2.479  0.00  0.00    +0.040 C 
BRANCH  29  30
ATOM     30  C   UNL     1       1.521  -3.433   2.923  0.00  0.00    +0.038 C 
BRANCH  30  31
ATOM     31  C   UNL     1       1.139  -3.889   4.308  0.00  0.00    -0.047 A 
ATOM     32  C   UNL     1       1.714  -3.292   5.415  0.00  0.00    +0.003 A 
ATOM     33  C   UNL     1       1.361  -3.707   6.685  0.00  0.00    +0.000 A 
ATOM     34  C   UNL     1       0.440  -4.725   6.848  0.00  0.00    +0.000 A 
ATOM     35  C   UNL     1      -0.132  -5.324   5.741  0.00  0.00    +0.000 A 
ATOM     36  C   UNL     1       0.219  -4.907   4.471  0.00  0.00    +0.003 A 
ENDBRANCH  30  31
ENDBRANCH  29  30
ENDBRANCH   1  29
TORSDOF 8
