REMARK  Name = ZINC63393906
REMARK  10 active torsions:
REMARK  status: ('A' for Active; 'I' for Inactive)
REMARK    1  A    between atoms: C_1  and  O_2
REMARK    2  A    between atoms: O_2  and  C_3
REMARK    3  A    between atoms: C_5  and  C_10
REMARK    4  A    between atoms: C_8  and  O_9
REMARK    5  A    between atoms: C_11  and  C_12
REMARK    6  A    between atoms: C_11  and  C_14
REMARK    7  A    between atoms: C_16  and  C_19
REMARK    8  A    between atoms: C_19  and  S_20
REMARK    9  A    between atoms: S_20  and  C_21
REMARK   10  A    between atoms: C_27  and  N_31
REMARK                            x       y       z     vdW  Elec       q    Type
REMARK                         _______ _______ _______ _____ _____    ______ ____
ROOT
ATOM      1  C   UNL     1       3.783   0.548  -6.231  0.00  0.00    +0.119 A 
ATOM      2  N   UNL     1       4.499   0.160  -7.279  0.00  0.00    -0.242 NA
ATOM      3  C   UNL     1       5.055   1.033  -8.085  0.00  0.00    +0.059 A 
ATOM      4  C   UNL     1       4.902   2.364  -7.851  0.00  0.00    +0.071 A 
ATOM      5  S   UNL     1       3.885   2.327  -6.381  0.00  0.00    -0.075 S 
ENDROOT
BRANCH   1   7
ATOM      6  C   UNL     1       2.393   0.340  -4.213  0.00  0.00    +0.029 C 
ATOM      7  C   UNL     1       3.086  -0.268  -5.219  0.00  0.00    +0.084 C 
BRANCH   6  10
ATOM      8  C   UNL     1       0.697  -0.876  -1.099  0.00  0.00    +0.162 A 
ATOM      9  C   UNL     1       1.476  -0.118  -1.949  0.00  0.00    +0.057 A 
ATOM     10  C   UNL     1       1.567  -0.462  -3.304  0.00  0.00    -0.020 A 
ATOM     11  C   UNL     1       0.867  -1.575  -3.788  0.00  0.00    +0.012 A 
ATOM     12  C   UNL     1       0.092  -2.325  -2.931  0.00  0.00    +0.050 A 
ATOM     13  C   UNL     1       0.007  -1.985  -1.587  0.00  0.00    +0.158 A 
BRANCH   8  15
ATOM     14  C   UNL     1       1.339   0.603   0.649  0.00  0.00    +0.277 C 
ATOM     15  O   UNL     1       0.606  -0.545   0.217  0.00  0.00    -0.491 OA
ENDBRANCH   8  15
BRANCH  13  16
ATOM     16  O   UNL     1      -0.755  -2.733  -0.747  0.00  0.00    -0.503 OA
ATOM     17  H   UNL     1      -1.673  -2.437  -0.681  0.00  0.00    +0.292 HD
ENDBRANCH  13  16
ENDBRANCH   6  10
BRANCH   7  18
ATOM     18  C   UNL     1       3.137  -1.697  -5.293  0.00  0.00    +0.102 C 
ATOM     19  N   UNL     1       3.178  -2.830  -5.351  0.00  0.00    -0.191 NA
ENDBRANCH   7  18
ENDBRANCH   1   7
BRANCH   3  20
ATOM     20  C   UNL     1       5.863   0.562  -9.267  0.00  0.00    +0.128 C 
BRANCH  20  21
ATOM     21  S   UNL     1       4.776   0.381 -10.708  0.00  0.00    -0.109 S 
BRANCH  21  22
ATOM     22  C   UNL     1       5.886  -0.184 -12.027  0.00  0.00    +0.236 C 
ATOM     23  N   UNL     1       6.971   0.786 -12.223  0.00  0.00    -0.355 N 
ATOM     24  C   UNL     1       8.093   0.172 -11.982  0.00  0.00    +0.061 A 
ATOM     25  C   UNL     1       9.496   0.607 -12.011  0.00  0.00    +0.029 A 
ATOM     26  C   UNL     1      10.472  -0.273 -11.708  0.00  0.00    +0.035 A 
ATOM     27  C   UNL     1      10.206  -1.609 -11.359  0.00  0.00    +0.128 A 
ATOM     28  C   UNL     1       8.956  -2.111 -11.303  0.00  0.00    +0.060 A 
ATOM     29  C   UNL     1       7.811  -1.242 -11.613  0.00  0.00    +0.063 A 
ATOM     30  N   UNL     1       6.525  -1.448 -11.640  0.00  0.00    -0.355 N 
ATOM     31  H   UNL     1       6.072  -2.283 -11.441  0.00  0.00    +0.162 HD
ATOM     32  H   UNL     1       6.870   1.715 -12.484  0.00  0.00    +0.162 HD
BRANCH  27  33
ATOM     33  N   UNL     1      11.344  -2.501 -11.042  0.00  0.00    +0.056 N 
ATOM     34  O   UNL     1      12.475  -2.076 -11.086  0.00  0.00    -0.126 OA
ATOM     35  O   UNL     1      11.142  -3.654 -10.740  0.00  0.00    -0.126 OA
ENDBRANCH  27  33
ENDBRANCH  21  22
ENDBRANCH  20  21
ENDBRANCH   3  20
TORSDOF 9
