REMARK  Name = ZINC35556904
REMARK  12 active torsions:
REMARK  status: ('A' for Active; 'I' for Inactive)
REMARK    1  A    between atoms: C_1  and  N_2
REMARK    2  A    between atoms: N_2  and  C_3
REMARK    3  A    between atoms: N_2  and  C_4
REMARK    4  A    between atoms: C_4  and  C_5
REMARK    5  A    between atoms: C_5  and  N_6
REMARK    6  A    between atoms: N_6  and  C_7
REMARK    7  A    between atoms: C_7  and  C_8
REMARK    8  A    between atoms: C_14  and  C_16
REMARK    9  A    between atoms: C_16  and  C_17
REMARK   10  A    between atoms: C_17  and  C_19
REMARK   11  A    between atoms: C_17  and  C_29
REMARK   12  A    between atoms: C_24  and  C_25
REMARK                            x       y       z     vdW  Elec       q    Type
REMARK                         _______ _______ _______ _____ _____    ______ ____
ROOT
ATOM      1  C   UNL     1       4.011  -4.021  -1.436  0.00  0.00    +0.060 C 
ENDROOT
BRANCH   1   2
ATOM      2  C   UNL     1       4.035  -4.957  -0.255  0.00  0.00    -0.015 A 
ATOM      3  C   UNL     1       2.969  -5.430   0.410  0.00  0.00    +0.087 A 
ATOM      4  N   UNL     1       3.379  -6.252   1.424  0.00  0.00    -0.360 N 
ATOM      5  H   UNL     1       2.790  -6.712   2.042  0.00  0.00    +0.165 HD
ATOM      6  C   UNL     1       4.754  -6.331   1.435  0.00  0.00    +0.047 A 
ATOM      7  C   UNL     1       5.224  -5.528   0.380  0.00  0.00    +0.003 A 
ATOM      8  C   UNL     1       6.596  -5.421   0.145  0.00  0.00    +0.010 A 
ATOM      9  C   UNL     1       7.476  -6.100   0.940  0.00  0.00    +0.001 A 
ATOM     10  C   UNL     1       7.017  -6.896   1.980  0.00  0.00    +0.002 A 
ATOM     11  C   UNL     1       5.668  -7.009   2.235  0.00  0.00    +0.026 A 
ENDBRANCH   1   2
BRANCH   1  12
ATOM     12  C   UNL     1       3.238  -4.655  -2.564  0.00  0.00    -0.028 A 
ATOM     13  C   UNL     1       1.873  -4.839  -2.449  0.00  0.00    +0.005 A 
ATOM     14  C   UNL     1       1.163  -5.420  -3.483  0.00  0.00    +0.000 A 
ATOM     15  C   UNL     1       1.820  -5.818  -4.633  0.00  0.00    +0.001 A 
ATOM     16  C   UNL     1       3.184  -5.633  -4.749  0.00  0.00    +0.012 A 
ATOM     17  C   UNL     1       3.893  -5.048  -3.716  0.00  0.00    +0.059 A 
BRANCH  17  18
ATOM     18  C   UNL     1       5.380  -4.842  -3.844  0.00  0.00    +0.418 C 
ATOM     19  F   UNL     1       5.834  -5.441  -5.024  0.00  0.00    -0.166 F 
ATOM     20  F   UNL     1       5.660  -3.472  -3.880  0.00  0.00    -0.166 F 
ATOM     21  F   UNL     1       6.028  -5.422  -2.748  0.00  0.00    -0.166 F 
ENDBRANCH  17  18
ENDBRANCH   1  12
BRANCH   1  22
ATOM     22  C   UNL     1       3.339  -2.707  -1.033  0.00  0.00    +0.109 C 
BRANCH  22  24
ATOM     23  N   UNL     1       2.926  -0.484  -2.036  0.00  0.00    -0.299 N 
ATOM     24  C   UNL     1       3.403  -1.736  -2.183  0.00  0.00    +0.217 C 
ATOM     25  O   UNL     1       3.884  -2.081  -3.242  0.00  0.00    -0.276 OA
BRANCH  23  26
ATOM     26  C   UNL     1       2.345  -0.068  -0.757  0.00  0.00    +0.089 C 
BRANCH  26  27
ATOM     27  C   UNL     1       0.844  -0.365  -0.758  0.00  0.00    -0.060 C 
BRANCH  27  29
ATOM     28  C   UNL     1       0.369   1.512   0.659  0.00  0.00    -0.097 C 
ATOM     29  N   UNL     1       0.262   0.053   0.524  0.00  0.00    +0.377 N 
ATOM     30  C   UNL     1      -1.153  -0.341   0.571  0.00  0.00    -0.097 C 
ATOM     31  H   UNL     1       0.760  -0.392   1.281  0.00  0.00    -0.083 HD
ENDBRANCH  27  29
ENDBRANCH  26  27
ENDBRANCH  23  26
BRANCH  23  32
ATOM     32  C   UNL     1       2.988   0.460  -3.154  0.00  0.00    +0.142 C 
BRANCH  32  33
ATOM     33  C   UNL     1       4.289   1.219  -3.099  0.00  0.00    -0.030 A 
ATOM     34  C   UNL     1       4.368   2.403  -2.389  0.00  0.00    +0.005 A 
ATOM     35  C   UNL     1       5.561   3.100  -2.338  0.00  0.00    +0.000 A 
ATOM     36  C   UNL     1       6.675   2.612  -2.996  0.00  0.00    +0.000 A 
ATOM     37  C   UNL     1       6.596   1.428  -3.704  0.00  0.00    +0.000 A 
ATOM     38  C   UNL     1       5.404   0.729  -3.752  0.00  0.00    +0.005 A 
ENDBRANCH  32  33
ENDBRANCH  23  32
ENDBRANCH  22  24
ENDBRANCH   1  22
TORSDOF 10
