REMARK  Name = ZINC35189453
REMARK  12 active torsions:
REMARK  status: ('A' for Active; 'I' for Inactive)
REMARK    1  A    between atoms: C_1  and  C_2
REMARK    2  A    between atoms: C_2  and  C_3
REMARK    3  A    between atoms: C_2  and  N_4
REMARK    4  A    between atoms: N_4  and  C_5
REMARK    5  A    between atoms: C_5  and  C_6
REMARK    6  A    between atoms: N_8  and  C_9
REMARK    7  A    between atoms: N_8  and  C_21
REMARK    8  A    between atoms: C_9  and  C_10
REMARK    9  A    between atoms: C_10  and  C_11
REMARK   10  A    between atoms: C_21  and  C_22
REMARK   11  A    between atoms: C_25  and  C_28
REMARK   12  A    between atoms: C_32  and  C_34
REMARK                            x       y       z     vdW  Elec       q    Type
REMARK                         _______ _______ _______ _____ _____    ______ ____
ROOT
ATOM      1  C   UNL     1      -1.209  -3.037  -1.149  0.00  0.00    +0.233 C 
ATOM      2  O   UNL     1      -0.599  -3.474  -0.196  0.00  0.00    -0.274 OA
ATOM      3  N   UNL     1      -1.584  -3.862  -2.146  0.00  0.00    -0.296 N 
ENDROOT
BRANCH   1   4
ATOM      4  C   UNL     1      -1.547  -1.570  -1.218  0.00  0.00    +0.204 C 
BRANCH   4   5
ATOM      5  N   UNL     1      -0.986  -0.884  -0.052  0.00  0.00    -0.286 N 
ATOM      6  C   UNL     1      -1.692  -0.815   1.094  0.00  0.00    +0.254 C 
ATOM      7  O   UNL     1      -1.270  -0.162   2.030  0.00  0.00    -0.269 OA
BRANCH   6   8
ATOM      8  C   UNL     1      -2.968  -1.527   1.212  0.00  0.00    +0.074 A 
ATOM      9  C   UNL     1      -3.897  -1.490   2.241  0.00  0.00    +0.021 A 
ATOM     10  C   UNL     1      -5.012  -2.275   2.067  0.00  0.00    +0.008 A 
ATOM     11  C   UNL     1      -5.128  -3.013   0.935  0.00  0.00    +0.046 A 
ATOM     12  S   UNL     1      -3.734  -2.659   0.067  0.00  0.00    -0.092 S 
ENDBRANCH   6   8
BRANCH   5  14
ATOM     13  C   UNL     1       0.216   1.245   0.021  0.00  0.00    +0.028 C 
ATOM     14  C   UNL     1       0.343  -0.272  -0.131  0.00  0.00    +0.071 C 
ATOM     15  C   UNL     1       1.226  -0.825   0.989  0.00  0.00    +0.028 C 
ENDBRANCH   5  14
ENDBRANCH   4   5
ENDBRANCH   1   4
BRANCH   3  16
ATOM     16  C   UNL     1      -1.358  -5.305  -2.026  0.00  0.00    +0.113 C 
BRANCH  16  17
ATOM     17  C   UNL     1      -2.575  -5.960  -1.371  0.00  0.00    +0.056 C 
BRANCH  17  18
ATOM     18  C   UNL     1      -2.342  -7.444  -1.248  0.00  0.00    -0.021 A 
ATOM     19  C   UNL     1      -2.740  -8.389  -2.115  0.00  0.00    +0.087 A 
ATOM     20  N   UNL     1      -2.349  -9.623  -1.671  0.00  0.00    -0.360 N 
ATOM     21  H   UNL     1      -2.522 -10.460  -2.129  0.00  0.00    +0.165 HD
ATOM     22  C   UNL     1      -1.673  -9.498  -0.478  0.00  0.00    +0.047 A 
ATOM     23  C   UNL     1      -1.634  -8.127  -0.164  0.00  0.00    +0.003 A 
ATOM     24  C   UNL     1      -0.999  -7.698   1.003  0.00  0.00    +0.010 A 
ATOM     25  C   UNL     1      -0.414  -8.613   1.833  0.00  0.00    +0.001 A 
ATOM     26  C   UNL     1      -0.447  -9.966   1.526  0.00  0.00    +0.002 A 
ATOM     27  C   UNL     1      -1.076 -10.412   0.384  0.00  0.00    +0.026 A 
ENDBRANCH  17  18
ENDBRANCH  16  17
ENDBRANCH   3  16
BRANCH   3  28
ATOM     28  C   UNL     1      -2.218  -3.318  -3.349  0.00  0.00    +0.143 C 
BRANCH  28  29
ATOM     29  C   UNL     1      -1.173  -3.099  -4.412  0.00  0.00    -0.030 A 
ATOM     30  C   UNL     1      -0.582  -1.857  -4.556  0.00  0.00    +0.006 A 
ATOM     31  C   UNL     1       0.377  -1.657  -5.531  0.00  0.00    +0.013 A 
ATOM     32  C   UNL     1       0.745  -2.697  -6.363  0.00  0.00    +0.055 A 
ATOM     33  C   UNL     1       0.155  -3.939  -6.219  0.00  0.00    +0.013 A 
ATOM     34  C   UNL     1      -0.801  -4.141  -5.241  0.00  0.00    +0.006 A 
BRANCH  32  35
ATOM     35  C   UNL     1       1.789  -2.478  -7.427  0.00  0.00    +0.417 C 
ATOM     36  F   UNL     1       3.055  -2.759  -6.902  0.00  0.00    -0.166 F 
ATOM     37  F   UNL     1       1.535  -3.325  -8.511  0.00  0.00    -0.166 F 
ATOM     38  F   UNL     1       1.747  -1.147  -7.855  0.00  0.00    -0.166 F 
ENDBRANCH  32  35
ENDBRANCH  28  29
ENDBRANCH   3  28
TORSDOF 10
