REMARK  Name = ZINC31491250
REMARK  8 active torsions:
REMARK  status: ('A' for Active; 'I' for Inactive)
REMARK    1  A    between atoms: C_1  and  C_2
REMARK    2  A    between atoms: C_7  and  C_13
REMARK    3  A    between atoms: C_8  and  C_12
REMARK    4  A    between atoms: N_15  and  N_16
REMARK    5  A    between atoms: C_17  and  C_19
REMARK    6  A    between atoms: C_19  and  O_20
REMARK    7  A    between atoms: O_20  and  C_21
REMARK    8  A    between atoms: C_26  and  N_27
REMARK                            x       y       z     vdW  Elec       q    Type
REMARK                         _______ _______ _______ _____ _____    ______ ____
ROOT
ATOM      1  C   UNL     1      -4.250   7.307  -0.440  0.00  0.00    +0.262 C 
ATOM      2  O   UNL     1      -3.311   8.079  -0.459  0.00  0.00    -0.269 OA
ATOM      3  N   UNL     1      -4.048   5.993  -0.660  0.00  0.00    -0.230 N 
ATOM      4  H   UNL     1      -4.898   5.295  -0.643  0.00  0.00    +0.173 HD
ENDROOT
BRANCH   1  11
ATOM      5  C   UNL     1     -11.839   9.152   0.791  0.00  0.00    +0.044 C 
ATOM      6  C   UNL     1     -10.474   8.579   0.509  0.00  0.00    -0.048 A 
ATOM      7  C   UNL     1     -10.354   7.236   0.157  0.00  0.00    +0.004 A 
ATOM      8  C   UNL     1      -9.135   6.689  -0.104  0.00  0.00    +0.010 A 
ATOM      9  C   UNL     1      -7.982   7.489  -0.018  0.00  0.00    +0.001 A 
ATOM     10  C   UNL     1      -6.707   6.959  -0.281  0.00  0.00    +0.025 A 
ATOM     11  C   UNL     1      -5.614   7.811  -0.175  0.00  0.00    +0.060 A 
ATOM     12  C   UNL     1      -5.815   9.153   0.191  0.00  0.00    +0.051 A 
ATOM     13  N   UNL     1      -7.012   9.626   0.425  0.00  0.00    -0.251 NA
ATOM     14  C   UNL     1      -8.102   8.855   0.340  0.00  0.00    +0.072 A 
ATOM     15  C   UNL     1      -9.379   9.382   0.602  0.00  0.00    +0.031 A 
ATOM     16  C   UNL     1      -4.625  10.070   0.310  0.00  0.00    +0.066 C 
ENDBRANCH   1  11
BRANCH   3  17
ATOM     17  N   UNL     1      -2.754   5.516  -0.911  0.00  0.00    -0.231 N 
ATOM     18  C   UNL     1      -2.552   4.202  -1.131  0.00  0.00    +0.267 C 
ATOM     19  O   UNL     1      -3.489   3.432  -1.112  0.00  0.00    -0.271 OA
ATOM     20  H   UNL     1      -1.904   6.214  -0.928  0.00  0.00    +0.173 HD
BRANCH  18  21
ATOM     21  C   UNL     1      -1.161   3.688  -1.401  0.00  0.00    +0.326 C 
BRANCH  21  22
ATOM     22  O   UNL     1      -1.206   2.274  -1.601  0.00  0.00    -0.480 OA
BRANCH  22  23
ATOM     23  C   UNL     1      -0.026   1.650  -1.858  0.00  0.00    +0.151 A 
ATOM     24  C   UNL     1       1.149   2.384  -1.921  0.00  0.00    +0.048 A 
ATOM     25  C   UNL     1       2.346   1.748  -2.189  0.00  0.00    +0.004 A 
ATOM     26  C   UNL     1       2.373   0.381  -2.392  0.00  0.00    +0.002 A 
ATOM     27  C   UNL     1       1.203  -0.353  -2.329  0.00  0.00    +0.036 A 
ATOM     28  C   UNL     1       0.004   0.278  -2.062  0.00  0.00    +0.168 A 
BRANCH  28  29
ATOM     29  N   UNL     1      -1.248  -0.508  -1.996  0.00  0.00    +0.060 N 
ATOM     30  O   UNL     1      -1.222  -1.712  -2.175  0.00  0.00    -0.126 OA
ATOM     31  O   UNL     1      -2.306   0.049  -1.761  0.00  0.00    -0.126 OA
ENDBRANCH  28  29
ENDBRANCH  22  23
ENDBRANCH  21  22
ENDBRANCH  18  21
ENDBRANCH   3  17
TORSDOF 6
