REMARK  Name = ZINC20064597
REMARK  5 active torsions:
REMARK  status: ('A' for Active; 'I' for Inactive)
REMARK    1  A    between atoms: C_1  and  N_2
REMARK    2  A    between atoms: C_13  and  C_16
REMARK    3  A    between atoms: C_20  and  O_22
REMARK    4  A    between atoms: O_22  and  C_23
REMARK    5  A    between atoms: C_23  and  C_25
REMARK                            x       y       z     vdW  Elec       q    Type
REMARK                         _______ _______ _______ _____ _____    ______ ____
ROOT
ATOM      1  C   UNL     1       0.628   1.428  -2.439  0.00  0.00    -0.096 C 
ATOM      2  N   UNL     1      -0.206   1.702  -1.261  0.00  0.00    +0.381 N 
ATOM      3  C   UNL     1      -0.488   3.139  -1.139  0.00  0.00    -0.074 C 
ATOM      4  C   UNL     1      -1.640   3.367  -0.156  0.00  0.00    +0.018 C 
ATOM      5  C   UNL     1      -1.317   2.625   1.137  0.00  0.00    -0.027 A 
ATOM      6  C   UNL     1      -0.375   1.653   1.141  0.00  0.00    -0.021 A 
ATOM      7  S   UNL     1      -0.324   1.074   2.814  0.00  0.00    -0.080 S 
ATOM      8  C   UNL     1      -1.522   2.095   3.488  0.00  0.00    +0.080 A 
ATOM      9  C   UNL     1      -1.957   2.887   2.413  0.00  0.00    +0.068 A 
ATOM     10  C   UNL     1      -3.017   3.885   2.685  0.00  0.00    +0.248 C 
ATOM     11  O   UNL     1      -3.534   4.521   1.785  0.00  0.00    -0.270 OA
ATOM     12  N   UNL     1      -3.385   4.061   3.971  0.00  0.00    -0.289 N 
ATOM     13  C   UNL     1      -2.649   3.506   5.103  0.00  0.00    +0.190 C 
ATOM     14  N   UNL     1      -2.031   2.214   4.755  0.00  0.00    -0.316 N 
ATOM     15  C   UNL     1       0.429   1.189  -0.033  0.00  0.00    -0.036 C 
ATOM     16  H   UNL     1      -4.292   4.660   4.145  0.00  0.00    +0.151 HD
ATOM     17  H   UNL     1      -1.995   1.404   5.499  0.00  0.00    +0.149 HD
ATOM     18  H   UNL     1      -1.163   1.178  -1.401  0.00  0.00    -0.082 HD
ENDROOT
BRANCH  13  19
ATOM     19  C   UNL     1      -1.570   4.476   5.511  0.00  0.00    -0.006 A 
ATOM     20  C   UNL     1      -0.412   4.010   6.107  0.00  0.00    +0.007 A 
ATOM     21  C   UNL     1       0.580   4.896   6.483  0.00  0.00    +0.004 A 
ATOM     22  C   UNL     1       0.416   6.250   6.265  0.00  0.00    +0.046 A 
ATOM     23  C   UNL     1      -0.744   6.721   5.668  0.00  0.00    +0.132 A 
ATOM     24  C   UNL     1      -1.736   5.828   5.286  0.00  0.00    +0.053 A 
BRANCH  23  25
ATOM     25  O   UNL     1      -0.907   8.053   5.452  0.00  0.00    -0.422 OA
BRANCH  25  26
ATOM     26  C   UNL     1      -1.842   8.682   6.190  0.00  0.00    +0.344 C 
ATOM     27  O   UNL     1      -2.421   8.084   7.076  0.00  0.00    -0.245 OA
BRANCH  26  28
ATOM     28  C   UNL     1      -2.164  10.098   5.923  0.00  0.00    +0.059 A 
ATOM     29  C   UNL     1      -1.498  10.790   4.910  0.00  0.00    +0.015 A 
ATOM     30  C   UNL     1      -1.808  12.111   4.661  0.00  0.00    +0.001 A 
ATOM     31  C   UNL     1      -2.769  12.754   5.421  0.00  0.00    +0.000 A 
ATOM     32  C   UNL     1      -3.429  12.076   6.431  0.00  0.00    +0.001 A 
ATOM     33  C   UNL     1      -3.133  10.753   6.686  0.00  0.00    +0.015 A 
ENDBRANCH  26  28
ENDBRANCH  25  26
ENDBRANCH  23  25
ENDBRANCH  13  19
TORSDOF 4
