REMARK  Name = ZINC26123499
REMARK  6 active torsions:
REMARK  status: ('A' for Active; 'I' for Inactive)
REMARK    1  A    between atoms: C_10  and  C_11
REMARK    2  A    between atoms: C_11  and  O_12
REMARK    3  A    between atoms: O_12  and  C_13
REMARK    4  A    between atoms: C_18  and  C_19
REMARK    5  A    between atoms: N_20  and  N_21
REMARK    6  A    between atoms: C_22  and  C_24
REMARK                            x       y       z     vdW  Elec       q    Type
REMARK                         _______ _______ _______ _____ _____    ______ ____
ROOT
ATOM      1  C   UNL     1       7.349  -0.245   0.497  0.00  0.00    +0.130 A 
ATOM      2  C   UNL     1       7.516   1.115   0.695  0.00  0.00    +0.048 A 
ATOM      3  C   UNL     1       8.767   1.688   0.557  0.00  0.00    +0.023 A 
ATOM      4  C   UNL     1       9.861   0.908   0.220  0.00  0.00    +0.042 A 
ATOM      5  C   UNL     1       9.711  -0.449   0.018  0.00  0.00    +0.033 A 
ATOM      6  C   UNL     1       8.454  -1.040   0.161  0.00  0.00    +0.038 A 
ATOM      7 CL   UNL     1      11.425   1.640   0.049  0.00  0.00    -0.084 Cl
ENDROOT
BRANCH   6   8
ATOM      8  C   UNL     1       8.288  -2.489  -0.047  0.00  0.00    +0.142 C 
ATOM      9  N   UNL     1       7.109  -3.026   0.034  0.00  0.00    -0.187 NA
BRANCH   9  10
ATOM     10  N   UNL     1       6.969  -4.419  -0.004  0.00  0.00    -0.203 N 
ATOM     11  C   UNL     1       5.742  -4.972  -0.074  0.00  0.00    +0.264 C 
ATOM     12  O   UNL     1       4.764  -4.264  -0.221  0.00  0.00    -0.268 OA
ATOM     13  H   UNL     1       7.755  -4.987   0.021  0.00  0.00    +0.178 HD
BRANCH  11  14
ATOM     14  C   UNL     1       5.585  -6.438   0.026  0.00  0.00    +0.052 A 
ATOM     15  C   UNL     1       6.683  -7.241   0.338  0.00  0.00    +0.014 A 
ATOM     16  C   UNL     1       6.530  -8.608   0.430  0.00  0.00    +0.001 A 
ATOM     17  C   UNL     1       5.290  -9.185   0.213  0.00  0.00    +0.001 A 
ATOM     18  C   UNL     1       4.198  -8.397  -0.097  0.00  0.00    +0.016 A 
ATOM     19  C   UNL     1       4.335  -7.026  -0.186  0.00  0.00    +0.030 A 
ATOM     20 BR   UNL     1       2.839  -5.947  -0.603  0.00  0.00    -0.050 Br
ENDBRANCH  11  14
ENDBRANCH   9  10
ENDBRANCH   6   8
BRANCH   1  21
ATOM     21  O   UNL     1       6.120  -0.808   0.633  0.00  0.00    -0.487 OA
BRANCH  21  22
ATOM     22  C   UNL     1       5.020   0.079   0.843  0.00  0.00    +0.265 C 
BRANCH  22  32
ATOM     23  C   UNL     1       0.121   1.169   1.849  0.00  0.00    +0.001 A 
ATOM     24  C   UNL     1       1.251   1.925   1.541  0.00  0.00    +0.001 A 
ATOM     25  C   UNL     1       2.454   1.329   1.319  0.00  0.00    +0.009 A 
ATOM     26  C   UNL     1       2.562  -0.070   1.400  0.00  0.00    -0.011 A 
ATOM     27  C   UNL     1       1.413  -0.839   1.713  0.00  0.00    -0.018 A 
ATOM     28  C   UNL     1       0.188  -0.187   1.936  0.00  0.00    +0.008 A 
ATOM     29  C   UNL     1       1.522  -2.237   1.795  0.00  0.00    +0.008 A 
ATOM     30  C   UNL     1       2.725  -2.833   1.573  0.00  0.00    +0.001 A 
ATOM     31  C   UNL     1       3.855  -2.077   1.266  0.00  0.00    +0.007 A 
ATOM     32  C   UNL     1       3.787  -0.721   1.178  0.00  0.00    -0.003 A 
ENDBRANCH  22  32
ENDBRANCH  21  22
ENDBRANCH   1  21
TORSDOF 6
