REMARK  Name = ZINC40267401
REMARK  6 active torsions:
REMARK  status: ('A' for Active; 'I' for Inactive)
REMARK    1  A    between atoms: C_1  and  O_2
REMARK    2  A    between atoms: O_2  and  C_3
REMARK    3  A    between atoms: C_6  and  N_11
REMARK    4  A    between atoms: C_7  and  O_9
REMARK    5  A    between atoms: O_9  and  C_10
REMARK    6  A    between atoms: C_20  and  C_22
REMARK                            x       y       z     vdW  Elec       q    Type
REMARK                         _______ _______ _______ _____ _____    ______ ____
ROOT
ATOM      1  N   UNL     1       2.463  -2.452  -4.311  0.00  0.00    -0.283 N 
ATOM      2  C   UNL     1       3.790  -2.395  -4.631  0.00  0.00    +0.206 A 
ATOM      3  N   UNL     1       3.992  -3.098  -5.717  0.00  0.00    -0.238 NA
ATOM      4  C   UNL     1       2.837  -3.619  -6.125  0.00  0.00    +0.089 A 
ATOM      5  C   UNL     1       1.865  -3.228  -5.252  0.00  0.00    +0.133 A 
ATOM      6  N   UNL     1       0.532  -3.614  -5.407  0.00  0.00    -0.270 N 
ATOM      7  C   UNL     1       0.258  -4.611  -6.276  0.00  0.00    +0.219 C 
ATOM      8  O   UNL     1      -0.900  -4.883  -6.512  0.00  0.00    -0.275 OA
ATOM      9  C   UNL     1       1.342  -5.395  -6.958  0.00  0.00    +0.110 C 
ATOM     10  C   UNL     1       2.539  -4.500  -7.311  0.00  0.00    +0.080 C 
ATOM     11  H   UNL     1      -0.176  -3.179  -4.906  0.00  0.00    +0.156 HD
ENDROOT
BRANCH  10  12
ATOM     12  C   UNL     1       2.216  -3.646  -8.509  0.00  0.00    -0.038 A 
ATOM     13  C   UNL     1       1.147  -2.770  -8.465  0.00  0.00    +0.007 A 
ATOM     14  C   UNL     1       0.850  -1.986  -9.564  0.00  0.00    +0.038 A 
ATOM     15  C   UNL     1       1.623  -2.078 -10.709  0.00  0.00    +0.123 A 
ATOM     16  C   UNL     1       2.693  -2.955 -10.752  0.00  0.00    +0.038 A 
ATOM     17  C   UNL     1       2.992  -3.735  -9.650  0.00  0.00    +0.007 A 
ATOM     18  F   UNL     1       1.333  -1.312 -11.783  0.00  0.00    -0.205 F 
ENDBRANCH  10  12
BRANCH   1  22
ATOM     19  C   UNL     1       0.606  -0.607  -1.056  0.00  0.00    +0.124 A 
ATOM     20  C   UNL     1       1.173   0.162  -2.062  0.00  0.00    +0.048 A 
ATOM     21  C   UNL     1       1.787  -0.448  -3.138  0.00  0.00    +0.033 A 
ATOM     22  C   UNL     1       1.839  -1.831  -3.216  0.00  0.00    +0.091 A 
ATOM     23  C   UNL     1       1.271  -2.606  -2.207  0.00  0.00    +0.147 A 
ATOM     24  C   UNL     1       0.660  -1.991  -1.126  0.00  0.00    +0.093 A 
BRANCH  19  26
ATOM     25  C   UNL     1      -0.017   1.425   0.010  0.00  0.00    +0.277 C 
ATOM     26  O   UNL     1       0.002  -0.004   0.002  0.00  0.00    -0.495 OA
ENDBRANCH  19  26
BRANCH  23  27
ATOM     27  O   UNL     1       1.320  -3.962  -2.281  0.00  0.00    -0.493 OA
ATOM     28  C   UNL     1       0.717  -4.692  -1.211  0.00  0.00    +0.277 C 
ENDBRANCH  23  27
ENDBRANCH   1  22
TORSDOF 4
