REMARK  Name = ZINC65501312
REMARK  9 active torsions:
REMARK  status: ('A' for Active; 'I' for Inactive)
REMARK    1  A    between atoms: C_1  and  C_2
REMARK    2  A    between atoms: C_4  and  C_8
REMARK    3  A    between atoms: C_5  and  C_7
REMARK    4  A    between atoms: C_8  and  C_9
REMARK    5  A    between atoms: C_8  and  N_10
REMARK    6  A    between atoms: N_13  and  C_14
REMARK    7  A    between atoms: C_14  and  C_15
REMARK    8  A    between atoms: C_15  and  C_16
REMARK    9  A    between atoms: C_15  and  N_21
REMARK                            x       y       z     vdW  Elec       q    Type
REMARK                         _______ _______ _______ _____ _____    ______ ____
ROOT
ATOM      1  N   UNL     1      -3.145  -2.845  -0.005  0.00  0.00    -0.293 N 
ATOM      2  C   UNL     1      -3.751  -3.842   0.670  0.00  0.00    +0.300 C 
ATOM      3  O   UNL     1      -3.207  -4.924   0.774  0.00  0.00    -0.253 OA
ATOM      4  N   UNL     1      -4.960  -3.640   1.230  0.00  0.00    -0.301 N 
ATOM      5  H   UNL     1      -3.580  -1.982  -0.088  0.00  0.00    +0.151 HD
ATOM      6  H   UNL     1      -5.395  -2.776   1.146  0.00  0.00    +0.150 HD
ENDROOT
BRANCH   1   7
ATOM      7  C   UNL     1      -1.831  -3.066  -0.613  0.00  0.00    +0.105 C 
ATOM      8  C   UNL     1      -2.008  -3.697  -1.995  0.00  0.00    +0.033 C 
BRANCH   7  12
ATOM      9  C   UNL     1      -0.858   1.924  -0.944  0.00  0.00    +0.086 C 
ATOM     10  C   UNL     1      -0.705   0.426  -0.893  0.00  0.00    +0.103 A 
ATOM     11  C   UNL     1      -1.704  -0.463  -0.744  0.00  0.00    +0.050 A 
ATOM     12  C   UNL     1      -1.114  -1.747  -0.750  0.00  0.00    +0.013 A 
ATOM     13  C   UNL     1       0.211  -1.567  -0.902  0.00  0.00    +0.107 A 
ATOM     14  O   UNL     1       0.452  -0.249  -0.994  0.00  0.00    -0.465 OA
ATOM     15  C   UNL     1       1.247  -2.659  -0.964  0.00  0.00    +0.086 C 
ENDBRANCH   7  12
ENDBRANCH   1   7
BRANCH   4  16
ATOM     16  C   UNL     1      -5.619  -4.723   1.963  0.00  0.00    +0.098 C 
BRANCH  16  17
ATOM     17  C   UNL     1      -6.905  -4.197   2.603  0.00  0.00    +0.016 C 
BRANCH  17  18
ATOM     18  N   UNL     1      -6.597  -3.019   3.425  0.00  0.00    +0.387 N 
ATOM     19  C   UNL     1      -5.651  -3.396   4.482  0.00  0.00    -0.078 C 
ATOM     20  C   UNL     1      -5.264  -2.156   5.291  0.00  0.00    -0.019 C 
ATOM     21  C   UNL     1      -6.522  -1.552   5.922  0.00  0.00    -0.004 C 
ATOM     22  C   UNL     1      -7.532  -1.232   4.816  0.00  0.00    -0.019 C 
ATOM     23  C   UNL     1      -7.835  -2.506   4.025  0.00  0.00    -0.078 C 
ATOM     24  H   UNL     1      -6.184  -2.305   2.845  0.00  0.00    -0.081 HD
ENDBRANCH  17  18
BRANCH  17  25
ATOM     25  C   UNL     1      -7.884  -3.814   1.523  0.00  0.00    +0.093 A 
ATOM     26  C   UNL     1      -8.925  -4.557   1.106  0.00  0.00    +0.043 A 
ATOM     27  C   UNL     1      -9.570  -3.820   0.086  0.00  0.00    +0.041 A 
ATOM     28  C   UNL     1      -8.885  -2.672  -0.059  0.00  0.00    +0.195 A 
ATOM     29  O   UNL     1      -7.868  -2.672   0.818  0.00  0.00    -0.469 OA
ENDBRANCH  17  25
ENDBRANCH  16  17
ENDBRANCH   4  16
TORSDOF 6
