REMARK  Name = ZINC05690142
REMARK  6 active torsions:
REMARK  status: ('A' for Active; 'I' for Inactive)
REMARK    1  A    between atoms: C_1  and  C_2
REMARK    2  A    between atoms: C_2  and  C_3
REMARK    3  A    between atoms: C_2  and  C_4
REMARK    4  A    between atoms: C_7  and  N_10
REMARK    5  A    between atoms: C_14  and  C_15
REMARK    6  A    between atoms: C_16  and  C_17
REMARK                            x       y       z     vdW  Elec       q    Type
REMARK                         _______ _______ _______ _____ _____    ______ ____
ROOT
ATOM      1  N   UNL     1      -3.253   8.267  -0.557  0.00  0.00    -0.190 N 
ATOM      2  C   UNL     1      -2.717   7.052  -0.319  0.00  0.00    +0.263 C 
ATOM      3  O   UNL     1      -3.425   6.071  -0.190  0.00  0.00    -0.269 OA
ATOM      4  C   UNL     1      -1.253   6.945  -0.219  0.00  0.00    +0.100 C 
ATOM      5  C   UNL     1      -0.628   5.721   0.027  0.00  0.00    +0.018 C 
ATOM      6  C   UNL     1      -0.477   8.184  -0.382  0.00  0.00    +0.257 C 
ATOM      7  O   UNL     1       0.738   8.175  -0.308  0.00  0.00    -0.270 OA
ATOM      8  N   UNL     1      -1.147   9.330  -0.622  0.00  0.00    -0.235 N 
ATOM      9  C   UNL     1      -2.485   9.356  -0.701  0.00  0.00    +0.320 C 
ATOM     10  O   UNL     1      -3.030  10.421  -0.914  0.00  0.00    -0.251 OA
ATOM     11  H   UNL     1      -0.650  10.155  -0.736  0.00  0.00    +0.159 HD
ENDROOT
BRANCH   1  15
ATOM     12  C   UNL     1      -7.394   8.642  -0.853  0.00  0.00    -0.045 A 
ATOM     13  C   UNL     1      -6.699   9.385   0.084  0.00  0.00    +0.006 A 
ATOM     14  C   UNL     1      -5.327   9.263   0.184  0.00  0.00    +0.024 A 
ATOM     15  C   UNL     1      -4.646   8.393  -0.656  0.00  0.00    +0.046 A 
ATOM     16  C   UNL     1      -5.346   7.652  -1.600  0.00  0.00    +0.024 A 
ATOM     17  C   UNL     1      -6.718   7.775  -1.692  0.00  0.00    +0.006 A 
BRANCH  12  19
ATOM     18  C   UNL     1      -9.261   9.258  -2.364  0.00  0.00    +0.012 C 
ATOM     19  C   UNL     1      -8.891   8.778  -0.959  0.00  0.00    +0.013 C 
ATOM     20  C   UNL     1      -9.546   7.420  -0.695  0.00  0.00    +0.012 C 
ENDBRANCH  12  19
ENDBRANCH   1  15
BRANCH   5  21
ATOM     21  C   UNL     1       0.760   5.626  -0.023  0.00  0.00    +0.004 C 
ATOM     22  C   UNL     1       1.372   4.397   0.100  0.00  0.00    +0.046 C 
BRANCH  22  23
ATOM     23  C   UNL     1       0.597   3.221   0.099  0.00  0.00    +0.128 A 
ATOM     24  C   UNL     1       1.081   1.924   0.127  0.00  0.00    +0.049 A 
ATOM     25  C   UNL     1      -0.038   1.082   0.116  0.00  0.00    +0.042 A 
ATOM     26  C   UNL     1      -1.136   1.874   0.077  0.00  0.00    +0.195 A 
ATOM     27  O   UNL     1      -0.751   3.157   0.073  0.00  0.00    -0.464 OA
ENDBRANCH  22  23
ENDBRANCH   5  21
TORSDOF 4
