REMARK  Name = ZINC50470897
REMARK  8 active torsions:
REMARK  status: ('A' for Active; 'I' for Inactive)
REMARK    1  A    between atoms: C_1  and  C_2
REMARK    2  A    between atoms: C_5  and  C_11
REMARK    3  A    between atoms: C_6  and  C_10
REMARK    4  A    between atoms: C_7  and  O_8
REMARK    5  A    between atoms: O_8  and  C_9
REMARK    6  A    between atoms: C_11  and  O_12
REMARK    7  A    between atoms: O_12  and  C_13
REMARK    8  A    between atoms: C_16  and  N_20
REMARK                            x       y       z     vdW  Elec       q    Type
REMARK                         _______ _______ _______ _____ _____    ______ ____
ROOT
ATOM      1  C   UNL     1       0.060  -4.231  -0.172  0.00  0.00    +0.284 C 
ENDROOT
BRANCH   1   6
ATOM      2  C   UNL     1      -0.018   1.503   0.010  0.00  0.00    +0.049 C 
ATOM      3  C   UNL     1       0.002  -0.004   0.002  0.00  0.00    +0.010 A 
ATOM      4  C   UNL     1       0.006  -0.697  -1.191  0.00  0.00    +0.118 A 
ATOM      5  N   UNL     1       0.024  -2.016  -1.207  0.00  0.00    -0.256 NA
ATOM      6  C   UNL     1       0.040  -2.726  -0.095  0.00  0.00    +0.085 A 
ATOM      7  C   UNL     1       0.037  -2.108   1.139  0.00  0.00    +0.016 A 
ATOM      8  C   UNL     1       0.023  -0.716   1.198  0.00  0.00    +0.129 A 
ATOM      9  C   UNL     1       0.054  -2.926   2.404  0.00  0.00    +0.049 C 
BRANCH   8  10
ATOM     10  O   UNL     1       0.025  -0.071   2.393  0.00  0.00    -0.494 OA
ATOM     11  C   UNL     1      -1.247   0.220   2.975  0.00  0.00    +0.277 C 
ENDBRANCH   8  10
ENDBRANCH   1   6
BRANCH   1  12
ATOM     12  O   UNL     1       1.413  -4.688  -0.204  0.00  0.00    -0.486 OA
BRANCH  12  13
ATOM     13  C   UNL     1       1.609  -6.032  -0.274  0.00  0.00    +0.123 A 
ATOM     14  C   UNL     1       0.520  -6.890  -0.318  0.00  0.00    +0.047 A 
ATOM     15  C   UNL     1       0.718  -8.255  -0.390  0.00  0.00    +0.028 A 
ATOM     16  C   UNL     1       2.007  -8.769  -0.418  0.00  0.00    +0.043 A 
ATOM     17  C   UNL     1       3.098  -7.910  -0.374  0.00  0.00    +0.065 A 
ATOM     18  C   UNL     1       2.898  -6.544  -0.308  0.00  0.00    +0.067 A 
ATOM     19 CL   UNL     1       4.711  -8.550  -0.408  0.00  0.00    -0.082 Cl
BRANCH  16  20
ATOM     20  N   UNL     1       2.208 -10.153  -0.490  0.00  0.00    -0.357 N 
ATOM     21  H   UNL     1       1.447 -10.753  -0.520  0.00  0.00    +0.142 HD
ATOM     22  H   UNL     1       3.110 -10.512  -0.509  0.00  0.00    +0.142 HD
ENDBRANCH  16  20
ENDBRANCH  12  13
ENDBRANCH   1  12
TORSDOF 5
