REMARK  Name = ZINC22762545
REMARK  10 active torsions:
REMARK  status: ('A' for Active; 'I' for Inactive)
REMARK    1  A    between atoms: C_1  and  C_2
REMARK    2  A    between atoms: C_5  and  N_9
REMARK    3  A    between atoms: C_6  and  C_8
REMARK    4  A    between atoms: C_13  and  C_15
REMARK    5  A    between atoms: C_15  and  C_17
REMARK    6  A    between atoms: C_15  and  S_18
REMARK    7  A    between atoms: S_18  and  C_19
REMARK    8  A    between atoms: C_22  and  C_27
REMARK    9  A    between atoms: N_23  and  C_24
REMARK   10  A    between atoms: C_27  and  C_28
REMARK                            x       y       z     vdW  Elec       q    Type
REMARK                         _______ _______ _______ _____ _____    ______ ____
ROOT
ATOM      1  C   UNL     1      -5.971   2.160  -0.568  0.00  0.00    +0.137 C 
ATOM      2  C   UNL     1      -6.345   2.585   0.854  0.00  0.00    +0.029 C 
ENDROOT
BRANCH   1   7
ATOM      3  N   UNL     1      -1.166   2.211  -0.415  0.00  0.00    -0.269 N 
ATOM      4  C   UNL     1      -2.313   1.506  -0.470  0.00  0.00    +0.310 C 
ATOM      5  O   UNL     1      -2.279   0.292  -0.501  0.00  0.00    -0.252 OA
ATOM      6  N   UNL     1      -3.498   2.148  -0.490  0.00  0.00    -0.239 N 
ATOM      7  C   UNL     1      -4.646   1.443  -0.545  0.00  0.00    +0.234 C 
ATOM      8  O   UNL     1      -4.612   0.231  -0.576  0.00  0.00    -0.274 OA
ATOM      9  H   UNL     1      -1.198   3.305  -0.308  0.00  0.00    +0.156 HD
ATOM     10  H   UNL     1      -3.529   3.247  -0.462  0.00  0.00    +0.159 HD
BRANCH   3  15
ATOM     11  C   UNL     1       3.821  -0.473  -0.752  0.00  0.00    +0.044 C 
ATOM     12  C   UNL     1       2.497   0.241  -0.661  0.00  0.00    -0.050 A 
ATOM     13  C   UNL     1       1.428  -0.365  -0.025  0.00  0.00    +0.005 A 
ATOM     14  C   UNL     1       0.214   0.286   0.060  0.00  0.00    +0.024 A 
ATOM     15  C   UNL     1       0.065   1.551  -0.494  0.00  0.00    +0.038 A 
ATOM     16  C   UNL     1       1.140   2.157  -1.131  0.00  0.00    -0.029 A 
ATOM     17  C   UNL     1       2.352   1.500  -1.214  0.00  0.00    +0.008 A 
ATOM     18  C   UNL     1       0.983   3.529  -1.734  0.00  0.00    +0.045 C 
ENDBRANCH   3  15
ENDBRANCH   1   7
BRANCH   1  19
ATOM     19  S   UNL     1      -7.245   1.054  -1.222  0.00  0.00    -0.074 S 
BRANCH  19  20
ATOM     20  C   UNL     1      -8.613   2.163  -1.279  0.00  0.00    +0.193 A 
ATOM     21  N   UNL     1      -8.609   3.426  -0.923  0.00  0.00    -0.122 NA
ATOM     22  N   UNL     1      -9.778   3.932  -1.096  0.00  0.00    -0.133 NA
ATOM     23  C   UNL     1     -10.591   3.030  -1.568  0.00  0.00    +0.139 A 
ATOM     24  N   UNL     1      -9.877   1.872  -1.707  0.00  0.00    -0.303 N 
BRANCH  24  25
ATOM     25  C   UNL     1     -10.367   0.585  -2.208  0.00  0.00    +0.091 C 
ATOM     26  C   UNL     1      -9.525  -0.657  -1.906  0.00  0.00    +0.027 C 
ATOM     27  C   UNL     1      -9.569  -0.088  -3.327  0.00  0.00    +0.027 C 
ENDBRANCH  24  25
BRANCH  23  28
ATOM     28  C   UNL     1     -12.046   3.227  -1.904  0.00  0.00    +0.118 C 
BRANCH  28  29
ATOM     29  C   UNL     1     -12.175   3.665  -3.341  0.00  0.00    -0.003 A 
ATOM     30  C   UNL     1     -12.315   2.906  -4.455  0.00  0.00    +0.011 A 
ATOM     31  C   UNL     1     -12.417   3.531  -5.683  0.00  0.00    +0.008 A 
ATOM     32  C   UNL     1     -12.374   4.885  -5.737  0.00  0.00    +0.045 A 
ATOM     33  S   UNL     1     -12.191   5.318  -4.015  0.00  0.00    -0.101 S 
ENDBRANCH  28  29
ENDBRANCH  23  28
ENDBRANCH  19  20
ENDBRANCH   1  19
TORSDOF 7
