REMARK  Name = ZINC15771613
REMARK  8 active torsions:
REMARK  status: ('A' for Active; 'I' for Inactive)
REMARK    1  A    between atoms: C_1  and  C_2
REMARK    2  A    between atoms: C_5  and  C_8
REMARK    3  A    between atoms: C_8  and  C_10
REMARK    4  A    between atoms: C_8  and  O_40
REMARK    5  A    between atoms: C_10  and  C_11
REMARK    6  A    between atoms: C_10  and  N_18
REMARK    7  A    between atoms: C_10  and  N_31
REMARK    8  A    between atoms: C_11  and  C_12
REMARK                            x       y       z     vdW  Elec       q    Type
REMARK                         _______ _______ _______ _____ _____    ______ ____
ROOT
ATOM      1  C   UNL     1       2.812   3.892  -1.164  0.00  0.00    +0.175 C 
ENDROOT
BRANCH   1   2
ATOM      2  N   UNL     1       1.874   4.835  -1.777  0.00  0.00    -0.312 N 
ATOM      3  C   UNL     1       1.707   5.011  -3.139  0.00  0.00    +0.052 A 
ATOM      4  C   UNL     1       2.310   4.414  -4.242  0.00  0.00    +0.026 A 
ATOM      5  C   UNL     1       1.943   4.789  -5.517  0.00  0.00    +0.002 A 
ATOM      6  C   UNL     1       0.975   5.761  -5.714  0.00  0.00    +0.001 A 
ATOM      7  C   UNL     1       0.361   6.359  -4.635  0.00  0.00    +0.010 A 
ATOM      8  C   UNL     1       0.725   5.992  -3.341  0.00  0.00    +0.008 A 
ATOM      9  C   UNL     1       0.289   6.430  -2.002  0.00  0.00    +0.008 A 
ATOM     10  C   UNL     1       1.032   5.681  -1.078  0.00  0.00    +0.052 A 
ATOM     11  C   UNL     1       0.829   5.885   0.284  0.00  0.00    +0.026 A 
ATOM     12  C   UNL     1      -0.096   6.814   0.712  0.00  0.00    +0.002 A 
ATOM     13  C   UNL     1      -0.829   7.553  -0.204  0.00  0.00    +0.001 A 
ATOM     14  C   UNL     1      -0.641   7.365  -1.556  0.00  0.00    +0.010 A 
ENDBRANCH   1   2
BRANCH   1  15
ATOM     15  N   UNL     1       3.170   2.857  -2.136  0.00  0.00    -0.215 N 
ATOM     16  C   UNL     1       4.373   2.197  -2.231  0.00  0.00    +0.092 A 
ATOM     17  C   UNL     1       5.566   2.257  -1.520  0.00  0.00    +0.030 A 
ATOM     18  C   UNL     1       6.609   1.446  -1.872  0.00  0.00    +0.002 A 
ATOM     19  C   UNL     1       6.487   0.560  -2.935  0.00  0.00    +0.002 A 
ATOM     20  C   UNL     1       5.324   0.476  -3.643  0.00  0.00    +0.032 A 
ATOM     21  C   UNL     1       4.242   1.300  -3.306  0.00  0.00    +0.113 A 
ATOM     22  N   UNL     1       3.003   1.451  -3.815  0.00  0.00    -0.129 NA
ATOM     23  N   UNL     1       2.355   2.347  -3.158  0.00  0.00    -0.062 NA
ENDBRANCH   1  15
BRANCH   1  24
ATOM     24  C   UNL     1       4.074   4.639  -0.727  0.00  0.00    +0.193 C 
BRANCH  24  29
ATOM     25  C   UNL     1       2.591   9.212   2.481  0.00  0.00    +0.044 C 
ATOM     26  C   UNL     1       2.978   8.019   1.644  0.00  0.00    -0.050 A 
ATOM     27  C   UNL     1       3.228   6.802   2.250  0.00  0.00    +0.004 A 
ATOM     28  C   UNL     1       3.582   5.708   1.483  0.00  0.00    +0.006 A 
ATOM     29  C   UNL     1       3.687   5.831   0.110  0.00  0.00    -0.015 A 
ATOM     30  C   UNL     1       3.443   7.050  -0.495  0.00  0.00    +0.006 A 
ATOM     31  C   UNL     1       3.083   8.143   0.271  0.00  0.00    +0.004 A 
ENDBRANCH  24  29
BRANCH  24  32
ATOM     32  O   UNL     1       4.791   5.080  -1.881  0.00  0.00    -0.383 OA
ATOM     33  H   UNL     1       4.316   5.732  -2.414  0.00  0.00    +0.210 HD
ENDBRANCH  24  32
ENDBRANCH   1  24
BRANCH   1  34
ATOM     34  C   UNL     1       2.157   3.241   0.056  0.00  0.00    +0.091 C 
BRANCH  34  35
ATOM     35  C   UNL     1       0.892   2.539  -0.368  0.00  0.00    -0.043 A 
ATOM     36  C   UNL     1       0.956   1.268  -0.910  0.00  0.00    +0.004 A 
ATOM     37  C   UNL     1      -0.204   0.624  -1.298  0.00  0.00    +0.000 A 
ATOM     38  C   UNL     1      -1.426   1.252  -1.150  0.00  0.00    +0.000 A 
ATOM     39  C   UNL     1      -1.490   2.521  -0.605  0.00  0.00    +0.000 A 
ATOM     40  C   UNL     1      -0.331   3.165  -0.215  0.00  0.00    +0.004 A 
ENDBRANCH  34  35
ENDBRANCH   1  34
TORSDOF 7
