REMARK  Name = ZINC64197015
REMARK  5 active torsions:
REMARK  status: ('A' for Active; 'I' for Inactive)
REMARK    1  A    between atoms: C_1  and  C_2
REMARK    2  A    between atoms: C_2  and  S_3
REMARK    3  A    between atoms: S_3  and  C_4
REMARK    4  A    between atoms: C_5  and  C_19
REMARK    5  A    between atoms: C_6  and  C_12
REMARK                            x       y       z     vdW  Elec       q    Type
REMARK                         _______ _______ _______ _____ _____    ______ ____
ROOT
ATOM      1  C   UNL     1       0.796  -2.243  -1.362  0.00  0.00    +0.084 C 
ATOM      2  C   UNL     1       1.422  -3.084  -2.442  0.00  0.00    +0.152 C 
ATOM      3  C   UNL     1       0.682  -4.424  -2.528  0.00  0.00    +0.051 C 
ATOM      4  C   UNL     1       0.689  -5.069  -1.137  0.00  0.00    +0.107 C 
ATOM      5  C   UNL     1       0.113  -4.096  -0.143  0.00  0.00    +0.237 C 
ATOM      6  N   UNL     1       0.214  -2.782  -0.322  0.00  0.00    -0.177 NA
ATOM      7  O   UNL     1      -0.452  -4.519   0.846  0.00  0.00    -0.274 OA
ENDROOT
BRANCH   3   8
ATOM      8  C   UNL     1       1.382  -5.328  -3.510  0.00  0.00    -0.041 A 
ATOM      9  C   UNL     1       2.698  -5.694  -3.297  0.00  0.00    +0.004 A 
ATOM     10  C   UNL     1       3.340  -6.523  -4.198  0.00  0.00    +0.002 A 
ATOM     11  C   UNL     1       2.667  -6.986  -5.313  0.00  0.00    +0.020 A 
ATOM     12  C   UNL     1       1.350  -6.619  -5.527  0.00  0.00    +0.041 A 
ATOM     13  C   UNL     1       0.706  -5.795  -4.622  0.00  0.00    +0.024 A 
ATOM     14 CL   UNL     1       0.504  -7.200  -6.928  0.00  0.00    -0.084 Cl
ENDBRANCH   3   8
BRANCH   2  15
ATOM     15  C   UNL     1       1.320  -2.383  -3.732  0.00  0.00    +0.073 C 
ATOM     16  N   UNL     1       1.242  -1.842  -4.728  0.00  0.00    -0.196 NA
ENDBRANCH   2  15
BRANCH   1  17
ATOM     17  S   UNL     1       0.851  -0.589  -1.490  0.00  0.00    -0.112 S 
BRANCH  17  19
ATOM     18  C   UNL     1      -0.019   1.526   0.010  0.00  0.00    +0.015 C 
ATOM     19  C   UNL     1       0.002  -0.004   0.002  0.00  0.00    +0.072 C 
ENDBRANCH  17  19
ENDBRANCH   1  17
TORSDOF 4
