REMARK  Name = ZINC12575963
REMARK  7 active torsions:
REMARK  status: ('A' for Active; 'I' for Inactive)
REMARK    1  A    between atoms: C_1  and  C_2
REMARK    2  A    between atoms: C_5  and  C_26
REMARK    3  A    between atoms: N_9  and  N_10
REMARK    4  A    between atoms: C_11  and  C_13
REMARK    5  A    between atoms: C_13  and  O_14
REMARK    6  A    between atoms: O_14  and  C_15
REMARK    7  A    between atoms: C_26  and  C_28
REMARK                            x       y       z     vdW  Elec       q    Type
REMARK                         _______ _______ _______ _____ _____    ______ ____
ROOT
ATOM      1  N   UNL     1       0.261  -0.853   3.600  0.00  0.00    -0.204 N 
ATOM      2  C   UNL     1       0.489  -0.220   4.768  0.00  0.00    +0.270 C 
ATOM      3  O   UNL     1       0.682   0.978   4.780  0.00  0.00    -0.270 OA
ATOM      4  H   UNL     1       0.107  -1.811   3.591  0.00  0.00    +0.177 HD
ENDROOT
BRANCH   1  12
ATOM      5  C   UNL     1      -0.018   1.503   0.010  0.00  0.00    +0.045 C 
ATOM      6  C   UNL     1       0.002  -0.004   0.002  0.00  0.00    -0.032 C 
ATOM      7  C   UNL     1       0.005  -0.654  -1.152  0.00  0.00    -0.021 C 
ATOM      8  C   UNL     1       0.016  -2.150  -1.252  0.00  0.00    +0.035 C 
ATOM      9  C   UNL     1       0.556  -2.786   0.028  0.00  0.00    +0.024 C 
ATOM     10  C   UNL     1      -0.225  -2.235   1.229  0.00  0.00    +0.065 C 
ATOM     11  C   UNL     1       0.024  -0.740   1.276  0.00  0.00    +0.062 C 
ATOM     12  N   UNL     1       0.245  -0.129   2.401  0.00  0.00    -0.185 NA
BRANCH   9  13
ATOM     13  C   UNL     1       0.388  -4.282  -0.042  0.00  0.00    -0.076 C 
ATOM     14  C   UNL     1       1.437  -5.064   0.026  0.00  0.00    +0.007 C 
ATOM     15  C   UNL     1      -0.988  -4.879  -0.191  0.00  0.00    +0.039 C 
ENDBRANCH   9  13
ENDBRANCH   1  12
BRANCH   2  16
ATOM     16  C   UNL     1       0.506  -0.999   6.058  0.00  0.00    +0.326 C 
BRANCH  16  17
ATOM     17  O   UNL     1       0.767  -0.112   7.147  0.00  0.00    -0.482 OA
BRANCH  17  18
ATOM     18  C   UNL     1       0.816  -0.658   8.390  0.00  0.00    +0.136 A 
ATOM     19  C   UNL     1       0.620  -2.034   8.547  0.00  0.00    +0.047 A 
ATOM     20  C   UNL     1       0.663  -2.610   9.778  0.00  0.00    +0.012 A 
ATOM     21  C   UNL     1       0.908  -1.816  10.912  0.00  0.00    -0.017 A 
ATOM     22  C   UNL     1       0.959  -2.379  12.198  0.00  0.00    +0.008 A 
ATOM     23  C   UNL     1       1.199  -1.581  13.274  0.00  0.00    +0.001 A 
ATOM     24  C   UNL     1       1.395  -0.210  13.121  0.00  0.00    +0.001 A 
ATOM     25  C   UNL     1       1.353   0.371  11.891  0.00  0.00    +0.010 A 
ATOM     26  C   UNL     1       1.107  -0.421  10.756  0.00  0.00    -0.000 A 
ATOM     27  C   UNL     1       1.062   0.142   9.470  0.00  0.00    +0.067 A 
ATOM     28 BR   UNL     1       1.333   1.999   9.235  0.00  0.00    -0.046 Br
ENDBRANCH  17  18
ENDBRANCH  16  17
ENDBRANCH   2  16
TORSDOF 5
