REMARK  Name = ZINC10515771
REMARK  7 active torsions:
REMARK  status: ('A' for Active; 'I' for Inactive)
REMARK    1  A    between atoms: C_1  and  C_2
REMARK    2  A    between atoms: C_2  and  C_3
REMARK    3  A    between atoms: C_3  and  C_4
REMARK    4  A    between atoms: N_13  and  C_14
REMARK    5  A    between atoms: C_14  and  C_15
REMARK    6  A    between atoms: C_18  and  C_21
REMARK    7  A    between atoms: C_21  and  N_53
REMARK                            x       y       z     vdW  Elec       q    Type
REMARK                         _______ _______ _______ _____ _____    ______ ____
ROOT
ATOM      1  C   UNL     1       1.237  -3.991  -1.659  0.00  0.00    +0.034 C 
ATOM      2  N   UNL     1       1.153  -2.687  -1.327  0.00  0.00    -0.287 NA
ENDROOT
BRANCH   1   3
ATOM      3  C   UNL     1       1.435  -4.357  -2.978  0.00  0.00    +0.205 C 
ATOM      4  C   UNL     1       1.692  -5.758  -3.357  0.00  0.00    +0.236 C 
ATOM      5  O   UNL     1       1.737  -6.635  -2.514  0.00  0.00    -0.274 OA
ATOM      6  N   UNL     1       1.869  -6.042  -4.663  0.00  0.00    -0.267 N 
ATOM      7  C   UNL     1       1.827  -5.085  -5.601  0.00  0.00    +0.143 C 
ATOM      8  S   UNL     1       2.073  -5.538  -7.233  0.00  0.00    -0.018 S 
ATOM      9  N   UNL     1       1.605  -3.792  -5.328  0.00  0.00    -0.267 N 
ATOM     10  C   UNL     1       1.404  -3.362  -4.065  0.00  0.00    +0.236 C 
ATOM     11  O   UNL     1       1.202  -2.186  -3.830  0.00  0.00    -0.274 OA
ATOM     12  H   UNL     1       2.035  -6.960  -4.930  0.00  0.00    +0.157 HD
ATOM     13  H   UNL     1       1.587  -3.150  -6.055  0.00  0.00    +0.157 HD
ENDBRANCH   1   3
BRANCH   1  15
ATOM     14  C   UNL     1       2.512  -5.462  -0.123  0.00  0.00    +0.010 C 
ATOM     15  C   UNL     1       1.116  -5.049  -0.594  0.00  0.00    +0.048 C 
ENDBRANCH   1  15
BRANCH   2  16
ATOM     16  C   UNL     1       0.944  -2.299   0.070  0.00  0.00    +0.176 C 
BRANCH  16  17
ATOM     17  C   UNL     1       0.886  -0.796   0.171  0.00  0.00    -0.026 A 
ATOM     18  C   UNL     1      -0.325  -0.141   0.049  0.00  0.00    +0.005 A 
ATOM     19  C   UNL     1      -0.377   1.237   0.142  0.00  0.00    +0.002 A 
ATOM     20  C   UNL     1       0.782   1.960   0.357  0.00  0.00    -0.064 A 
ATOM     21  C   UNL     1       1.993   1.305   0.478  0.00  0.00    +0.002 A 
ATOM     22  C   UNL     1       2.045  -0.073   0.386  0.00  0.00    +0.005 A 
BRANCH  20  23
ATOM     23  C   UNL     1       0.725   3.463   0.457  0.00  0.00    -0.043 C 
BRANCH  23  29
ATOM     24  C   UNL     1      -0.805   3.415   2.333  0.00  0.00    -0.078 C 
ATOM     25  C   UNL     1      -0.932   3.706   3.830  0.00  0.00    -0.019 C 
ATOM     26  C   UNL     1      -0.755   5.208   4.069  0.00  0.00    -0.004 C 
ATOM     27  C   UNL     1       0.606   5.648   3.522  0.00  0.00    -0.019 C 
ATOM     28  C   UNL     1       0.688   5.300   2.034  0.00  0.00    -0.078 C 
ATOM     29  N   UNL     1       0.535   3.838   1.874  0.00  0.00    +0.382 N 
ATOM     30  H   UNL     1       1.247   3.364   2.442  0.00  0.00    -0.081 HD
ENDBRANCH  23  29
ENDBRANCH  20  23
ENDBRANCH  16  17
ENDBRANCH   2  16
TORSDOF 6
