REMARK  Name = ZINC63611401
REMARK  9 active torsions:
REMARK  status: ('A' for Active; 'I' for Inactive)
REMARK    1  A    between atoms: C_1  and  C_2
REMARK    2  A    between atoms: C_6  and  C_37
REMARK    3  A    between atoms: C_7  and  N_8
REMARK    4  A    between atoms: C_9  and  C_11
REMARK    5  A    between atoms: C_11  and  N_17
REMARK    6  A    between atoms: N_17  and  C_18
REMARK    7  A    between atoms: C_18  and  C_19
REMARK    8  A    between atoms: C_25  and  C_27
REMARK    9  A    between atoms: C_27  and  C_28
REMARK                            x       y       z     vdW  Elec       q    Type
REMARK                         _______ _______ _______ _____ _____    ______ ____
ROOT
ATOM      1  N   UNL     1       0.758   0.840   5.169  0.00  0.00    -0.283 N 
ATOM      2  C   UNL     1       1.988   0.501   4.735  0.00  0.00    +0.221 C 
ATOM      3  O   UNL     1       2.132  -0.470   4.023  0.00  0.00    -0.275 OA
ENDROOT
BRANCH   1   4
ATOM      4  C   UNL     1      -0.394  -0.004   4.842  0.00  0.00    +0.114 C 
ATOM      5  C   UNL     1      -1.563   0.349   5.764  0.00  0.00    +0.035 C 
ATOM      6  C   UNL     1      -1.155   0.114   7.219  0.00  0.00    +0.003 C 
ATOM      7  C   UNL     1      -0.779  -1.357   7.412  0.00  0.00    +0.000 C 
ATOM      8  C   UNL     1       0.390  -1.710   6.491  0.00  0.00    +0.003 C 
ATOM      9  C   UNL     1      -0.018  -1.475   5.035  0.00  0.00    +0.035 C 
BRANCH   4  11
ATOM     10  N   UNL     1      -0.606   1.435   2.842  0.00  0.00    -0.283 N 
ATOM     11  C   UNL     1      -0.796   0.227   3.409  0.00  0.00    +0.241 C 
ATOM     12  O   UNL     1      -1.291  -0.673   2.765  0.00  0.00    -0.273 OA
ATOM     13  H   UNL     1      -0.171   2.143   3.343  0.00  0.00    +0.155 HD
BRANCH  10  20
ATOM     14  C   UNL     1       1.342   2.163   0.899  0.00  0.00    +0.045 C 
ATOM     15  C   UNL     1      -0.118   2.026   0.551  0.00  0.00    -0.029 A 
ATOM     16  C   UNL     1      -0.544   2.249  -0.743  0.00  0.00    +0.005 A 
ATOM     17  C   UNL     1      -1.883   2.124  -1.063  0.00  0.00    +0.001 A 
ATOM     18  C   UNL     1      -2.800   1.774  -0.089  0.00  0.00    +0.005 A 
ATOM     19  C   UNL     1      -2.380   1.549   1.208  0.00  0.00    -0.029 A 
ATOM     20  C   UNL     1      -1.035   1.669   1.531  0.00  0.00    +0.039 A 
ATOM     21  C   UNL     1      -3.380   1.168   2.269  0.00  0.00    +0.045 C 
ENDBRANCH  10  20
ENDBRANCH   4  11
ENDBRANCH   1   4
BRANCH   1  22
ATOM     22  C   UNL     1       0.572   2.054   5.968  0.00  0.00    +0.144 C 
BRANCH  22  23
ATOM     23  C   UNL     1       0.642   3.262   5.070  0.00  0.00    -0.030 A 
ATOM     24  C   UNL     1       1.824   3.970   4.954  0.00  0.00    +0.005 A 
ATOM     25  C   UNL     1       1.888   5.078   4.130  0.00  0.00    +0.000 A 
ATOM     26  C   UNL     1       0.771   5.478   3.421  0.00  0.00    +0.000 A 
ATOM     27  C   UNL     1      -0.411   4.770   3.537  0.00  0.00    +0.000 A 
ATOM     28  C   UNL     1      -0.474   3.659   4.357  0.00  0.00    +0.005 A 
ENDBRANCH  22  23
ENDBRANCH   1  22
BRANCH   2  29
ATOM     29  C   UNL     1       3.183   1.328   5.133  0.00  0.00    +0.129 C 
BRANCH  29  30
ATOM     30  C   UNL     1       4.446   0.596   4.762  0.00  0.00    -0.033 C 
ATOM     31  C   UNL     1       5.175   0.752   3.633  0.00  0.00    -0.001 A 
ATOM     32  C   UNL     1       5.015   1.616   2.458  0.00  0.00    +0.010 A 
ATOM     33  C   UNL     1       5.928   1.546   1.463  0.00  0.00    +0.001 A 
ATOM     34  C   UNL     1       7.021   0.671   1.525  0.00  0.00    +0.002 A 
ATOM     35  C   UNL     1       7.235  -0.154   2.572  0.00  0.00    +0.026 A 
ATOM     36  C   UNL     1       6.338  -0.163   3.675  0.00  0.00    +0.043 A 
ATOM     37  N   UNL     1       6.328  -0.858   4.787  0.00  0.00    -0.380 N 
ATOM     38  C   UNL     1       5.160  -0.458   5.579  0.00  0.00    +0.145 C 
ATOM     39  H   UNL     1       6.986  -1.524   5.044  0.00  0.00    +0.160 HD
ENDBRANCH  29  30
ENDBRANCH   2  29
TORSDOF 7
