REMARK  Name = ZINC63743231
REMARK  6 active torsions:
REMARK  status: ('A' for Active; 'I' for Inactive)
REMARK    1  A    between atoms: C_1  and  C_2
REMARK    2  A    between atoms: C_8  and  C_11
REMARK    3  A    between atoms: C_11  and  C_12
REMARK    4  A    between atoms: C_12  and  N_13
REMARK    5  A    between atoms: C_14  and  C_16
REMARK    6  A    between atoms: N_19  and  C_22
REMARK                            x       y       z     vdW  Elec       q    Type
REMARK                         _______ _______ _______ _____ _____    ______ ____
ROOT
ATOM      1  C   UNL     1      -2.534  -2.338   7.783  0.00  0.00    +0.077 C 
ATOM      2  C   UNL     1      -1.696  -3.408   8.489  0.00  0.00    +0.028 C 
ATOM      3  C   UNL     1      -1.748  -3.173  10.001  0.00  0.00    +0.088 C 
ATOM      4  N   UNL     1      -3.141  -3.236  10.460  0.00  0.00    -0.275 NA
ATOM      5  C   UNL     1      -3.955  -2.187   9.831  0.00  0.00    +0.088 C 
ATOM      6  C   UNL     1      -3.970  -2.392   8.315  0.00  0.00    +0.028 C 
ENDROOT
BRANCH   4   7
ATOM      7  C   UNL     1      -3.216  -3.153  11.925  0.00  0.00    +0.224 C 
ATOM      8  N   UNL     1      -2.852  -1.798  12.416  0.00  0.00    -0.253 N 
ATOM      9  N   UNL     1      -3.552  -1.373  13.510  0.00  0.00    -0.204 N 
ATOM     10  C   UNL     1      -3.130  -0.421  14.395  0.00  0.00    +0.275 A 
ATOM     11  O   UNL     1      -2.023   0.077  14.265  0.00  0.00    -0.266 OA
ATOM     12  C   UNL     1      -3.960  -0.011  15.452  0.00  0.00    +0.040 A 
ATOM     13  C   UNL     1      -5.185  -0.579  15.597  0.00  0.00    +0.053 A 
ATOM     14  N   UNL     1      -5.558  -1.534  14.737  0.00  0.00    -0.226 NA
ATOM     15  C   UNL     1      -4.782  -1.924  13.762  0.00  0.00    +0.192 A 
ATOM     16  S   UNL     1      -4.963  -3.194  12.519  0.00  0.00    -0.046 S 
ATOM     17  C   UNL     1      -6.152  -0.179  16.678  0.00  0.00    +0.056 C 
ATOM     18  C   UNL     1      -5.426   0.561  17.800  0.00  0.00    +0.006 C 
ATOM     19  C   UNL     1      -4.587   1.681  17.175  0.00  0.00    +0.005 C 
ATOM     20  C   UNL     1      -3.439   1.045  16.392  0.00  0.00    +0.042 C 
ATOM     21  H   UNL     1      -1.858  -1.725  12.573  0.00  0.00    +0.169 HD
ENDBRANCH   4   7
BRANCH   1  23
ATOM     22  N   UNL     1      -1.377  -2.600   5.613  0.00  0.00    -0.315 N 
ATOM     23  C   UNL     1      -2.537  -2.599   6.299  0.00  0.00    +0.216 C 
ATOM     24  O   UNL     1      -3.583  -2.808   5.722  0.00  0.00    -0.276 OA
ATOM     25  H   UNL     1      -0.540  -2.433   6.075  0.00  0.00    +0.149 HD
BRANCH  22  26
ATOM     26  C   UNL     1      -1.379  -2.854   4.170  0.00  0.00    +0.108 C 
BRANCH  26  27
ATOM     27  C   UNL     1       0.055  -2.799   3.641  0.00  0.00    +0.052 C 
BRANCH  27  35
ATOM     28  C   UNL     1      -0.018   1.503   0.010  0.00  0.00    +0.044 C 
ATOM     29  C   UNL     1       0.002  -0.004   0.002  0.00  0.00    -0.050 A 
ATOM     30  C   UNL     1       0.005  -0.680  -1.226  0.00  0.00    +0.005 A 
ATOM     31  C   UNL     1       0.023  -2.026  -1.317  0.00  0.00    +0.026 A 
ATOM     32  C   UNL     1       0.039  -2.826  -0.141  0.00  0.00    +0.043 A 
ATOM     33  N   UNL     1       0.057  -4.126   0.030  0.00  0.00    -0.380 N 
ATOM     34  C   UNL     1       0.067  -4.408   1.470  0.00  0.00    +0.144 C 
ATOM     35  C   UNL     1       0.052  -3.060   2.156  0.00  0.00    -0.040 C 
ATOM     36  C   UNL     1       0.036  -2.137   1.168  0.00  0.00    -0.001 A 
ATOM     37  C   UNL     1       0.022  -0.669   1.180  0.00  0.00    +0.013 A 
ATOM     38  H   UNL     1       0.062  -4.790  -0.677  0.00  0.00    +0.160 HD
ENDBRANCH  27  35
ENDBRANCH  26  27
ENDBRANCH  22  26
ENDBRANCH   1  23
TORSDOF 5
