REMARK  Name = ZINC65297998
REMARK  6 active torsions:
REMARK  status: ('A' for Active; 'I' for Inactive)
REMARK    1  A    between atoms: C_1  and  C_2
REMARK    2  A    between atoms: C_2  and  C_3
REMARK    3  A    between atoms: C_2  and  N_4
REMARK    4  A    between atoms: C_11  and  C_23
REMARK    5  A    between atoms: C_14  and  C_16
REMARK    6  A    between atoms: C_28  and  O_29
REMARK                            x       y       z     vdW  Elec       q    Type
REMARK                         _______ _______ _______ _____ _____    ______ ____
ROOT
ATOM      1  N   UNL     1       0.713  -0.491   1.192  0.00  0.00    +0.381 N 
ATOM      2  C   UNL     1       0.740  -1.958   1.178  0.00  0.00    -0.075 C 
ATOM      3  C   UNL     1       1.546  -2.469   2.373  0.00  0.00    +0.027 C 
ATOM      4  C   UNL     1       0.888  -1.984   3.670  0.00  0.00    +0.109 C 
ATOM      5  C   UNL     1       0.804  -0.454   3.640  0.00  0.00    +0.027 C 
ATOM      6  C   UNL     1       0.024  -0.017   2.399  0.00  0.00    -0.075 C 
ATOM      7  N   UNL     1       1.708  -2.401   4.814  0.00  0.00    -0.286 NA
ATOM      8  C   UNL     1       1.003  -2.115   6.075  0.00  0.00    +0.095 C 
ATOM      9  C   UNL     1      -0.218  -3.036   6.161  0.00  0.00    +0.079 C 
ATOM     10  C   UNL     1      -0.960  -3.005   4.854  0.00  0.00    +0.047 C 
ATOM     11  N   UNL     1      -0.455  -2.544   3.773  0.00  0.00    -0.266 NA
ATOM     12  H   UNL     1       1.950  -3.379   4.749  0.00  0.00    +0.125 HD
ATOM     13  H   UNL     1       1.658  -0.139   1.185  0.00  0.00    -0.081 HD
ENDROOT
BRANCH  10  14
ATOM     14  C   UNL     1      -2.338  -3.533   4.816  0.00  0.00    -0.004 A 
ATOM     15  C   UNL     1      -2.926  -4.040   5.977  0.00  0.00    +0.011 A 
ATOM     16  C   UNL     1      -4.214  -4.532   5.935  0.00  0.00    +0.016 A 
ATOM     17  C   UNL     1      -4.923  -4.524   4.746  0.00  0.00    +0.018 A 
ATOM     18  C   UNL     1      -4.346  -4.022   3.591  0.00  0.00    +0.016 A 
ATOM     19  C   UNL     1      -3.061  -3.522   3.621  0.00  0.00    +0.011 A 
ATOM     20 BR   UNL     1      -6.689  -5.200   4.697  0.00  0.00    -0.050 Br
ENDBRANCH  10  14
BRANCH   8  21
ATOM     21  C   UNL     1       1.921  -2.376   7.242  0.00  0.00    +0.013 A 
ATOM     22  C   UNL     1       3.032  -3.182   7.080  0.00  0.00    +0.028 A 
ATOM     23  C   UNL     1       3.875  -3.422   8.151  0.00  0.00    +0.042 A 
ATOM     24  C   UNL     1       3.607  -2.857   9.385  0.00  0.00    +0.023 A 
ATOM     25  C   UNL     1       2.498  -2.051   9.551  0.00  0.00    +0.047 A 
ATOM     26  C   UNL     1       1.654  -1.804   8.477  0.00  0.00    +0.122 A 
ATOM     27 CL   UNL     1       5.270  -4.435   7.945  0.00  0.00    -0.084 Cl
BRANCH  26  28
ATOM     28  O   UNL     1       0.565  -1.007   8.636  0.00  0.00    -0.506 OA
ATOM     29  H   UNL     1      -0.234  -1.481   8.905  0.00  0.00    +0.292 HD
ENDBRANCH  26  28
ENDBRANCH   8  21
BRANCH   1  31
ATOM     30  C   UNL     1      -0.019   1.526   0.010  0.00  0.00    -0.014 C 
ATOM     31  C   UNL     1       0.002  -0.004   0.002  0.00  0.00    -0.075 C 
ATOM     32  C   UNL     1       0.718  -0.497  -1.257  0.00  0.00    -0.014 C 
ENDBRANCH   1  31
TORSDOF 4
