REMARK  Name = ZINC62101899
REMARK  7 active torsions:
REMARK  status: ('A' for Active; 'I' for Inactive)
REMARK    1  A    between atoms: C_1  and  C_2
REMARK    2  A    between atoms: C_2  and  C_3
REMARK    3  A    between atoms: C_3  and  N_4
REMARK    4  A    between atoms: N_4  and  C_5
REMARK    5  A    between atoms: C_5  and  C_7
REMARK    6  A    between atoms: C_5  and  C_8
REMARK    7  A    between atoms: C_9  and  C_21
REMARK                            x       y       z     vdW  Elec       q    Type
REMARK                         _______ _______ _______ _____ _____    ______ ____
ROOT
ATOM      1  C   UNL     1       1.555  -3.941  -2.422  0.00  0.00    -0.000 A 
ATOM      2  C   UNL     1       2.624  -4.726  -2.697  0.00  0.00    +0.049 A 
ATOM      3  N   UNL     1       2.460  -6.030  -2.570  0.00  0.00    -0.230 NA
ATOM      4  C   UNL     1       1.306  -6.536  -2.192  0.00  0.00    +0.161 A 
ATOM      5  S   UNL     1       0.343  -5.173  -1.975  0.00  0.00    -0.059 S 
ATOM      6  N   UNL     1       0.967  -7.868  -2.010  0.00  0.00    -0.308 N 
ATOM      7  C   UNL     1      -0.394  -8.195  -1.588  0.00  0.00    +0.116 C 
ATOM      8  C   UNL     1      -0.355  -8.858  -0.206  0.00  0.00    +0.114 C 
ATOM      9  C   UNL     1       0.018 -10.313  -0.378  0.00  0.00    +0.215 C 
ATOM     10  O   UNL     1      -0.818 -11.174  -0.199  0.00  0.00    -0.276 OA
ATOM     11  N   UNL     1       1.261 -10.657  -0.727  0.00  0.00    -0.314 N 
ATOM     12  C   UNL     1       2.289  -9.630  -0.942  0.00  0.00    +0.123 C 
ATOM     13  C   UNL     1       1.981  -8.890  -2.255  0.00  0.00    +0.125 C 
ATOM     14  C   UNL     1       3.942  -4.136  -3.130  0.00  0.00    +0.066 C 
ATOM     15  H   UNL     1       1.487 -11.593  -0.839  0.00  0.00    +0.149 HD
ENDROOT
BRANCH   1  16
ATOM     16  C   UNL     1       1.426  -2.440  -2.474  0.00  0.00    -0.035 C 
ATOM     17  C   UNL     1       0.618  -2.039  -3.710  0.00  0.00    -0.008 C 
BRANCH  16  18
ATOM     18  N   UNL     1       0.738  -1.966  -1.265  0.00  0.00    +0.384 N 
ATOM     19  H   UNL     1       1.226  -2.301  -0.447  0.00  0.00    -0.085 HD
ATOM     20  H   UNL     1      -0.208  -2.316  -1.258  0.00  0.00    -0.085 HD
BRANCH  18  21
ATOM     21  C   UNL     1       0.718  -0.497  -1.257  0.00  0.00    -0.082 C 
BRANCH  21  23
ATOM     22  C   UNL     1      -0.019   1.526   0.010  0.00  0.00    +0.002 C 
ATOM     23  C   UNL     1       0.002  -0.004   0.002  0.00  0.00    -0.022 C 
ENDBRANCH  21  23
ENDBRANCH  18  21
ENDBRANCH  16  18
ENDBRANCH   1  16
TORSDOF 4
