REMARK  Name = ZINC15723131
REMARK  5 active torsions:
REMARK  status: ('A' for Active; 'I' for Inactive)
REMARK    1  A    between atoms: C_4  and  N_7
REMARK    2  A    between atoms: C_11  and  N_12
REMARK    3  A    between atoms: N_12  and  C_13
REMARK    4  A    between atoms: C_16  and  C_19
REMARK    5  A    between atoms: N_21  and  C_22
REMARK                            x       y       z     vdW  Elec       q    Type
REMARK                         _______ _______ _______ _____ _____    ______ ____
ROOT
ATOM      1  C   UNL     1       3.963  -6.193   0.319  0.00  0.00    +0.031 A 
ATOM      2  C   UNL     1       5.201  -6.798   0.513  0.00  0.00    +0.024 A 
ATOM      3  C   UNL     1       5.281  -8.159   0.703  0.00  0.00    +0.015 A 
ATOM      4  C   UNL     1       4.118  -8.933   0.702  0.00  0.00    +0.037 A 
ATOM      5  C   UNL     1       2.876  -8.322   0.507  0.00  0.00    +0.015 A 
ATOM      6  C   UNL     1       2.802  -6.960   0.322  0.00  0.00    +0.024 A 
ENDROOT
BRANCH   4   7
ATOM      7  C   UNL     1       4.200 -10.393   0.905  0.00  0.00    +0.244 C 
ATOM      8  O   UNL     1       5.281 -10.923   1.074  0.00  0.00    -0.270 OA
ATOM      9  N   UNL     1       3.077 -11.138   0.903  0.00  0.00    -0.306 N 
ATOM     10  H   UNL     1       2.215 -10.714   0.769  0.00  0.00    +0.150 HD
BRANCH   9  11
ATOM     11  C   UNL     1       3.159 -12.586   1.105  0.00  0.00    +0.036 C 
ATOM     12  C   UNL     1       4.016 -13.207   0.001  0.00  0.00    +0.029 C 
ATOM     13  C   UNL     1       4.101 -14.720   0.211  0.00  0.00    -0.008 C 
ATOM     14  C   UNL     1       2.696 -15.322   0.165  0.00  0.00    +0.007 C 
ATOM     15  C   UNL     1       1.838 -14.701   1.269  0.00  0.00    -0.008 C 
ATOM     16  C   UNL     1       1.753 -13.188   1.059  0.00  0.00    +0.029 C 
ATOM     17  C   UNL     1       2.472 -14.991   2.631  0.00  0.00    +0.007 C 
ATOM     18  C   UNL     1       3.878 -14.390   2.678  0.00  0.00    -0.008 C 
ATOM     19  C   UNL     1       4.736 -15.011   1.573  0.00  0.00    +0.007 C 
ATOM     20  C   UNL     1       3.793 -12.877   2.467  0.00  0.00    +0.029 C 
ENDBRANCH   9  11
ENDBRANCH   4   7
BRANCH   1  21
ATOM     21  N   UNL     1       3.886  -4.815   0.126  0.00  0.00    -0.320 N 
ATOM     22  H   UNL     1       3.023  -4.392  -0.005  0.00  0.00    +0.152 HD
BRANCH  21  27
ATOM     23  N   UNL     1       3.627  -0.648   0.047  0.00  0.00    -0.190 N 
ATOM     24  C   UNL     1       3.633  -1.994   0.132  0.00  0.00    +0.265 C 
ATOM     25  O   UNL     1       2.596  -2.615   0.276  0.00  0.00    -0.269 OA
ATOM     26  C   UNL     1       4.928  -2.692   0.044  0.00  0.00    +0.113 C 
ATOM     27  C   UNL     1       5.011  -4.069   0.122  0.00  0.00    +0.090 C 
ATOM     28  C   UNL     1       6.130  -1.857  -0.131  0.00  0.00    +0.258 C 
ATOM     29  O   UNL     1       7.234  -2.361  -0.212  0.00  0.00    -0.270 OA
ATOM     30  N   UNL     1       5.972  -0.519  -0.200  0.00  0.00    -0.235 N 
ATOM     31  C   UNL     1       4.760   0.049  -0.118  0.00  0.00    +0.320 C 
ATOM     32  O   UNL     1       4.686   1.260  -0.193  0.00  0.00    -0.251 OA
ATOM     33  H   UNL     1       6.753   0.045  -0.315  0.00  0.00    +0.159 HD
BRANCH  23  37
ATOM     34  C   UNL     1      -0.000   1.392   0.287  0.00  0.00    +0.000 A 
ATOM     35  C   UNL     1       0.793   1.525  -0.838  0.00  0.00    +0.002 A 
ATOM     36  C   UNL     1       1.996   0.850  -0.920  0.00  0.00    +0.024 A 
ATOM     37  C   UNL     1       2.408   0.038   0.128  0.00  0.00    +0.046 A 
ATOM     38  C   UNL     1       1.609  -0.093   1.256  0.00  0.00    +0.024 A 
ATOM     39  C   UNL     1       0.408   0.584   1.332  0.00  0.00    +0.002 A 
ENDBRANCH  23  37
ENDBRANCH  21  27
ENDBRANCH   1  21
TORSDOF 5
