REMARK  Name = ZINC39948679
REMARK  10 active torsions:
REMARK  status: ('A' for Active; 'I' for Inactive)
REMARK    1  A    between atoms: C_1  and  C_2
REMARK    2  A    between atoms: C_4  and  C_12
REMARK    3  A    between atoms: N_13  and  N_14
REMARK    4  A    between atoms: N_14  and  C_15
REMARK    5  A    between atoms: C_18  and  N_33
REMARK    6  A    between atoms: C_20  and  S_21
REMARK    7  A    between atoms: S_21  and  N_24
REMARK    8  A    between atoms: N_24  and  C_25
REMARK    9  A    between atoms: C_30  and  O_31
REMARK   10  A    between atoms: O_31  and  C_32
REMARK                            x       y       z     vdW  Elec       q    Type
REMARK                         _______ _______ _______ _____ _____    ______ ____
ROOT
ATOM      1  C   UNL     1      -5.794  -1.281  -1.389  0.00  0.00    +0.075 A 
ATOM      2  C   UNL     1      -6.040  -2.059  -0.259  0.00  0.00    +0.029 A 
ATOM      3  C   UNL     1      -7.282  -2.630  -0.074  0.00  0.00    +0.035 A 
ATOM      4  C   UNL     1      -8.284  -2.430  -1.009  0.00  0.00    +0.128 A 
ATOM      5  C   UNL     1      -8.045  -1.658  -2.132  0.00  0.00    +0.063 A 
ATOM      6  C   UNL     1      -6.808  -1.078  -2.324  0.00  0.00    +0.135 A 
ENDROOT
BRANCH   6   7
ATOM      7  S   UNL     1      -6.507  -0.090  -3.751  0.00  0.00    +0.094 S 
ATOM      8  O   UNL     1      -5.290  -0.555  -4.318  0.00  0.00    -0.148 OA
ATOM      9  O   UNL     1      -7.724  -0.053  -4.483  0.00  0.00    -0.148 OA
BRANCH   7  10
ATOM     10  N   UNL     1      -6.224   1.455  -3.226  0.00  0.00    -0.094 NA
BRANCH  10  11
ATOM     11  C   UNL     1      -5.952   2.470  -4.151  0.00  0.00    +0.116 A 
ATOM     12  C   UNL     1      -5.925   2.185  -5.508  0.00  0.00    +0.030 A 
ATOM     13  C   UNL     1      -5.657   3.188  -6.420  0.00  0.00    +0.002 A 
ATOM     14  C   UNL     1      -5.415   4.478  -5.982  0.00  0.00    +0.004 A 
ATOM     15  C   UNL     1      -5.441   4.769  -4.631  0.00  0.00    +0.047 A 
ATOM     16  C   UNL     1      -5.714   3.770  -3.711  0.00  0.00    +0.144 A 
BRANCH  16  17
ATOM     17  O   UNL     1      -5.745   4.057  -2.382  0.00  0.00    -0.493 OA
ATOM     18  C   UNL     1      -5.491   5.412  -2.005  0.00  0.00    +0.277 C 
ENDBRANCH  16  17
ENDBRANCH  10  11
ENDBRANCH   7  10
ENDBRANCH   6   7
BRANCH   4  19
ATOM     19  N   UNL     1      -9.615  -3.045  -0.806  0.00  0.00    +0.056 N 
ATOM     20  O   UNL     1      -9.845  -3.780   0.263  0.00  0.00    -0.126 OA
ATOM     21  O   UNL     1     -10.570  -2.856  -1.693  0.00  0.00    -0.126 OA
ENDBRANCH   4  19
BRANCH   1  22
ATOM     22  N   UNL     1      -4.548  -0.705  -1.579  0.00  0.00    -0.236 N 
ATOM     23  H   UNL     1      -4.380  -0.160  -2.364  0.00  0.00    +0.174 HD
BRANCH  22  25
ATOM     24  C   UNL     1      -2.415  -0.341  -0.895  0.00  0.00    +0.136 C 
ATOM     25  N   UNL     1      -3.611  -0.894  -0.712  0.00  0.00    -0.190 NA
BRANCH  24  28
ATOM     26  C   UNL     1      -0.019   1.526   0.010  0.00  0.00    +0.035 C 
ATOM     27  C   UNL     1       0.002  -0.004   0.002  0.00  0.00    +0.109 C 
ATOM     28  C   UNL     1      -1.413  -0.543   0.032  0.00  0.00    +0.003 C 
ATOM     29  C   UNL     1      -1.478  -1.326   1.266  0.00  0.00    +0.005 A 
ATOM     30  C   UNL     1      -2.481  -2.067   1.873  0.00  0.00    +0.010 A 
ATOM     31  C   UNL     1      -2.240  -2.719   3.077  0.00  0.00    +0.001 A 
ATOM     32  C   UNL     1      -1.007  -2.657   3.715  0.00  0.00    +0.002 A 
ATOM     33  C   UNL     1       0.036  -1.952   3.193  0.00  0.00    +0.026 A 
ATOM     34  C   UNL     1      -0.149  -1.236   1.916  0.00  0.00    +0.043 A 
ATOM     35  N   UNL     1       0.662  -0.504   1.209  0.00  0.00    -0.377 N 
ATOM     36  H   UNL     1       1.582  -0.314   1.450  0.00  0.00    +0.160 HD
ENDBRANCH  24  28
ENDBRANCH  22  25
ENDBRANCH   1  22
TORSDOF 8
