REMARK  Name = ZINC02119064
REMARK  9 active torsions:
REMARK  status: ('A' for Active; 'I' for Inactive)
REMARK    1  A    between atoms: C_1  and  O_2
REMARK    2  A    between atoms: O_2  and  C_3
REMARK    3  A    between atoms: C_6  and  C_18
REMARK    4  A    between atoms: C_8  and  C_9
REMARK    5  A    between atoms: C_9  and  O_10
REMARK    6  A    between atoms: O_10  and  C_11
REMARK    7  A    between atoms: C_24  and  O_30
REMARK    8  A    between atoms: O_30  and  C_31
REMARK    9  A    between atoms: C_31  and  C_32
REMARK                            x       y       z     vdW  Elec       q    Type
REMARK                         _______ _______ _______ _____ _____    ______ ____
ROOT
ATOM      1  C   UNL     1       0.171   0.953  -8.441  0.00  0.00    +0.007 C 
ATOM      2  C   UNL     1       0.234   0.908  -6.932  0.00  0.00    +0.010 A 
ATOM      3  C   UNL     1      -0.668   1.526  -6.142  0.00  0.00    -0.022 A 
ATOM      4  C   UNL     1      -0.288   1.269  -4.759  0.00  0.00    +0.006 A 
ATOM      5  C   UNL     1      -0.818   1.628  -3.517  0.00  0.00    +0.056 A 
ATOM      6  C   UNL     1      -0.194   1.207  -2.360  0.00  0.00    +0.122 A 
ATOM      7  C   UNL     1       0.953   0.420  -2.427  0.00  0.00    +0.048 A 
ATOM      8  C   UNL     1       1.482   0.056  -3.644  0.00  0.00    +0.030 A 
ATOM      9  C   UNL     1       0.872   0.473  -4.822  0.00  0.00    +0.047 A 
ATOM     10  N   UNL     1       1.161   0.274  -6.158  0.00  0.00    -0.359 N 
ATOM     11  H   UNL     1       1.911  -0.240  -6.495  0.00  0.00    +0.166 HD
ATOM     12  C   UNL     1      -1.836   2.321  -6.668  0.00  0.00    +0.018 C 
ATOM     13  C   UNL     1      -2.020   1.966  -8.150  0.00  0.00    -0.076 C 
ATOM     14  N   UNL     1      -0.720   2.062  -8.847  0.00  0.00    +0.387 N 
ATOM     15  H   UNL     1      -0.876   2.017  -9.860  0.00  0.00    -0.084 HD
ATOM     16  H   UNL     1      -0.275   2.957  -8.609  0.00  0.00    -0.084 HD
ENDROOT
BRANCH   1  20
ATOM     17  C   UNL     1       4.081   1.639 -10.024  0.00  0.00    +0.126 A 
ATOM     18  C   UNL     1       3.335   2.700  -9.531  0.00  0.00    +0.046 A 
ATOM     19  C   UNL     1       2.069   2.476  -9.025  0.00  0.00    +0.006 A 
ATOM     20  C   UNL     1       1.550   1.195  -9.000  0.00  0.00    -0.055 A 
ATOM     21  C   UNL     1       2.292   0.136  -9.490  0.00  0.00    +0.013 A 
ATOM     22  C   UNL     1       3.556   0.355 -10.003  0.00  0.00    +0.031 A 
BRANCH  17  24
ATOM     23  C   UNL     1       5.801   3.204 -10.519  0.00  0.00    +0.277 C 
ATOM     24  O   UNL     1       5.324   1.857 -10.529  0.00  0.00    -0.495 OA
ENDBRANCH  17  24
BRANCH  22  25
ATOM     25  C   UNL     1       4.363  -0.799 -10.537  0.00  0.00    +0.268 C 
BRANCH  25  26
ATOM     26  O   UNL     1       3.612  -2.008 -10.405  0.00  0.00    -0.484 OA
BRANCH  26  27
ATOM     27  C   UNL     1       4.202  -3.152 -10.844  0.00  0.00    +0.156 A 
ATOM     28  C   UNL     1       5.473  -3.111 -11.395  0.00  0.00    +0.048 A 
ATOM     29  C   UNL     1       6.073  -4.276 -11.834  0.00  0.00    +0.004 A 
ATOM     30  C   UNL     1       5.402  -5.481 -11.736  0.00  0.00    +0.003 A 
ATOM     31  C   UNL     1       4.131  -5.525 -11.193  0.00  0.00    +0.042 A 
ATOM     32  C   UNL     1       3.529  -4.363 -10.746  0.00  0.00    +0.165 A 
ATOM     33  F   UNL     1       2.287  -4.406 -10.214  0.00  0.00    -0.202 F 
ENDBRANCH  26  27
ENDBRANCH  25  26
ENDBRANCH  22  25
ENDBRANCH   1  20
BRANCH   6  34
ATOM     34  O   UNL     1      -0.704   1.559  -1.150  0.00  0.00    -0.487 OA
BRANCH  34  35
ATOM     35  C   UNL     1      -0.013   1.086   0.008  0.00  0.00    +0.264 C 
BRANCH  35  36
ATOM     36  C   UNL     1      -0.718   1.572   1.248  0.00  0.00    -0.010 A 
ATOM     37  C   UNL     1      -0.360   2.779   1.819  0.00  0.00    +0.007 A 
ATOM     38  C   UNL     1      -1.010   3.227   2.953  0.00  0.00    +0.000 A 
ATOM     39  C   UNL     1      -2.012   2.463   3.523  0.00  0.00    +0.000 A 
ATOM     40  C   UNL     1      -2.366   1.254   2.955  0.00  0.00    +0.000 A 
ATOM     41  C   UNL     1      -1.719   0.808   1.818  0.00  0.00    +0.007 A 
ENDBRANCH  35  36
ENDBRANCH  34  35
ENDBRANCH   6  34
TORSDOF 8
