REMARK  Name = ZINC35890882
REMARK  11 active torsions:
REMARK  status: ('A' for Active; 'I' for Inactive)
REMARK    1  A    between atoms: C_5  and  O_7
REMARK    2  A    between atoms: O_7  and  C_8
REMARK    3  A    between atoms: C_8  and  C_10
REMARK    4  A    between atoms: C_8  and  C_29
REMARK    5  A    between atoms: C_10  and  N_11
REMARK    6  A    between atoms: N_11  and  C_12
REMARK    7  A    between atoms: N_11  and  C_22
REMARK    8  A    between atoms: C_12  and  C_13
REMARK    9  A    between atoms: C_22  and  C_23
REMARK   10  A    between atoms: N_31  and  C_32
REMARK   11  A    between atoms: C_32  and  C_33
REMARK                            x       y       z     vdW  Elec       q    Type
REMARK                         _______ _______ _______ _____ _____    ______ ____
ROOT
ATOM      1  C   UNL     1      -0.010  -2.968   0.447  0.00  0.00    +0.242 C 
ENDROOT
BRANCH   1   2
ATOM      2  C   UNL     1       0.138  -4.437   0.146  0.00  0.00    +0.252 C 
ATOM      3  O   UNL     1       1.234  -4.900  -0.090  0.00  0.00    -0.272 OA
ATOM      4  N   UNL     1      -0.947  -5.237   0.140  0.00  0.00    -0.308 N 
ATOM      5  H   UNL     1      -1.823  -4.867   0.329  0.00  0.00    +0.149 HD
BRANCH   4   6
ATOM      6  C   UNL     1      -0.803  -6.665  -0.153  0.00  0.00    +0.139 C 
BRANCH   6   7
ATOM      7  C   UNL     1      -2.155  -7.328  -0.098  0.00  0.00    -0.028 A 
ATOM      8  C   UNL     1      -2.620  -7.850   1.095  0.00  0.00    +0.005 A 
ATOM      9  C   UNL     1      -3.860  -8.459   1.147  0.00  0.00    +0.003 A 
ATOM     10  C   UNL     1      -4.636  -8.546   0.007  0.00  0.00    +0.038 A 
ATOM     11  C   UNL     1      -4.172  -8.024  -1.188  0.00  0.00    +0.124 A 
ATOM     12  C   UNL     1      -2.932  -7.409  -1.238  0.00  0.00    +0.043 A 
ATOM     13  F   UNL     1      -4.929  -8.110  -2.303  0.00  0.00    -0.205 F 
ENDBRANCH   6   7
ENDBRANCH   4   6
ENDBRANCH   1   2
BRANCH   1  14
ATOM     14  O   UNL     1       1.251  -2.318   0.281  0.00  0.00    -0.479 OA
BRANCH  14  19
ATOM     15  C   UNL     1       0.926  -1.497  -3.249  0.00  0.00    +0.004 A 
ATOM     16  C   UNL     1       2.078  -0.759  -3.450  0.00  0.00    +0.003 A 
ATOM     17  C   UNL     1       2.955  -0.543  -2.404  0.00  0.00    +0.042 A 
ATOM     18  C   UNL     1       2.681  -1.064  -1.152  0.00  0.00    +0.165 A 
ATOM     19  C   UNL     1       1.524  -1.804  -0.948  0.00  0.00    +0.157 A 
ATOM     20  C   UNL     1       0.647  -2.019  -2.001  0.00  0.00    +0.048 A 
ATOM     21  F   UNL     1       3.538  -0.853  -0.129  0.00  0.00    -0.202 F 
ENDBRANCH  14  19
ENDBRANCH   1  14
BRANCH   1  22
ATOM     22  C   UNL     1      -0.490  -2.789   1.889  0.00  0.00    -0.023 C 
BRANCH  22  23
ATOM     23  N   UNL     1      -0.744  -1.365   2.147  0.00  0.00    +0.387 N 
ATOM     24  H   UNL     1       0.087  -0.832   1.939  0.00  0.00    -0.081 HD
BRANCH  23  25
ATOM     25  C   UNL     1      -1.104  -1.180   3.559  0.00  0.00    -0.043 C 
BRANCH  25  26
ATOM     26  C   UNL     1      -1.205   0.292   3.863  0.00  0.00    -0.060 A 
ATOM     27  C   UNL     1      -0.064   1.014   4.164  0.00  0.00    +0.005 A 
ATOM     28  C   UNL     1      -0.151   2.365   4.443  0.00  0.00    +0.050 A 
ATOM     29  C   UNL     1      -1.383   2.999   4.422  0.00  0.00    +0.166 A 
ATOM     30  C   UNL     1      -2.532   2.272   4.119  0.00  0.00    +0.166 A 
ATOM     31  C   UNL     1      -2.436   0.920   3.835  0.00  0.00    +0.051 A 
ATOM     32  O   UNL     1      -3.605   3.114   4.163  0.00  0.00    -0.453 OA
ATOM     33  C   UNL     1      -3.157   4.271   4.894  0.00  0.00    +0.466 C 
ATOM     34  O   UNL     1      -1.737   4.297   4.656  0.00  0.00    -0.453 OA
ENDBRANCH  25  26
ENDBRANCH  23  25
BRANCH  23  35
ATOM     35  C   UNL     1      -1.849  -0.903   1.296  0.00  0.00    -0.046 C 
BRANCH  35  36
ATOM     36  C   UNL     1      -3.056  -1.825   1.481  0.00  0.00    +0.102 C 
ATOM     37  C   UNL     1      -4.161  -1.450   0.471  0.00  0.00    +0.032 C 
ATOM     38  C   UNL     1      -5.452  -1.612   1.319  0.00  0.00    +0.030 C 
ATOM     39  C   UNL     1      -4.945  -1.168   2.714  0.00  0.00    +0.160 C 
ATOM     40  O   UNL     1      -3.596  -1.659   2.798  0.00  0.00    -0.378 OA
ENDBRANCH  35  36
ENDBRANCH  23  35
ENDBRANCH  22  23
ENDBRANCH   1  22
TORSDOF 11
