REMARK  Name = ZINC22015281
REMARK  10 active torsions:
REMARK  status: ('A' for Active; 'I' for Inactive)
REMARK    1  A    between atoms: C_3  and  C_8
REMARK    2  A    between atoms: C_4  and  O_7
REMARK    3  A    between atoms: N_9  and  C_10
REMARK    4  A    between atoms: C_11  and  O_35
REMARK    5  A    between atoms: C_14  and  S_16
REMARK    6  A    between atoms: S_16  and  C_19
REMARK    7  A    between atoms: C_21  and  N_26
REMARK    8  A    between atoms: C_22  and  O_25
REMARK    9  A    between atoms: C_27  and  C_28
REMARK   10  A    between atoms: C_29  and  O_34
REMARK                            x       y       z     vdW  Elec       q    Type
REMARK                         _______ _______ _______ _____ _____    ______ ____
ROOT
ATOM      1  S   UNL     1       7.466   5.523   1.720  0.00  0.00    +0.025 S 
ATOM      2  O   UNL     1       6.527   5.405   2.780  0.00  0.00    -0.164 OA
ATOM      3  O   UNL     1       8.858   5.691   1.950  0.00  0.00    -0.164 OA
ENDROOT
BRANCH   1   8
ATOM      4  C   UNL     1       5.963   2.229  -0.044  0.00  0.00    +0.107 A 
ATOM      5  C   UNL     1       7.033   1.800  -0.840  0.00  0.00    +0.142 A 
ATOM      6  C   UNL     1       8.219   2.515  -0.841  0.00  0.00    +0.049 A 
ATOM      7  C   UNL     1       8.345   3.648  -0.059  0.00  0.00    +0.031 A 
ATOM      8  C   UNL     1       7.291   4.077   0.729  0.00  0.00    +0.096 A 
ATOM      9  C   UNL     1       6.100   3.379   0.736  0.00  0.00    +0.058 A 
BRANCH   4  11
ATOM     10  C   UNL     1       3.650   2.166  -0.022  0.00  0.00    +0.123 C 
ATOM     11  N   UNL     1       4.787   1.530  -0.036  0.00  0.00    -0.251 NA
BRANCH  10  14
ATOM     12  C   UNL     1      -0.017   1.381   0.010  0.00  0.00    +0.001 A 
ATOM     13  C   UNL     1       1.164   2.092   0.002  0.00  0.00    +0.013 A 
ATOM     14  C   UNL     1       2.386   1.414  -0.013  0.00  0.00    +0.034 A 
ATOM     15  C   UNL     1       2.400   0.011  -0.021  0.00  0.00    +0.125 A 
ATOM     16  C   UNL     1       1.203  -0.688  -0.013  0.00  0.00    +0.046 A 
ATOM     17  C   UNL     1       0.002  -0.004   0.002  0.00  0.00    +0.004 A 
BRANCH  15  18
ATOM     18  O   UNL     1       3.580  -0.660  -0.036  0.00  0.00    -0.506 OA
ATOM     19  H   UNL     1       3.931  -0.859   0.843  0.00  0.00    +0.292 HD
ENDBRANCH  15  18
ENDBRANCH  10  14
ENDBRANCH   4  11
BRANCH   5  20
ATOM     20  O   UNL     1       6.909   0.685  -1.607  0.00  0.00    -0.505 OA
ATOM     21  H   UNL     1       6.574   0.856  -2.498  0.00  0.00    +0.292 HD
ENDBRANCH   5  20
ENDBRANCH   1   8
BRANCH   1  22
ATOM     22  C   UNL     1       6.950   6.892   0.739  0.00  0.00    +0.096 A 
ATOM     23  C   UNL     1       7.867   7.560  -0.047  0.00  0.00    +0.058 A 
ATOM     24  C   UNL     1       7.458   8.645  -0.824  0.00  0.00    +0.107 A 
ATOM     25  C   UNL     1       6.116   9.048  -0.800  0.00  0.00    +0.142 A 
ATOM     26  C   UNL     1       5.209   8.367  -0.006  0.00  0.00    +0.049 A 
ATOM     27  C   UNL     1       5.625   7.290   0.755  0.00  0.00    +0.031 A 
BRANCH  25  28
ATOM     28  O   UNL     1       5.708  10.103  -1.552  0.00  0.00    -0.505 OA
ATOM     29  H   UNL     1       5.413   9.862  -2.441  0.00  0.00    +0.292 HD
ENDBRANCH  25  28
BRANCH  24  30
ATOM     30  N   UNL     1       8.363   9.311  -1.604  0.00  0.00    -0.251 NA
ATOM     31  C   UNL     1       9.275   8.647  -2.257  0.00  0.00    +0.123 C 
BRANCH  31  32
ATOM     32  C   UNL     1      10.248   9.363  -3.096  0.00  0.00    +0.034 A 
ATOM     33  C   UNL     1      10.201  10.763  -3.192  0.00  0.00    +0.125 A 
ATOM     34  C   UNL     1      11.123  11.427  -3.986  0.00  0.00    +0.046 A 
ATOM     35  C   UNL     1      12.082  10.713  -4.679  0.00  0.00    +0.004 A 
ATOM     36  C   UNL     1      12.131   9.332  -4.588  0.00  0.00    +0.001 A 
ATOM     37  C   UNL     1      11.227   8.655  -3.798  0.00  0.00    +0.013 A 
BRANCH  33  38
ATOM     38  O   UNL     1       9.258  11.462  -2.512  0.00  0.00    -0.506 OA
ATOM     39  H   UNL     1       9.532  11.730  -1.624  0.00  0.00    +0.292 HD
ENDBRANCH  33  38
ENDBRANCH  31  32
ENDBRANCH  24  30
ENDBRANCH   1  22
TORSDOF 10
