REMARK  Name = ZINC36146208
REMARK  8 active torsions:
REMARK  status: ('A' for Active; 'I' for Inactive)
REMARK    1  A    between atoms: C_1  and  O_2
REMARK    2  A    between atoms: O_2  and  C_3
REMARK    3  A    between atoms: C_6  and  O_33
REMARK    4  A    between atoms: C_7  and  C_9
REMARK    5  A    between atoms: C_9  and  C_10
REMARK    6  A    between atoms: C_10  and  N_11
REMARK    7  A    between atoms: C_12  and  C_14
REMARK    8  A    between atoms: O_33  and  C_34
REMARK                            x       y       z     vdW  Elec       q    Type
REMARK                         _______ _______ _______ _____ _____    ______ ____
ROOT
ATOM      1  C   UNL     1       3.845  -8.229  -1.421  0.00  0.00    +0.076 C 
ATOM      2  C   UNL     1       2.828  -8.868  -0.438  0.00  0.00    -0.003 C 
ATOM      3  C   UNL     1       3.481 -10.243  -0.157  0.00  0.00    -0.066 C 
ATOM      4  C   UNL     1       3.061 -10.724   1.241  0.00  0.00    -0.017 C 
ATOM      5  C   UNL     1       4.361 -10.727   2.077  0.00  0.00    -0.020 C 
ATOM      6  C   UNL     1       5.260  -9.719   1.321  0.00  0.00    -0.077 C 
ATOM      7  N   UNL     1       4.942  -9.971  -0.127  0.00  0.00    +0.394 N 
ATOM      8  C   UNL     1       5.196  -8.753  -0.910  0.00  0.00    +0.052 C 
ATOM      9  C   UNL     1       6.134  -9.020  -2.056  0.00  0.00    -0.027 A 
ATOM     10  C   UNL     1       6.079  -9.859  -3.146  0.00  0.00    +0.004 A 
ATOM     11  C   UNL     1       7.124  -9.885  -4.053  0.00  0.00    +0.000 A 
ATOM     12  C   UNL     1       8.222  -9.067  -3.861  0.00  0.00    +0.002 A 
ATOM     13  C   UNL     1       8.281  -8.225  -2.770  0.00  0.00    +0.023 A 
ATOM     14  C   UNL     1       7.233  -8.192  -1.853  0.00  0.00    +0.036 A 
ATOM     15  N   UNL     1       7.061  -7.438  -0.691  0.00  0.00    -0.286 N 
ATOM     16  C   UNL     1       5.893  -7.706  -0.079  0.00  0.00    +0.212 C 
ATOM     17  O   UNL     1       5.480  -7.203   0.944  0.00  0.00    -0.277 OA
ATOM     18  H   UNL     1       7.709  -6.795  -0.362  0.00  0.00    +0.155 HD
ATOM     19  H   UNL     1       5.463 -10.757  -0.485  0.00  0.00    -0.079 HD
ENDROOT
BRANCH   1  21
ATOM     20  N   UNL     1       4.321  -5.978  -2.330  0.00  0.00    -0.315 N 
ATOM     21  C   UNL     1       3.791  -6.725  -1.341  0.00  0.00    +0.216 C 
ATOM     22  O   UNL     1       3.271  -6.186  -0.387  0.00  0.00    -0.276 OA
ATOM     23  H   UNL     1       4.737  -6.408  -3.093  0.00  0.00    +0.149 HD
BRANCH  20  24
ATOM     24  C   UNL     1       4.269  -4.516  -2.252  0.00  0.00    +0.109 C 
BRANCH  24  25
ATOM     25  C   UNL     1       4.936  -3.915  -3.491  0.00  0.00    +0.057 C 
BRANCH  25  30
ATOM     26  C   UNL     1       3.809  -0.338  -3.960  0.00  0.00    +0.121 A 
ATOM     27  C   UNL     1       4.787   0.354  -3.261  0.00  0.00    +0.049 A 
ATOM     28  C   UNL     1       5.810  -0.334  -2.639  0.00  0.00    +0.049 A 
ATOM     29  C   UNL     1       5.859  -1.718  -2.713  0.00  0.00    +0.124 A 
ATOM     30  C   UNL     1       4.882  -2.411  -3.411  0.00  0.00    -0.001 A 
ATOM     31  C   UNL     1       3.856  -1.723  -4.029  0.00  0.00    +0.053 A 
BRANCH  26  33
ATOM     32  C   UNL     1       2.817   1.764  -4.461  0.00  0.00    +0.277 C 
ATOM     33  O   UNL     1       2.802   0.340  -4.573  0.00  0.00    -0.495 OA
ENDBRANCH  26  33
BRANCH  29  34
ATOM     34  O   UNL     1       6.867  -2.396  -2.101  0.00  0.00    -0.495 OA
ATOM     35  C   UNL     1       7.840  -1.619  -1.399  0.00  0.00    +0.277 C 
ENDBRANCH  29  34
ENDBRANCH  25  30
ENDBRANCH  24  25
ENDBRANCH  20  24
ENDBRANCH   1  21
TORSDOF 6
