REMARK  Name = ZINC12203559
REMARK  8 active torsions:
REMARK  status: ('A' for Active; 'I' for Inactive)
REMARK    1  A    between atoms: C_1  and  C_2
REMARK    2  A    between atoms: C_4  and  C_14
REMARK    3  A    between atoms: C_8  and  C_13
REMARK    4  A    between atoms: C_9  and  C_12
REMARK    5  A    between atoms: C_14  and  N_15
REMARK    6  A    between atoms: C_16  and  C_18
REMARK    7  A    between atoms: C_18  and  O_19
REMARK    8  A    between atoms: O_19  and  C_20
REMARK                            x       y       z     vdW  Elec       q    Type
REMARK                         _______ _______ _______ _____ _____    ______ ____
ROOT
ATOM      1  N   UNL     1       2.088   4.341   0.005  0.00  0.00    -0.308 N 
ATOM      2  C   UNL     1       1.030   3.506   0.011  0.00  0.00    +0.251 C 
ATOM      3  O   UNL     1      -0.097   3.954   0.024  0.00  0.00    -0.272 OA
ATOM      4  H   UNL     1       2.989   3.983  -0.005  0.00  0.00    +0.149 HD
ENDROOT
BRANCH   1   5
ATOM      5  C   UNL     1       1.876   5.791   0.015  0.00  0.00    +0.141 C 
BRANCH   5   9
ATOM      6  C   UNL     1       5.519   8.178   2.476  0.00  0.00    +0.044 C 
ATOM      7  C   UNL     1       4.963   7.641   1.183  0.00  0.00    -0.049 A 
ATOM      8  C   UNL     1       3.736   6.992   1.177  0.00  0.00    +0.010 A 
ATOM      9  C   UNL     1       3.209   6.493   0.006  0.00  0.00    -0.006 A 
ATOM     10  C   UNL     1       3.916   6.635  -1.184  0.00  0.00    +0.052 A 
ATOM     11  C   UNL     1       5.157   7.298  -1.174  0.00  0.00    +0.003 A 
ATOM     12  C   UNL     1       5.671   7.795   0.024  0.00  0.00    +0.013 A 
ATOM     13  C   UNL     1       5.632   7.287  -2.560  0.00  0.00    -0.022 A 
ATOM     14  C   UNL     1       4.698   6.657  -3.290  0.00  0.00    +0.017 A 
ATOM     15  N   UNL     1       3.664   6.263  -2.486  0.00  0.00    -0.358 N 
ATOM     16  H   UNL     1       2.873   5.789  -2.787  0.00  0.00    +0.166 HD
ATOM     17  C   UNL     1       4.777   6.419  -4.776  0.00  0.00    +0.063 C 
ATOM     18  C   UNL     1       6.924   7.873  -3.069  0.00  0.00    +0.046 C 
ENDBRANCH   5   9
ENDBRANCH   1   5
BRANCH   2  19
ATOM     19  C   UNL     1       1.248   2.015   0.001  0.00  0.00    +0.326 C 
BRANCH  19  20
ATOM     20  O   UNL     1      -0.016   1.349   0.009  0.00  0.00    -0.466 OA
BRANCH  20  21
ATOM     21  C   UNL     1       0.002  -0.004   0.002  0.00  0.00    +0.226 A 
ATOM     22  C   UNL     1      -1.202  -0.747   0.009  0.00  0.00    +0.062 A 
ATOM     23  C   UNL     1      -2.458  -0.129   0.026  0.00  0.00    +0.015 A 
ATOM     24  C   UNL     1      -3.584  -0.897   0.033  0.00  0.00    +0.001 A 
ATOM     25  C   UNL     1      -3.502  -2.287   0.024  0.00  0.00    +0.002 A 
ATOM     26  C   UNL     1      -2.294  -2.919   0.008  0.00  0.00    +0.028 A 
ATOM     27  C   UNL     1      -1.116  -2.161   0.001  0.00  0.00    +0.078 A 
ATOM     28  N   UNL     1       0.097  -2.732  -0.015  0.00  0.00    -0.235 NA
ATOM     29  C   UNL     1       1.180  -1.992  -0.021  0.00  0.00    +0.225 A 
ATOM     30  N   UNL     1       1.147  -0.668  -0.018  0.00  0.00    -0.201 NA
ENDBRANCH  20  21
ENDBRANCH  19  20
ENDBRANCH   2  19
TORSDOF 5
