REMARK  Name = ZINC40662419
REMARK  6 active torsions:
REMARK  status: ('A' for Active; 'I' for Inactive)
REMARK    1  A    between atoms: C_1  and  N_2
REMARK    2  A    between atoms: N_2  and  C_3
REMARK    3  A    between atoms: C_3  and  C_4
REMARK    4  A    between atoms: C_11  and  N_24
REMARK    5  A    between atoms: C_12  and  N_16
REMARK    6  A    between atoms: N_16  and  C_17
REMARK                            x       y       z     vdW  Elec       q    Type
REMARK                         _______ _______ _______ _____ _____    ______ ____
ROOT
ATOM      1  C   UNL     1      -1.787   0.112   0.480  0.00  0.00    +0.131 C 
ATOM      2  N   UNL     1      -0.429  -0.021  -0.054  0.00  0.00    -0.312 N 
ATOM      3  C   UNL     1      -0.202  -0.791  -1.189  0.00  0.00    +0.147 A 
ATOM      4  C   UNL     1      -0.172  -0.199  -2.453  0.00  0.00    +0.106 A 
ATOM      5  C   UNL     1       0.061  -1.018  -3.559  0.00  0.00    +0.149 A 
ATOM      6  N   UNL     1       0.243  -2.323  -3.368  0.00  0.00    -0.219 NA
ATOM      7  C   UNL     1       0.207  -2.841  -2.158  0.00  0.00    +0.225 A 
ATOM      8  N   UNL     1      -0.004  -2.103  -1.087  0.00  0.00    -0.219 NA
ENDROOT
BRANCH   4   9
ATOM      9  N   UNL     1      -0.370   1.183  -2.608  0.00  0.00    -0.353 N 
ATOM     10  H   UNL     1      -0.453   1.751  -1.826  0.00  0.00    +0.143 HD
ATOM     11  H   UNL     1      -0.424   1.569  -3.496  0.00  0.00    +0.143 HD
ENDBRANCH   4   9
BRANCH   5  12
ATOM     12  N   UNL     1       0.101  -0.479  -4.841  0.00  0.00    -0.298 N 
ATOM     13  H   UNL     1       0.050   0.481  -4.965  0.00  0.00    +0.154 HD
BRANCH  12  14
ATOM     14  C   UNL     1       0.213  -1.323  -5.950  0.00  0.00    +0.032 A 
ATOM     15  C   UNL     1       0.954  -0.924  -7.055  0.00  0.00    +0.024 A 
ATOM     16  C   UNL     1       1.064  -1.759  -8.149  0.00  0.00    +0.016 A 
ATOM     17  C   UNL     1       0.437  -2.992  -8.145  0.00  0.00    +0.013 A 
ATOM     18  C   UNL     1      -0.302  -3.392  -7.046  0.00  0.00    +0.016 A 
ATOM     19  C   UNL     1      -0.411  -2.564  -5.947  0.00  0.00    +0.024 A 
ATOM     20  I   UNL     1       0.605  -4.255  -9.808  0.00  0.00    -0.044 I 
ENDBRANCH  12  14
ENDBRANCH   5  12
BRANCH   2  21
ATOM     21  C   UNL     1       0.688   0.657   0.607  0.00  0.00    +0.141 C 
BRANCH  21  22
ATOM     22  C   UNL     1       1.281  -0.254   1.651  0.00  0.00    -0.030 A 
ATOM     23  C   UNL     1       0.796  -0.230   2.945  0.00  0.00    +0.005 A 
ATOM     24  C   UNL     1       1.340  -1.065   3.903  0.00  0.00    +0.000 A 
ATOM     25  C   UNL     1       2.369  -1.924   3.567  0.00  0.00    +0.000 A 
ATOM     26  C   UNL     1       2.854  -1.949   2.272  0.00  0.00    +0.000 A 
ATOM     27  C   UNL     1       2.307  -1.117   1.313  0.00  0.00    +0.005 A 
ENDBRANCH  21  22
ENDBRANCH   2  21
TORSDOF 5
