REMARK  Name = ZINC09876795
REMARK  6 active torsions:
REMARK  status: ('A' for Active; 'I' for Inactive)
REMARK    1  A    between atoms: C_1  and  C_2
REMARK    2  A    between atoms: C_2  and  C_26
REMARK    3  A    between atoms: N_5  and  C_9
REMARK    4  A    between atoms: C_9  and  C_10
REMARK    5  A    between atoms: N_12  and  C_13
REMARK    6  A    between atoms: N_12  and  C_21
REMARK                            x       y       z     vdW  Elec       q    Type
REMARK                         _______ _______ _______ _____ _____    ______ ____
ROOT
ATOM      1  C   UNL     1      -0.033   1.520  -0.132  0.00  0.00    +0.047 C 
ATOM      2  C   UNL     1      -0.006  -0.006  -0.014  0.00  0.00    +0.136 C 
ATOM      3  C   UNL     1       0.742  -0.618  -1.182  0.00  0.00    +0.251 C 
ATOM      4  O   UNL     1       0.456  -0.538  -2.357  0.00  0.00    -0.272 OA
ATOM      5  N   UNL     1       1.792  -1.268  -0.641  0.00  0.00    -0.215 N 
ATOM      6  C   UNL     1       1.811  -1.153   0.691  0.00  0.00    +0.310 C 
ATOM      7  O   UNL     1       2.661  -1.654   1.401  0.00  0.00    -0.252 OA
ATOM      8  N   UNL     1       0.783  -0.421   1.159  0.00  0.00    -0.281 N 
ATOM      9  H   UNL     1       0.598  -0.208   2.087  0.00  0.00    +0.152 HD
ENDROOT
BRANCH   2  10
ATOM     10  C   UNL     1      -1.407  -0.554   0.068  0.00  0.00    -0.008 A 
ATOM     11  C   UNL     1      -1.799  -1.268   1.159  0.00  0.00    +0.007 A 
ATOM     12  C   UNL     1      -3.091  -1.783   1.253  0.00  0.00    +0.001 A 
ATOM     13  C   UNL     1      -3.997  -1.588   0.256  0.00  0.00    +0.008 A 
ATOM     14  C   UNL     1      -3.628  -0.857  -0.885  0.00  0.00    -0.018 A 
ATOM     15  C   UNL     1      -2.317  -0.328  -0.978  0.00  0.00    -0.012 A 
ATOM     16  C   UNL     1      -1.950   0.409  -2.118  0.00  0.00    +0.009 A 
ATOM     17  C   UNL     1      -2.858   0.608  -3.111  0.00  0.00    +0.001 A 
ATOM     18  C   UNL     1      -4.150   0.093  -3.017  0.00  0.00    +0.001 A 
ATOM     19  C   UNL     1      -4.536  -0.636  -1.935  0.00  0.00    +0.008 A 
ENDBRANCH   2  10
BRANCH   5  20
ATOM     20  C   UNL     1       2.789  -2.009  -1.418  0.00  0.00    +0.213 C 
BRANCH  20  21
ATOM     21  C   UNL     1       3.918  -1.087  -1.797  0.00  0.00    +0.234 C 
ATOM     22  O   UNL     1       3.938   0.051  -1.379  0.00  0.00    -0.274 OA
ATOM     23  N   UNL     1       4.906  -1.526  -2.602  0.00  0.00    -0.292 N 
BRANCH  23  24
ATOM     24  C   UNL     1       5.948  -0.601  -3.055  0.00  0.00    +0.099 C 
ATOM     25  C   UNL     1       6.671   0.002  -1.839  0.00  0.00    +0.046 C 
ATOM     26  C   UNL     1       7.540   1.203  -2.284  0.00  0.00    +0.168 C 
ATOM     27  S   UNL     1       6.645   1.822  -3.767  0.00  0.00    -0.029 S 
ATOM     28  O   UNL     1       7.486   1.688  -4.904  0.00  0.00    -0.174 OA
ATOM     29  O   UNL     1       6.072   3.087  -3.466  0.00  0.00    -0.174 OA
ATOM     30  C   UNL     1       5.303   0.563  -3.861  0.00  0.00    +0.188 C 
ENDBRANCH  23  24
BRANCH  23  31
ATOM     31  C   UNL     1       4.937  -2.928  -3.025  0.00  0.00    +0.076 C 
ATOM     32  C   UNL     1       6.223  -3.607  -2.509  0.00  0.00    +0.022 C 
ATOM     33  C   UNL     1       6.634  -4.563  -3.655  0.00  0.00    +0.002 C 
ATOM     34  C   UNL     1       6.290  -3.744  -4.924  0.00  0.00    +0.002 C 
ATOM     35  C   UNL     1       4.980  -3.016  -4.560  0.00  0.00    +0.022 C 
ENDBRANCH  23  31
ENDBRANCH  20  21
ENDBRANCH   5  20
TORSDOF 5
