REMARK  Name = ZINC00523106
REMARK  5 active torsions:
REMARK  status: ('A' for Active; 'I' for Inactive)
REMARK    1  A    between atoms: C_1  and  C_2
REMARK    2  A    between atoms: C_2  and  C_3
REMARK    3  A    between atoms: C_6  and  C_9
REMARK    4  A    between atoms: C_12  and  C_19
REMARK    5  A    between atoms: C_22  and  C_25
REMARK                            x       y       z     vdW  Elec       q    Type
REMARK                         _______ _______ _______ _____ _____    ______ ____
ROOT
ATOM      1  C   UNL     1      -5.419  -2.005   0.043  0.00  0.00    +0.147 C 
ATOM      2  C   UNL     1      -6.341  -1.020  -0.685  0.00  0.00    +0.087 C 
ATOM      3  C   UNL     1      -7.636  -1.677  -1.073  0.00  0.00    +0.055 C 
ATOM      4  N   UNL     1      -7.712  -2.935  -1.414  0.00  0.00    -0.215 NA
ATOM      5  C   UNL     1      -6.589  -3.699  -1.347  0.00  0.00    +0.249 A 
ATOM      6  N   UNL     1      -5.478  -3.285  -0.661  0.00  0.00    -0.222 N 
ATOM      7  N   UNL     1      -4.528  -4.292  -0.796  0.00  0.00    -0.156 NA
ATOM      8  C   UNL     1      -5.084  -5.244  -1.509  0.00  0.00    +0.247 A 
ATOM      9  N   UNL     1      -6.329  -4.886  -1.835  0.00  0.00    -0.198 NA
ENDROOT
BRANCH   3  10
ATOM     10  C   UNL     1      -8.867  -0.871  -1.068  0.00  0.00    -0.004 A 
ATOM     11  C   UNL     1      -8.820   0.481  -0.712  0.00  0.00    +0.010 A 
ATOM     12  C   UNL     1      -9.979   1.230  -0.710  0.00  0.00    +0.004 A 
ATOM     13  C   UNL     1     -11.185   0.646  -1.057  0.00  0.00    -0.050 A 
ATOM     14  C   UNL     1     -11.239  -0.691  -1.410  0.00  0.00    +0.004 A 
ATOM     15  C   UNL     1     -10.089  -1.451  -1.423  0.00  0.00    +0.010 A 
ATOM     16  C   UNL     1     -12.445   1.472  -1.051  0.00  0.00    +0.044 C 
ENDBRANCH   3  10
BRANCH   1  20
ATOM     17  C   UNL     1      -1.412  -0.526   0.013  0.00  0.00    -0.048 A 
ATOM     18  C   UNL     1      -2.051  -0.766   1.215  0.00  0.00    +0.004 A 
ATOM     19  C   UNL     1      -3.348  -1.244   1.225  0.00  0.00    +0.006 A 
ATOM     20  C   UNL     1      -4.006  -1.482   0.032  0.00  0.00    -0.023 A 
ATOM     21  C   UNL     1      -3.367  -1.241  -1.170  0.00  0.00    +0.006 A 
ATOM     22  C   UNL     1      -2.072  -0.758  -1.179  0.00  0.00    +0.004 A 
BRANCH  17  24
ATOM     23  C   UNL     1      -0.019   1.526   0.010  0.00  0.00    +0.009 C 
ATOM     24  C   UNL     1       0.002  -0.004   0.002  0.00  0.00    +0.032 C 
ENDBRANCH  17  24
ENDBRANCH   1  20
TORSDOF 3
