REMARK  Name = ZINC24246861
REMARK  7 active torsions:
REMARK  status: ('A' for Active; 'I' for Inactive)
REMARK    1  A    between atoms: C_1  and  C_2
REMARK    2  A    between atoms: C_2  and  C_4
REMARK    3  A    between atoms: C_2  and  N_17
REMARK    4  A    between atoms: N_6  and  C_7
REMARK    5  A    between atoms: N_20  and  C_23
REMARK    6  A    between atoms: C_23  and  C_24
REMARK    7  A    between atoms: N_26  and  C_27
REMARK                            x       y       z     vdW  Elec       q    Type
REMARK                         _______ _______ _______ _____ _____    ______ ____
ROOT
ATOM      1  N   UNL     1      -4.599  -4.229   1.491  0.00  0.00    +0.389 N 
ATOM      2  C   UNL     1      -3.978  -4.653   0.228  0.00  0.00    -0.062 C 
ATOM      3  C   UNL     1      -2.526  -4.170   0.190  0.00  0.00    +0.066 C 
ATOM      4  N   UNL     1      -2.495  -2.707   0.324  0.00  0.00    -0.298 NA
ATOM      5  C   UNL     1      -3.116  -2.283   1.586  0.00  0.00    +0.066 C 
ATOM      6  C   UNL     1      -4.568  -2.766   1.624  0.00  0.00    -0.062 C 
ATOM      7  H   UNL     1      -4.014  -4.659   2.318  0.00  0.00    -0.081 HD
ENDROOT
BRANCH   1   9
ATOM      8  C   UNL     1      -6.839  -4.104   0.509  0.00  0.00    -0.004 C 
ATOM      9  C   UNL     1      -5.973  -4.739   1.599  0.00  0.00    +0.016 C 
BRANCH   9  10
ATOM     10  C   UNL     1      -6.533  -4.390   2.953  0.00  0.00    +0.200 C 
ATOM     11  O   UNL     1      -5.855  -3.777   3.750  0.00  0.00    -0.278 OA
ATOM     12  N   UNL     1      -7.788  -4.759   3.279  0.00  0.00    -0.311 N 
ATOM     13  H   UNL     1      -8.403  -5.315   2.556  0.00  0.00    +0.149 HD
BRANCH  12  14
ATOM     14  C   UNL     1      -8.333  -4.420   4.596  0.00  0.00    +0.035 C 
ATOM     15  C   UNL     1      -8.338  -2.900   4.769  0.00  0.00    +0.029 C 
ATOM     16  C   UNL     1      -8.907  -2.546   6.145  0.00  0.00    -0.008 C 
ATOM     17  C   UNL     1     -10.337  -3.077   6.257  0.00  0.00    +0.007 C 
ATOM     18  C   UNL     1     -10.332  -4.597   6.083  0.00  0.00    -0.008 C 
ATOM     19  C   UNL     1      -9.763  -4.951   4.708  0.00  0.00    +0.029 C 
ATOM     20  C   UNL     1      -9.466  -5.232   7.173  0.00  0.00    +0.007 C 
ATOM     21  C   UNL     1      -8.035  -4.701   7.060  0.00  0.00    -0.008 C 
ATOM     22  C   UNL     1      -8.040  -3.180   7.234  0.00  0.00    +0.007 C 
ATOM     23  C   UNL     1      -7.466  -5.055   5.685  0.00  0.00    +0.029 C 
ENDBRANCH  12  14
ENDBRANCH   9  10
ENDBRANCH   1   9
BRANCH   4  24
ATOM     24  C   UNL     1      -1.121  -2.197   0.216  0.00  0.00    +0.180 C 
BRANCH  24  25
ATOM     25  C   UNL     1      -1.150  -0.694   0.111  0.00  0.00    +0.231 C 
ATOM     26  O   UNL     1      -2.211  -0.106   0.124  0.00  0.00    -0.274 OA
ATOM     27  N   UNL     1       0.002  -0.004   0.002  0.00  0.00    -0.284 N 
ATOM     28  H   UNL     1       0.958  -0.541  -0.087  0.00  0.00    +0.155 HD
BRANCH  27  29
ATOM     29  C   UNL     1      -0.018   1.395   0.002  0.00  0.00    +0.033 A 
ATOM     30  C   UNL     1      -1.068   2.076  -0.598  0.00  0.00    +0.023 A 
ATOM     31  C   UNL     1      -1.087   3.457  -0.592  0.00  0.00    +0.002 A 
ATOM     32  C   UNL     1      -0.056   4.162   0.002  0.00  0.00    +0.000 A 
ATOM     33  C   UNL     1       0.994   3.486   0.596  0.00  0.00    +0.002 A 
ATOM     34  C   UNL     1       1.016   2.106   0.598  0.00  0.00    +0.023 A 
ENDBRANCH  27  29
ENDBRANCH  24  25
ENDBRANCH   4  24
TORSDOF 6
