REMARK  Name = ZINC20785333
REMARK  7 active torsions:
REMARK  status: ('A' for Active; 'I' for Inactive)
REMARK    1  A    between atoms: C_1  and  C_2
REMARK    2  A    between atoms: C_4  and  C_14
REMARK    3  A    between atoms: C_5  and  C_13
REMARK    4  A    between atoms: N_6  and  C_7
REMARK    5  A    between atoms: N_16  and  N_17
REMARK    6  A    between atoms: C_18  and  C_19
REMARK    7  A    between atoms: C_23  and  N_25
REMARK                            x       y       z     vdW  Elec       q    Type
REMARK                         _______ _______ _______ _____ _____    ______ ____
ROOT
ATOM      1  C   UNL     1      -2.552   5.448   0.044  0.00  0.00    +0.265 C 
ATOM      2  O   UNL     1      -1.506   6.068   0.042  0.00  0.00    -0.268 OA
ATOM      3  N   UNL     1      -2.537   4.100   0.036  0.00  0.00    -0.203 N 
ATOM      4  H   UNL     1      -3.484   3.540   0.038  0.00  0.00    +0.178 HD
ENDROOT
BRANCH   1   8
ATOM      5  C   UNL     1      -7.549   6.483   0.074  0.00  0.00    +0.064 C 
ATOM      6  C   UNL     1      -6.047   6.606   0.067  0.00  0.00    +0.022 A 
ATOM      7  C   UNL     1      -5.178   5.579   0.057  0.00  0.00    +0.036 A 
ATOM      8  C   UNL     1      -3.835   6.170   0.054  0.00  0.00    +0.059 A 
ATOM      9  C   UNL     1      -4.015   7.526   0.068  0.00  0.00    +0.033 A 
ATOM     10  N   UNL     1      -5.345   7.779   0.070  0.00  0.00    -0.317 N 
ATOM     11  C   UNL     1      -2.920   8.561   0.075  0.00  0.00    +0.064 C 
BRANCH  10  12
ATOM     12  C   UNL     1      -5.920   9.057   0.080  0.00  0.00    +0.047 A 
ATOM     13  C   UNL     1      -5.742   9.908  -1.003  0.00  0.00    +0.026 A 
ATOM     14  C   UNL     1      -6.313  11.165  -0.992  0.00  0.00    +0.002 A 
ATOM     15  C   UNL     1      -7.053  11.581   0.100  0.00  0.00    +0.000 A 
ATOM     16  C   UNL     1      -7.227  10.738   1.182  0.00  0.00    +0.002 A 
ATOM     17  C   UNL     1      -6.663   9.478   1.175  0.00  0.00    +0.026 A 
ENDBRANCH  10  12
ENDBRANCH   1   8
BRANCH   3  18
ATOM     18  N   UNL     1      -1.316   3.413   0.027  0.00  0.00    -0.187 NA
ATOM     19  C   UNL     1      -1.302   2.116   0.020  0.00  0.00    +0.138 C 
BRANCH  19  20
ATOM     20  C   UNL     1      -0.017   1.393   0.010  0.00  0.00    -0.003 A 
ATOM     21  C   UNL     1       1.187   2.102   0.002  0.00  0.00    +0.011 A 
ATOM     22  C   UNL     1       2.385   1.419  -0.013  0.00  0.00    +0.023 A 
ATOM     23  C   UNL     1       2.397   0.034  -0.021  0.00  0.00    +0.071 A 
ATOM     24  C   UNL     1       1.208  -0.674  -0.013  0.00  0.00    +0.145 A 
ATOM     25  C   UNL     1       0.002  -0.004   0.002  0.00  0.00    +0.043 A 
ATOM     26 CL   UNL     1       3.910  -0.817  -0.040  0.00  0.00    -0.081 Cl
BRANCH  24  27
ATOM     27  N   UNL     1       1.230  -2.154  -0.021  0.00  0.00    +0.058 N 
ATOM     28  O   UNL     1       0.184  -2.779  -0.014  0.00  0.00    -0.126 OA
ATOM     29  O   UNL     1       2.293  -2.748  -0.034  0.00  0.00    -0.126 OA
ENDBRANCH  24  27
ENDBRANCH  19  20
ENDBRANCH   3  18
TORSDOF 5
