REMARK  Name = ZINC36153471
REMARK  2 active torsions:
REMARK  status: ('A' for Active; 'I' for Inactive)
REMARK    1  A    between atoms: C_3  and  C_6
REMARK    2  A    between atoms: C_13  and  C_16
REMARK                            x       y       z     vdW  Elec       q    Type
REMARK                         _______ _______ _______ _____ _____    ______ ____
ROOT
ATOM      1  C   UNL     1       3.761   1.845  -0.024  0.00  0.00    +0.134 C 
ATOM      2  C   UNL     1       4.329   1.788   1.402  0.00  0.00    +0.106 C 
ATOM      3  S   UNL     1       5.921   2.685   1.379  0.00  0.00    -0.082 S 
ATOM      4  C   UNL     1       6.589   2.122  -0.157  0.00  0.00    +0.209 A 
ATOM      5  N   UNL     1       7.787   2.269  -0.636  0.00  0.00    -0.121 NA
ATOM      6  N   UNL     1       7.853   1.716  -1.799  0.00  0.00    -0.123 NA
ATOM      7  C   UNL     1       6.701   1.187  -2.112  0.00  0.00    +0.255 A 
ATOM      8  N   UNL     1       5.850   1.417  -1.070  0.00  0.00    -0.217 N 
ATOM      9  N   UNL     1       4.558   1.027  -0.937  0.00  0.00    -0.272 N 
ATOM     10  H   UNL     1       4.498   0.050  -0.693  0.00  0.00    +0.167 HD
ENDROOT
BRANCH   1  13
ATOM     11  C   UNL     1      -0.016   1.351   0.009  0.00  0.00    +0.008 A 
ATOM     12  C   UNL     1       1.183   2.038   0.002  0.00  0.00    +0.013 A 
ATOM     13  C   UNL     1       2.343   1.336  -0.013  0.00  0.00    +0.012 A 
ATOM     14  S   UNL     1       1.754  -0.349  -0.017  0.00  0.00    -0.100 S 
ATOM     15  C   UNL     1       0.002  -0.004   0.002  0.00  0.00    +0.045 A 
ENDBRANCH   1  13
BRANCH   7  16
ATOM     16  C   UNL     1       6.371   0.457  -3.388  0.00  0.00    +0.454 C 
ATOM     17  F   UNL     1       7.555   0.123  -4.054  0.00  0.00    -0.163 F 
ATOM     18  F   UNL     1       5.660  -0.710  -3.088  0.00  0.00    -0.163 F 
ATOM     19  F   UNL     1       5.592   1.280  -4.208  0.00  0.00    -0.163 F 
ENDBRANCH   7  16
TORSDOF 2
