REMARK  Name = ZINC06410007
REMARK  7 active torsions:
REMARK  status: ('A' for Active; 'I' for Inactive)
REMARK    1  A    between atoms: C_1  and  C_2
REMARK    2  A    between atoms: C_7  and  C_14
REMARK    3  A    between atoms: C_14  and  C_16
REMARK    4  A    between atoms: C_14  and  N_73
REMARK    5  A    between atoms: N_20  and  C_21
REMARK    6  A    between atoms: C_29  and  C_32
REMARK    7  A    between atoms: C_32  and  C_33
REMARK                            x       y       z     vdW  Elec       q    Type
REMARK                         _______ _______ _______ _____ _____    ______ ____
ROOT
ATOM      1  C   UNL     1       3.510   0.737  -0.027  0.00  0.00    +0.039 C 
ENDROOT
BRANCH   1   8
ATOM      2  C   UNL     1       6.442   1.893  -7.354  0.00  0.00    +0.044 C 
ATOM      3  C   UNL     1       5.983   1.462  -5.985  0.00  0.00    -0.048 A 
ATOM      4  C   UNL     1       6.294   0.189  -5.526  0.00  0.00    +0.004 A 
ATOM      5  C   UNL     1       5.888  -0.222  -4.288  0.00  0.00    +0.010 A 
ATOM      6  C   UNL     1       5.152   0.647  -3.476  0.00  0.00    -0.001 A 
ATOM      7  C   UNL     1       4.700   0.240  -2.144  0.00  0.00    +0.017 A 
ATOM      8  C   UNL     1       3.990   1.125  -1.402  0.00  0.00    +0.011 A 
ATOM      9  C   UNL     1       3.693   2.406  -1.915  0.00  0.00    +0.251 A 
ATOM     10  O   UNL     1       3.049   3.184  -1.233  0.00  0.00    -0.268 OA
ATOM     11  N   UNL     1       4.108   2.791  -3.134  0.00  0.00    -0.322 N 
ATOM     12  H   UNL     1       3.890   3.680  -3.454  0.00  0.00    +0.169 HD
ATOM     13  C   UNL     1       4.835   1.938  -3.938  0.00  0.00    +0.049 A 
ATOM     14  C   UNL     1       5.259   2.334  -5.203  0.00  0.00    +0.029 A 
ENDBRANCH   1   8
BRANCH   1  20
ATOM     15  C   UNL     1       5.444   1.862   0.898  0.00  0.00    -0.077 C 
ATOM     16  C   UNL     1       5.886   2.997   1.824  0.00  0.00    -0.015 C 
ATOM     17  C   UNL     1       5.438   2.685   3.255  0.00  0.00    -0.010 C 
ATOM     18  C   UNL     1       3.918   2.498   3.276  0.00  0.00    -0.015 C 
ATOM     19  C   UNL     1       3.534   1.377   2.307  0.00  0.00    -0.077 C 
ATOM     20  N   UNL     1       3.971   1.750   0.945  0.00  0.00    +0.389 N 
ATOM     21  H   UNL     1       3.559   2.658   0.700  0.00  0.00    -0.080 HD
BRANCH  17  22
ATOM     22  C   UNL     1       5.823   3.844   4.177  0.00  0.00    +0.038 C 
BRANCH  22  23
ATOM     23  C   UNL     1       7.324   3.949   4.251  0.00  0.00    -0.047 A 
ATOM     24  C   UNL     1       8.019   3.254   5.224  0.00  0.00    +0.003 A 
ATOM     25  C   UNL     1       9.396   3.347   5.290  0.00  0.00    +0.000 A 
ATOM     26  C   UNL     1      10.079   4.142   4.388  0.00  0.00    +0.000 A 
ATOM     27  C   UNL     1       9.384   4.840   3.417  0.00  0.00    +0.000 A 
ATOM     28  C   UNL     1       8.007   4.743   3.349  0.00  0.00    +0.003 A 
ENDBRANCH  22  23
ENDBRANCH  17  22
ENDBRANCH   1  20
BRANCH   1  29
ATOM     29  C   UNL     1       2.004   0.697  -0.013  0.00  0.00    +0.143 A 
ATOM     30  N   UNL     1       1.194   1.728  -0.000  0.00  0.00    -0.115 NA
ATOM     31  N   UNL     1      -0.015   1.283   0.009  0.00  0.00    -0.023 NA
ATOM     32  N   UNL     1       0.002  -0.004   0.002  0.00  0.00    -0.044 NA
ATOM     33  N   UNL     1       1.229  -0.403  -0.012  0.00  0.00    -0.227 N 
BRANCH  33  34
ATOM     34  C   UNL     1       1.691  -1.793  -0.024  0.00  0.00    +0.111 C 
ATOM     35  C   UNL     1       1.156  -2.498  -1.272  0.00  0.00    +0.027 C 
ATOM     36  C   UNL     1       1.639  -3.950  -1.285  0.00  0.00    +0.002 C 
ATOM     37  C   UNL     1       1.128  -4.668  -0.035  0.00  0.00    +0.000 C 
ATOM     38  C   UNL     1       1.663  -3.964   1.213  0.00  0.00    +0.002 C 
ATOM     39  C   UNL     1       1.180  -2.512   1.226  0.00  0.00    +0.027 C 
ENDBRANCH  33  34
ENDBRANCH   1  29
TORSDOF 6
