REMARK  Name = ZINC35326744
REMARK  3 active torsions:
REMARK  status: ('A' for Active; 'I' for Inactive)
REMARK    1  A    between atoms: C_1  and  N_2
REMARK    2  A    between atoms: C_5  and  C_10
REMARK    3  A    between atoms: N_19  and  C_21
REMARK                            x       y       z     vdW  Elec       q    Type
REMARK                         _______ _______ _______ _____ _____    ______ ____
ROOT
ATOM      1  C   UNL     1      -0.018   1.461   0.010  0.00  0.00    +0.139 C 
ATOM      2  N   UNL     1       0.002  -0.004   0.002  0.00  0.00    -0.260 N 
ATOM      3  C   UNL     1      -1.193  -0.666   0.004  0.00  0.00    +0.042 C 
ATOM      4  C   UNL     1      -1.245  -2.014  -0.003  0.00  0.00    +0.058 C 
ATOM      5  C   UNL     1       0.068  -2.770  -0.013  0.00  0.00    +0.142 C 
ATOM      6  N   UNL     1       1.301  -1.964  -0.015  0.00  0.00    -0.288 N 
ATOM      7  C   UNL     1       1.191  -0.621  -0.013  0.00  0.00    +0.307 C 
ATOM      8  O   UNL     1       2.203   0.052  -0.019  0.00  0.00    -0.252 OA
ATOM      9  C   UNL     1      -2.585  -2.452   0.002  0.00  0.00    +0.251 C 
ATOM     10  O   UNL     1      -2.926  -3.621  -0.003  0.00  0.00    -0.270 OA
ATOM     11  N   UNL     1      -3.437  -1.411   0.011  0.00  0.00    -0.262 N 
ATOM     12  C   UNL     1      -2.626  -0.184   0.014  0.00  0.00    +0.165 C 
ATOM     13  H   UNL     1       2.172  -2.391  -0.021  0.00  0.00    +0.151 HD
ENDROOT
BRANCH   5  14
ATOM     14  C   UNL     1       0.087  -3.650  -1.236  0.00  0.00    -0.022 A 
ATOM     15  C   UNL     1       0.410  -3.114  -2.469  0.00  0.00    +0.007 A 
ATOM     16  C   UNL     1       0.428  -3.921  -3.591  0.00  0.00    +0.020 A 
ATOM     17  C   UNL     1       0.123  -5.266  -3.480  0.00  0.00    +0.041 A 
ATOM     18  C   UNL     1      -0.200  -5.802  -2.246  0.00  0.00    +0.020 A 
ATOM     19  C   UNL     1      -0.212  -4.995  -1.124  0.00  0.00    +0.007 A 
ATOM     20 CL   UNL     1       0.145  -6.280  -4.888  0.00  0.00    -0.084 Cl
ENDBRANCH   5  14
BRANCH  11  21
ATOM     21  C   UNL     1      -4.833  -1.482   0.017  0.00  0.00    +0.037 A 
ATOM     22  C   UNL     1      -5.590  -0.318   0.021  0.00  0.00    +0.023 A 
ATOM     23  C   UNL     1      -6.969  -0.392   0.027  0.00  0.00    +0.002 A 
ATOM     24  C   UNL     1      -7.597  -1.624   0.029  0.00  0.00    +0.000 A 
ATOM     25  C   UNL     1      -6.847  -2.785   0.025  0.00  0.00    +0.002 A 
ATOM     26  C   UNL     1      -5.467  -2.718   0.013  0.00  0.00    +0.023 A 
ENDBRANCH  11  21
TORSDOF 2
