REMARK  Name = ZINC43426155
REMARK  3 active torsions:
REMARK  status: ('A' for Active; 'I' for Inactive)
REMARK    1  A    between atoms: C_3  and  N_12
REMARK    2  A    between atoms: C_4  and  N_9
REMARK    3  A    between atoms: C_6  and  C_7
REMARK                            x       y       z     vdW  Elec       q    Type
REMARK                         _______ _______ _______ _____ _____    ______ ____
ROOT
ATOM      1  C   UNL     1       1.176  -0.681   0.046  0.00  0.00    +0.007 A 
ATOM      2  C   UNL     1       2.380  -0.004   0.074  0.00  0.00    +0.026 A 
ATOM      3  C   UNL     1       2.395   1.384   0.024  0.00  0.00    +0.061 A 
ATOM      4  C   UNL     1       1.199   2.086  -0.055  0.00  0.00    +0.147 A 
ATOM      5  C   UNL     1      -0.000   1.403  -0.083  0.00  0.00    +0.039 A 
ATOM      6  C   UNL     1      -0.012   0.021  -0.033  0.00  0.00    -0.031 A 
ENDROOT
BRANCH   3   7
ATOM      7  N   UNL     1       3.611   2.072   0.053  0.00  0.00    -0.320 N 
ATOM      8  C   UNL     1       4.343   2.377  -1.186  0.00  0.00    +0.133 C 
ATOM      9  C   UNL     1       4.691   3.870  -1.195  0.00  0.00    +0.179 C 
ATOM     10  O   UNL     1       5.339   4.214   0.033  0.00  0.00    -0.373 OA
ATOM     11  C   UNL     1       4.532   4.008   1.192  0.00  0.00    +0.139 C 
ATOM     12  C   UNL     1       4.202   2.523   1.327  0.00  0.00    +0.102 C 
ATOM     13  C   UNL     1       5.493   1.735   1.563  0.00  0.00    +0.025 C 
ATOM     14  C   UNL     1       6.186   2.243   2.828  0.00  0.00    +0.002 C 
ATOM     15  C   UNL     1       6.534   3.724   2.654  0.00  0.00    +0.003 C 
ATOM     16  C   UNL     1       5.257   4.497   2.441  0.00  0.00    +0.033 C 
ENDBRANCH   3   7
BRANCH   4  17
ATOM     17  N   UNL     1       1.211   3.565  -0.109  0.00  0.00    +0.058 N 
ATOM     18  O   UNL     1       0.171   4.180  -0.066  0.00  0.00    -0.126 OA
ATOM     19  O   UNL     1       2.261   4.159  -0.195  0.00  0.00    -0.126 OA
ENDBRANCH   4  17
BRANCH   6  20
ATOM     20  C   UNL     1      -1.323  -0.721  -0.064  0.00  0.00    +0.143 C 
ATOM     21 CL   UNL     1      -1.922  -0.955   1.621  0.00  0.00    -0.120 Cl
ENDBRANCH   6  20
TORSDOF 3
