REMARK  Name = ZINC50987482
REMARK  6 active torsions:
REMARK  status: ('A' for Active; 'I' for Inactive)
REMARK    1  A    between atoms: C_1  and  C_2
REMARK    2  A    between atoms: C_2  and  C_3
REMARK    3  A    between atoms: C_3  and  C_4
REMARK    4  A    between atoms: C_4  and  N_5
REMARK    5  A    between atoms: C_6  and  C_19
REMARK    6  A    between atoms: C_8  and  C_11
REMARK                            x       y       z     vdW  Elec       q    Type
REMARK                         _______ _______ _______ _____ _____    ______ ____
ROOT
ATOM      1  N   UNL     1      -2.787  -2.571   0.015  0.00  0.00    -0.279 N 
ATOM      2  C   UNL     1      -3.532  -2.836  -1.099  0.00  0.00    +0.073 C 
ATOM      3  N   UNL     1      -4.711  -3.273  -0.832  0.00  0.00    -0.363 N 
ATOM      4  C   UNL     1      -4.856  -3.339   0.631  0.00  0.00    +0.175 C 
ATOM      5  C   UNL     1      -3.515  -2.855   1.150  0.00  0.00    +0.101 C 
ATOM      6  N   UNL     1      -3.141  -2.734   2.381  0.00  0.00    -0.388 N 
ATOM      7  C   UNL     1      -3.022  -2.635  -2.503  0.00  0.00    +0.081 C 
ATOM      8  H   UNL     1      -2.251  -2.409   2.587  0.00  0.00    +0.157 HD
ATOM      9  H   UNL     1      -3.749  -2.969   3.099  0.00  0.00    +0.157 HD
ATOM     10  H   UNL     1      -5.389  -3.517  -1.482  0.00  0.00    +0.162 HD
ENDROOT
BRANCH   4  11
ATOM     11  C   UNL     1      -5.966  -2.432   1.094  0.00  0.00    +0.017 A 
ATOM     12  C   UNL     1      -6.426  -1.424   0.267  0.00  0.00    +0.010 A 
ATOM     13  C   UNL     1      -7.445  -0.592   0.691  0.00  0.00    +0.016 A 
ATOM     14  C   UNL     1      -8.006  -0.767   1.943  0.00  0.00    +0.021 A 
ATOM     15  C   UNL     1      -7.548  -1.774   2.772  0.00  0.00    +0.054 A 
ATOM     16  C   UNL     1      -6.531  -2.612   2.345  0.00  0.00    +0.130 A 
ATOM     17  F   UNL     1      -6.086  -3.600   3.151  0.00  0.00    -0.205 F 
ATOM     18 BR   UNL     1      -9.400   0.373   2.522  0.00  0.00    -0.050 Br
ENDBRANCH   4  11
BRANCH   1  19
ATOM     19  C   UNL     1      -1.413  -2.063   0.004  0.00  0.00    +0.113 C 
BRANCH  19  20
ATOM     20  C   UNL     1      -1.433  -0.534   0.013  0.00  0.00    +0.019 C 
BRANCH  20  22
ATOM     21  C   UNL     1      -0.019   1.526   0.010  0.00  0.00    +0.004 C 
ATOM     22  C   UNL     1       0.002  -0.004   0.002  0.00  0.00    -0.002 C 
ENDBRANCH  20  22
ENDBRANCH  19  20
ENDBRANCH   1  19
TORSDOF 4
