REMARK  Name = ZINC58990088
REMARK  12 active torsions:
REMARK  status: ('A' for Active; 'I' for Inactive)
REMARK    1  A    between atoms: C_1  and  O_2
REMARK    2  A    between atoms: O_2  and  C_3
REMARK    3  A    between atoms: C_7  and  C_10
REMARK    4  A    between atoms: C_8  and  O_9
REMARK    5  A    between atoms: N_11  and  N_12
REMARK    6  A    between atoms: C_13  and  C_15
REMARK    7  A    between atoms: C_15  and  C_16
REMARK    8  A    between atoms: C_16  and  C_17
REMARK    9  A    between atoms: C_17  and  S_18
REMARK   10  A    between atoms: S_18  and  C_19
REMARK   11  A    between atoms: C_22  and  C_25
REMARK   12  A    between atoms: N_23  and  N_24
REMARK                            x       y       z     vdW  Elec       q    Type
REMARK                         _______ _______ _______ _____ _____    ______ ____
ROOT
ATOM      1  C   UNL     1       0.940  -9.056  -0.015  0.00  0.00    +0.020 C 
ENDROOT
BRANCH   1   2
ATOM      2  C   UNL     1      -0.477  -8.478  -0.003  0.00  0.00    +0.098 C 
BRANCH   2   4
ATOM      3  N   UNL     1      -1.540  -6.245   0.007  0.00  0.00    -0.207 N 
ATOM      4  C   UNL     1      -0.406  -6.973  -0.002  0.00  0.00    +0.232 C 
ATOM      5  O   UNL     1       0.672  -6.417  -0.011  0.00  0.00    -0.274 OA
ATOM      6  H   UNL     1      -2.402  -6.690   0.014  0.00  0.00    +0.177 HD
BRANCH   3   8
ATOM      7  C   UNL     1      -2.567  -4.144   0.017  0.00  0.00    +0.142 C 
ATOM      8  N   UNL     1      -1.474  -4.846   0.008  0.00  0.00    -0.188 NA
BRANCH   7  13
ATOM      9  C   UNL     1      -1.201  -0.638   0.010  0.00  0.00    +0.162 A 
ATOM     10  C   UNL     1      -2.374   0.101   0.019  0.00  0.00    +0.049 A 
ATOM     11  C   UNL     1      -3.602  -0.537   0.028  0.00  0.00    +0.004 A 
ATOM     12  C   UNL     1      -3.671  -1.914   0.028  0.00  0.00    +0.013 A 
ATOM     13  C   UNL     1      -2.497  -2.672   0.018  0.00  0.00    +0.040 A 
ATOM     14  C   UNL     1      -1.255  -2.026   0.003  0.00  0.00    +0.167 A 
BRANCH   9  16
ATOM     15  C   UNL     1      -0.017   1.425   0.010  0.00  0.00    +0.277 C 
ATOM     16  O   UNL     1       0.002  -0.004   0.002  0.00  0.00    -0.491 OA
ENDBRANCH   9  16
BRANCH  14  17
ATOM     17  O   UNL     1      -0.107  -2.754  -0.012  0.00  0.00    -0.503 OA
ATOM     18  H   UNL     1       0.233  -2.969   0.867  0.00  0.00    +0.292 HD
ENDBRANCH  14  17
ENDBRANCH   7  13
ENDBRANCH   3   8
ENDBRANCH   2   4
ENDBRANCH   1   2
BRANCH   1  19
ATOM     19  C   UNL     1       0.868 -10.584  -0.015  0.00  0.00    +0.078 C 
BRANCH  19  20
ATOM     20  S   UNL     1       2.548 -11.268  -0.029  0.00  0.00    -0.084 S 
BRANCH  20  21
ATOM     21  C   UNL     1       2.297 -13.012  -0.029  0.00  0.00    +0.209 A 
ATOM     22  N   UNL     1       1.139 -13.634  -0.026  0.00  0.00    -0.121 NA
ATOM     23  N   UNL     1       1.321 -14.906  -0.026  0.00  0.00    -0.127 NA
ATOM     24  C   UNL     1       2.606 -15.175  -0.029  0.00  0.00    +0.182 A 
ATOM     25  N   UNL     1       3.271 -13.971  -0.037  0.00  0.00    -0.224 N 
BRANCH  24  26
ATOM     26  C   UNL     1       3.222 -16.519  -0.031  0.00  0.00    +0.021 A 
ATOM     27  C   UNL     1       4.574 -16.670   0.284  0.00  0.00    +0.013 A 
ATOM     28  C   UNL     1       5.143 -17.927   0.281  0.00  0.00    +0.016 A 
ATOM     29  C   UNL     1       4.377 -19.036  -0.035  0.00  0.00    +0.018 A 
ATOM     30  C   UNL     1       3.036 -18.892  -0.348  0.00  0.00    +0.016 A 
ATOM     31  C   UNL     1       2.454 -17.642  -0.342  0.00  0.00    +0.013 A 
ATOM     32 BR   UNL     1       5.165 -20.755  -0.037  0.00  0.00    -0.050 Br
ENDBRANCH  24  26
BRANCH  25  33
ATOM     33  N   UNL     1       4.622 -13.774  -0.048  0.00  0.00    -0.295 N 
ATOM     34  H   UNL     1       4.988 -13.723   0.891  0.00  0.00    +0.163 HD
ATOM     35  H   UNL     1       5.088 -14.495  -0.579  0.00  0.00    +0.163 HD
ENDBRANCH  25  33
ENDBRANCH  20  21
ENDBRANCH  19  20
ENDBRANCH   1  19
TORSDOF 11
