REMARK  Name = ZINC13244060
REMARK  6 active torsions:
REMARK  status: ('A' for Active; 'I' for Inactive)
REMARK    1  A    between atoms: C_1  and  N_2
REMARK    2  A    between atoms: C_11  and  S_12
REMARK    3  A    between atoms: S_12  and  C_13
REMARK    4  A    between atoms: C_13  and  C_14
REMARK    5  A    between atoms: N_16  and  C_17
REMARK    6  A    between atoms: C_22  and  C_23
REMARK                            x       y       z     vdW  Elec       q    Type
REMARK                         _______ _______ _______ _____ _____    ______ ____
ROOT
ATOM      1  S   UNL     1       4.862  -2.618  -0.017  0.00  0.00    -0.078 S 
ENDROOT
BRANCH   1  12
ATOM      2  C   UNL     1       5.872   0.167   0.007  0.00  0.00    +0.154 C 
ATOM      3  N   UNL     1       4.412   0.052   0.032  0.00  0.00    -0.290 N 
ATOM      4  C   UNL     1       3.662   1.170   0.062  0.00  0.00    +0.263 A 
ATOM      5  O   UNL     1       4.189   2.269   0.069  0.00  0.00    -0.267 OA
ATOM      6  C   UNL     1       2.237   1.047   0.087  0.00  0.00    +0.076 A 
ATOM      7  C   UNL     1       1.236   2.126   0.121  0.00  0.00    -0.023 A 
ATOM      8  C   UNL     1      -0.054   1.756   0.142  0.00  0.00    -0.004 A 
ATOM      9  S   UNL     1      -0.025  -0.021   0.115  0.00  0.00    -0.073 S 
ATOM     10  C   UNL     1       1.732  -0.261   0.078  0.00  0.00    +0.117 A 
ATOM     11  N   UNL     1       2.527  -1.325   0.047  0.00  0.00    -0.216 NA
ATOM     12  C   UNL     1       3.837  -1.185   0.024  0.00  0.00    +0.173 A 
ATOM     13  C   UNL     1      -0.984   2.939   0.184  0.00  0.00    +0.043 C 
ATOM     14  C   UNL     1      -0.090   4.121   0.617  0.00  0.00    +0.010 C 
ATOM     15  C   UNL     1       1.299   3.656   0.136  0.00  0.00    +0.037 C 
ENDBRANCH   1  12
BRANCH   1  16
ATOM     16  C   UNL     1       3.595  -3.911  -0.012  0.00  0.00    +0.173 C 
BRANCH  16  17
ATOM     17  C   UNL     1       4.258  -5.264  -0.044  0.00  0.00    +0.228 C 
ATOM     18  O   UNL     1       5.468  -5.346  -0.069  0.00  0.00    -0.275 OA
ATOM     19  N   UNL     1       3.506  -6.383  -0.047  0.00  0.00    -0.284 N 
ATOM     20  H   UNL     1       2.542  -6.319   0.037  0.00  0.00    +0.155 HD
BRANCH  19  21
ATOM     21  C   UNL     1       4.114  -7.630  -0.170  0.00  0.00    +0.050 A 
ATOM     22  C   UNL     1       5.353  -7.861   0.408  0.00  0.00    +0.062 A 
ATOM     23  C   UNL     1       5.953  -9.102   0.288  0.00  0.00    +0.125 A 
ATOM     24  C   UNL     1       5.326 -10.119  -0.419  0.00  0.00    +0.039 A 
ATOM     25  C   UNL     1       4.098  -9.904  -1.004  0.00  0.00    +0.020 A 
ATOM     26  C   UNL     1       3.478  -8.656  -0.886  0.00  0.00    +0.084 A 
ATOM     27  F   UNL     1       7.157  -9.324   0.859  0.00  0.00    -0.205 F 
BRANCH  26  28
ATOM     28  C   UNL     1       2.165  -8.421  -1.509  0.00  0.00    +0.388 C 
ATOM     29  O   UNL     1       1.673  -7.309  -1.489  0.00  0.00    -0.241 OA
ATOM     30  O   UNL     1       1.508  -9.437  -2.102  0.00  0.00    -0.241 OA
ENDBRANCH  26  28
ENDBRANCH  19  21
ENDBRANCH  16  17
ENDBRANCH   1  16
TORSDOF 5
