REMARK  Name = ZINC67373689
REMARK  4 active torsions:
REMARK  status: ('A' for Active; 'I' for Inactive)
REMARK    1  A    between atoms: C_3  and  N_23
REMARK    2  A    between atoms: C_10  and  C_13
REMARK    3  A    between atoms: C_13  and  C_15
REMARK    4  A    between atoms: C_13  and  O_22
REMARK                            x       y       z     vdW  Elec       q    Type
REMARK                         _______ _______ _______ _____ _____    ______ ____
ROOT
ATOM      1  C   UNL     1       0.004   1.396   0.135  0.00  0.00    +0.022 A 
ATOM      2  C   UNL     1       0.669   0.946   1.268  0.00  0.00    +0.038 A 
ATOM      3  C   UNL     1       1.837   0.224   1.104  0.00  0.00    +0.166 A 
ATOM      4  C   UNL     1       2.304  -0.025  -0.183  0.00  0.00    +0.152 A 
ATOM      5  N   UNL     1       1.641   0.421  -1.238  0.00  0.00    -0.238 NA
ATOM      6  C   UNL     1       0.524   1.113  -1.112  0.00  0.00    +0.113 A 
ATOM      7  N   UNL     1       3.477  -0.749  -0.362  0.00  0.00    -0.313 N 
ATOM      8  C   UNL     1       4.784  -0.079  -0.323  0.00  0.00    +0.107 C 
ATOM      9  C   UNL     1       5.552  -0.422  -1.603  0.00  0.00    +0.025 C 
ATOM     10  C   UNL     1       5.630  -1.942  -1.754  0.00  0.00    +0.025 C 
ATOM     11  C   UNL     1       4.217  -2.518  -1.871  0.00  0.00    +0.025 C 
ATOM     12  C   UNL     1       3.434  -2.200  -0.588  0.00  0.00    +0.107 C 
ENDROOT
BRANCH   3  13
ATOM     13  N   UNL     1       2.518  -0.234   2.182  0.00  0.00    +0.060 N 
ATOM     14  O   UNL     1       2.166   0.076   3.296  0.00  0.00    -0.126 OA
ATOM     15  O   UNL     1       3.479  -0.953   2.030  0.00  0.00    -0.126 OA
ENDBRANCH   3  13
BRANCH  10  16
ATOM     16  C   UNL     1       6.427  -2.289  -3.014  0.00  0.00    +0.148 C 
BRANCH  16  17
ATOM     17  C   UNL     1       6.504  -3.787  -3.163  0.00  0.00    -0.019 A 
ATOM     18  C   UNL     1       7.420  -4.509  -2.421  0.00  0.00    +0.007 A 
ATOM     19  C   UNL     1       7.491  -5.883  -2.558  0.00  0.00    +0.020 A 
ATOM     20  C   UNL     1       6.646  -6.534  -3.438  0.00  0.00    +0.041 A 
ATOM     21  C   UNL     1       5.730  -5.811  -4.181  0.00  0.00    +0.020 A 
ATOM     22  C   UNL     1       5.656  -4.438  -4.039  0.00  0.00    +0.007 A 
ATOM     23 CL   UNL     1       6.735  -8.259  -3.611  0.00  0.00    -0.084 Cl
ENDBRANCH  16  17
BRANCH  16  24
ATOM     24  O   UNL     1       7.747  -1.753  -2.905  0.00  0.00    -0.387 OA
ATOM     25  H   UNL     1       8.248  -2.090  -2.149  0.00  0.00    +0.210 HD
ENDBRANCH  16  24
ENDBRANCH  10  16
TORSDOF 4
