REMARK  Name = ZINC05177359
REMARK  4 active torsions:
REMARK  status: ('A' for Active; 'I' for Inactive)
REMARK    1  A    between atoms: C_5  and  N_15
REMARK    2  A    between atoms: C_10  and  N_12
REMARK    3  A    between atoms: C_16  and  C_18
REMARK    4  A    between atoms: C_19  and  C_20
REMARK                            x       y       z     vdW  Elec       q    Type
REMARK                         _______ _______ _______ _____ _____    ______ ____
ROOT
ATOM      1  C   UNL     1       3.154   3.557  -1.171  0.00  0.00    +0.003 A 
ATOM      2  C   UNL     1       3.225   2.182  -1.203  0.00  0.00    +0.012 A 
ATOM      3  C   UNL     1       2.216   1.421  -0.601  0.00  0.00    +0.022 A 
ATOM      4  C   UNL     1       2.273  -0.043  -0.625  0.00  0.00    +0.042 A 
ATOM      5  C   UNL     1       1.267  -0.738  -0.025  0.00  0.00    +0.120 A 
ATOM      6  C   UNL     1       0.176  -0.002   0.614  0.00  0.00    +0.359 A 
ATOM      7  O   UNL     1      -0.728  -0.615   1.152  0.00  0.00    -0.243 OA
ATOM      8  O   UNL     1       0.158   1.340   0.615  0.00  0.00    -0.419 OA
ATOM      9  C   UNL     1       1.138   2.063   0.032  0.00  0.00    +0.169 A 
ATOM     10  C   UNL     1       1.087   3.451   0.051  0.00  0.00    +0.169 A 
ATOM     11  C   UNL     1       2.089   4.188  -0.546  0.00  0.00    +0.036 A 
ENDROOT
BRANCH   5  12
ATOM     12  N   UNL     1       1.276  -2.137  -0.021  0.00  0.00    -0.276 N 
ATOM     13  C   UNL     1       2.442  -2.803  -0.138  0.00  0.00    +0.241 C 
ATOM     14  O   UNL     1       3.494  -2.192  -0.145  0.00  0.00    -0.270 OA
ATOM     15  H   UNL     1       0.444  -2.627   0.066  0.00  0.00    +0.155 HD
BRANCH  13  16
ATOM     16  C   UNL     1       2.442  -4.261  -0.255  0.00  0.00    +0.068 C 
ATOM     17  C   UNL     1       3.609  -4.928  -0.372  0.00  0.00    +0.014 C 
BRANCH  17  18
ATOM     18  C   UNL     1       3.610  -6.394  -0.490  0.00  0.00    -0.006 A 
ATOM     19  C   UNL     1       2.402  -7.101  -0.476  0.00  0.00    +0.011 A 
ATOM     20  C   UNL     1       2.410  -8.474  -0.593  0.00  0.00    +0.020 A 
ATOM     21  C   UNL     1       3.610  -9.157  -0.712  0.00  0.00    +0.042 A 
ATOM     22  C   UNL     1       4.810  -8.466  -0.721  0.00  0.00    +0.040 A 
ATOM     23  C   UNL     1       4.818  -7.090  -0.611  0.00  0.00    +0.049 A 
ATOM     24 CL   UNL     1       6.323  -6.225  -0.623  0.00  0.00    -0.083 Cl
ATOM     25 CL   UNL     1       3.609 -10.887  -0.851  0.00  0.00    -0.083 Cl
ENDBRANCH  17  18
ENDBRANCH  13  16
ENDBRANCH   5  12
BRANCH  10  26
ATOM     26  N   UNL     1      -0.043   4.141   0.714  0.00  0.00    +0.060 N 
ATOM     27  O   UNL     1      -0.088   5.358   0.731  0.00  0.00    -0.126 OA
ATOM     28  O   UNL     1      -0.928   3.491   1.241  0.00  0.00    -0.126 OA
ENDBRANCH  10  26
TORSDOF 4
