REMARK  Name = ZINC17195650
REMARK  7 active torsions:
REMARK  status: ('A' for Active; 'I' for Inactive)
REMARK    1  A    between atoms: C_1  and  C_2
REMARK    2  A    between atoms: C_2  and  O_3
REMARK    3  A    between atoms: O_3  and  C_4
REMARK    4  A    between atoms: C_7  and  C_12
REMARK    5  A    between atoms: C_9  and  O_10
REMARK    6  A    between atoms: O_10  and  C_11
REMARK    7  A    between atoms: N_18  and  C_19
REMARK                            x       y       z     vdW  Elec       q    Type
REMARK                         _______ _______ _______ _____ _____    ______ ____
ROOT
ATOM      1  C   UNL     1       1.106  -6.011  -1.838  0.00  0.00    +0.028 C 
ATOM      2  C   UNL     1       0.205  -6.836  -1.247  0.00  0.00    +0.078 C 
ATOM      3  C   UNL     1       0.181  -8.310  -1.192  0.00  0.00    +0.256 C 
ATOM      4  O   UNL     1       1.048  -8.980  -1.722  0.00  0.00    -0.269 OA
ATOM      5  N   UNL     1      -0.824  -8.870  -0.541  0.00  0.00    -0.260 N 
ATOM      6  C   UNL     1      -1.796  -8.094   0.052  0.00  0.00    +0.166 C 
ATOM      7  N   UNL     1      -2.852  -8.483   0.731  0.00  0.00    -0.226 NA
ATOM      8  S   UNL     1      -1.267  -6.429  -0.319  0.00  0.00    -0.049 S 
ATOM      9  H   UNL     1      -0.878  -9.837  -0.481  0.00  0.00    +0.157 HD
ENDROOT
BRANCH   7  10
ATOM     10  C   UNL     1      -3.090  -9.818   0.918  0.00  0.00    +0.067 A 
ATOM     11  C   UNL     1      -2.957 -10.711  -0.148  0.00  0.00    +0.029 A 
ATOM     12  C   UNL     1      -3.199 -12.055   0.048  0.00  0.00    +0.017 A 
ATOM     13  C   UNL     1      -3.574 -12.519   1.297  0.00  0.00    +0.018 A 
ATOM     14  C   UNL     1      -3.707 -11.639   2.358  0.00  0.00    +0.017 A 
ATOM     15  C   UNL     1      -3.462 -10.294   2.177  0.00  0.00    +0.029 A 
ATOM     16 BR   UNL     1      -3.904 -14.363   1.556  0.00  0.00    -0.050 Br
ENDBRANCH   7  10
BRANCH   1  20
ATOM     17  C   UNL     1       0.875  -1.821  -1.201  0.00  0.00    +0.162 A 
ATOM     18  C   UNL     1       0.213  -2.691  -0.345  0.00  0.00    +0.050 A 
ATOM     19  C   UNL     1       0.284  -4.051  -0.547  0.00  0.00    +0.012 A 
ATOM     20  C   UNL     1       1.027  -4.561  -1.620  0.00  0.00    -0.020 A 
ATOM     21  C   UNL     1       1.694  -3.683  -2.483  0.00  0.00    +0.057 A 
ATOM     22  C   UNL     1       1.612  -2.320  -2.275  0.00  0.00    +0.162 A 
BRANCH  22  23
ATOM     23  O   UNL     1       2.254  -1.464  -3.114  0.00  0.00    -0.491 OA
ATOM     24  C   UNL     1       2.990  -2.044  -4.193  0.00  0.00    +0.277 C 
ENDBRANCH  22  23
BRANCH  17  25
ATOM     25  O   UNL     1       0.801  -0.480  -0.996  0.00  0.00    -0.489 OA
BRANCH  25  27
ATOM     26  C   UNL     1       0.062   1.491   0.191  0.00  0.00    +0.048 C 
ATOM     27  C   UNL     1       0.029  -0.037   0.122  0.00  0.00    +0.226 C 
ENDBRANCH  25  27
ENDBRANCH  17  25
ENDBRANCH   1  20
TORSDOF 5
