REMARK  Name = ZINC07082440
REMARK  6 active torsions:
REMARK  status: ('A' for Active; 'I' for Inactive)
REMARK    1  A    between atoms: C_1  and  C_2
REMARK    2  A    between atoms: C_2  and  C_3
REMARK    3  A    between atoms: C_3  and  N_4
REMARK    4  A    between atoms: C_13  and  S_14
REMARK    5  A    between atoms: S_14  and  C_15
REMARK    6  A    between atoms: C_15  and  C_16
REMARK                            x       y       z     vdW  Elec       q    Type
REMARK                         _______ _______ _______ _____ _____    ______ ____
ROOT
ATOM      1  N   UNL     1       2.406  -4.069  -0.749  0.00  0.00    -0.287 N 
ATOM      2  C   UNL     1       2.484  -2.725  -0.774  0.00  0.00    +0.263 A 
ATOM      3  O   UNL     1       3.520  -2.170  -1.097  0.00  0.00    -0.267 OA
ATOM      4  C   UNL     1       1.331  -1.958  -0.414  0.00  0.00    +0.076 A 
ATOM      5  C   UNL     1       1.195  -0.493  -0.373  0.00  0.00    -0.023 A 
ATOM      6  C   UNL     1       0.002  -0.004   0.002  0.00  0.00    -0.004 A 
ATOM      7  S   UNL     1      -1.004  -1.436   0.316  0.00  0.00    -0.073 S 
ATOM      8  C   UNL     1       0.191  -2.692  -0.057  0.00  0.00    +0.117 A 
ATOM      9  N   UNL     1       0.178  -4.020  -0.053  0.00  0.00    -0.216 NA
ATOM     10  C   UNL     1       1.253  -4.704  -0.389  0.00  0.00    +0.173 A 
ATOM     11  C   UNL     1      -0.018   1.501   0.010  0.00  0.00    +0.043 C 
ATOM     12  C   UNL     1       1.471   1.909  -0.002  0.00  0.00    +0.010 C 
ATOM     13  C   UNL     1       2.125   0.686  -0.673  0.00  0.00    +0.037 C 
ENDROOT
BRANCH   1  14
ATOM     14  C   UNL     1       3.581  -4.863  -1.115  0.00  0.00    +0.127 C 
BRANCH  14  16
ATOM     15  C   UNL     1       5.647  -5.969  -0.248  0.00  0.00    +0.005 C 
ATOM     16  C   UNL     1       4.420  -5.139   0.134  0.00  0.00    +0.018 C 
ENDBRANCH  14  16
ENDBRANCH   1  14
BRANCH  10  17
ATOM     17  S   UNL     1       1.202  -6.466  -0.374  0.00  0.00    -0.080 S 
BRANCH  17  18
ATOM     18  C   UNL     1      -0.508  -6.725   0.160  0.00  0.00    +0.153 C 
BRANCH  18  19
ATOM     19  C   UNL     1      -0.788  -8.204   0.247  0.00  0.00    +0.146 A 
ATOM     20  N   UNL     1      -1.257  -8.848  -0.807  0.00  0.00    -0.199 NA
ATOM     21  C   UNL     1      -1.501 -10.155  -0.735  0.00  0.00    +0.217 A 
ATOM     22  N   UNL     1      -1.282 -10.809   0.401  0.00  0.00    -0.181 NA
ATOM     23  C   UNL     1      -0.816 -10.156   1.460  0.00  0.00    +0.217 A 
ATOM     24  N   UNL     1      -0.569  -8.850   1.379  0.00  0.00    -0.199 NA
ATOM     25  N   UNL     1      -0.588 -10.830   2.642  0.00  0.00    -0.327 N 
ATOM     26  N   UNL     1      -1.986 -10.829  -1.837  0.00  0.00    -0.327 N 
ATOM     27  H   UNL     1      -0.247 -10.352   3.414  0.00  0.00    +0.145 HD
ATOM     28  H   UNL     1      -0.767 -11.781   2.700  0.00  0.00    +0.145 HD
ATOM     29  H   UNL     1      -2.167 -11.780  -1.783  0.00  0.00    +0.145 HD
ATOM     30  H   UNL     1      -2.145 -10.351  -2.666  0.00  0.00    +0.145 HD
ENDBRANCH  18  19
ENDBRANCH  17  18
ENDBRANCH  10  17
TORSDOF 5
