REMARK  Name = ZINC54235673
REMARK  10 active torsions:
REMARK  status: ('A' for Active; 'I' for Inactive)
REMARK    1  A    between atoms: C_1  and  C_2
REMARK    2  A    between atoms: C_2  and  C_3
REMARK    3  A    between atoms: C_3  and  C_4
REMARK    4  A    between atoms: C_4  and  C_6
REMARK    5  A    between atoms: C_4  and  N_7
REMARK    6  A    between atoms: C_8  and  C_10
REMARK    7  A    between atoms: C_10  and  C_12
REMARK    8  A    between atoms: C_10  and  N_13
REMARK    9  A    between atoms: C_16  and  C_19
REMARK   10  A    between atoms: C_24  and  C_27
REMARK                            x       y       z     vdW  Elec       q    Type
REMARK                         _______ _______ _______ _____ _____    ______ ____
ROOT
ATOM      1  N   UNL     1      -2.390  -5.677  -0.563  0.00  0.00    +0.387 N 
ATOM      2  C   UNL     1      -3.738  -6.218  -0.777  0.00  0.00    -0.077 C 
ATOM      3  C   UNL     1      -3.813  -7.642  -0.223  0.00  0.00    -0.006 C 
ATOM      4  C   UNL     1      -2.788  -8.521  -0.946  0.00  0.00    +0.072 C 
ATOM      5  C   UNL     1      -1.396  -7.906  -0.779  0.00  0.00    -0.006 C 
ATOM      6  C   UNL     1      -1.410  -6.472  -1.312  0.00  0.00    -0.077 C 
ATOM      7  H   UNL     1      -2.168  -5.711   0.421  0.00  0.00    -0.081 HD
ENDROOT
BRANCH   4   8
ATOM      8  C   UNL     1      -2.803  -9.905  -0.352  0.00  0.00    +0.222 C 
ATOM      9  O   UNL     1      -3.558 -10.166   0.560  0.00  0.00    -0.275 OA
ATOM     10  N   UNL     1      -1.976 -10.854  -0.835  0.00  0.00    -0.264 N 
ATOM     11  C   UNL     1      -1.990 -12.132  -0.287  0.00  0.00    +0.165 A 
ATOM     12  N   UNL     1      -1.258 -13.173  -0.622  0.00  0.00    -0.230 NA
ATOM     13  C   UNL     1      -1.391 -14.329   0.002  0.00  0.00    +0.047 A 
ATOM     14  C   UNL     1      -2.311 -14.391   0.996  0.00  0.00    +0.071 A 
ATOM     15  S   UNL     1      -2.941 -12.720   0.971  0.00  0.00    -0.060 S 
ATOM     16  C   UNL     1      -0.558 -15.527  -0.376  0.00  0.00    +0.066 C 
ATOM     17  H   UNL     1      -1.372 -10.646  -1.564  0.00  0.00    +0.157 HD
ENDBRANCH   4   8
BRANCH   1  18
ATOM     18  C   UNL     1      -2.345  -4.283  -1.025  0.00  0.00    +0.016 C 
ATOM     19  C   UNL     1      -3.359  -3.451  -0.238  0.00  0.00    -0.004 C 
BRANCH  18  21
ATOM     20  N   UNL     1      -0.491  -2.754  -1.613  0.00  0.00    -0.314 N 
ATOM     21  C   UNL     1      -0.961  -3.727  -0.807  0.00  0.00    +0.199 C 
ATOM     22  O   UNL     1      -0.271  -4.154   0.094  0.00  0.00    -0.278 OA
ATOM     23  H   UNL     1      -1.044  -2.412  -2.333  0.00  0.00    +0.149 HD
BRANCH  20  24
ATOM     24  C   UNL     1       0.853  -2.213  -1.400  0.00  0.00    +0.070 C 
ATOM     25  C   UNL     1       1.878  -3.097  -2.115  0.00  0.00    +0.028 C 
BRANCH  24  26
ATOM     26  C   UNL     1       0.926  -0.791  -1.962  0.00  0.00    +0.022 C 
BRANCH  26  28
ATOM     27  C   UNL     1       0.064   1.542  -1.727  0.00  0.00    +0.004 C 
ATOM     28  C   UNL     1      -0.008   0.121  -1.165  0.00  0.00    -0.002 C 
ENDBRANCH  26  28
ENDBRANCH  24  26
ENDBRANCH  20  24
ENDBRANCH  18  21
ENDBRANCH   1  18
TORSDOF 6
