REMARK  Name = ZINC13915268
REMARK  11 active torsions:
REMARK  status: ('A' for Active; 'I' for Inactive)
REMARK    1  A    between atoms: C_1  and  C_2
REMARK    2  A    between atoms: C_2  and  O_3
REMARK    3  A    between atoms: O_3  and  C_4
REMARK    4  A    between atoms: C_6  and  C_21
REMARK    5  A    between atoms: C_9  and  O_10
REMARK    6  A    between atoms: O_10  and  C_11
REMARK    7  A    between atoms: C_11  and  C_12
REMARK    8  A    between atoms: C_15  and  C_18
REMARK    9  A    between atoms: C_23  and  C_30
REMARK   10  A    between atoms: C_24  and  C_29
REMARK   11  A    between atoms: C_30  and  C_32
REMARK                            x       y       z     vdW  Elec       q    Type
REMARK                         _______ _______ _______ _____ _____    ______ ____
ROOT
ATOM      1  C   UNL     1       0.109  -4.654  -1.854  0.00  0.00    +0.164 A 
ATOM      2  C   UNL     1       0.105  -6.030  -2.019  0.00  0.00    +0.055 A 
ATOM      3  C   UNL     1       1.298  -6.728  -2.038  0.00  0.00    -0.018 A 
ATOM      4  C   UNL     1       2.498  -6.057  -1.894  0.00  0.00    +0.029 A 
ATOM      5  C   UNL     1       2.510  -4.683  -1.734  0.00  0.00    +0.087 A 
ATOM      6  C   UNL     1       1.316  -3.978  -1.708  0.00  0.00    +0.181 A 
ATOM      7 CL   UNL     1       4.019  -3.842  -1.559  0.00  0.00    -0.080 Cl
ENDROOT
BRANCH   3   8
ATOM      8  C   UNL     1       1.291  -8.225  -2.218  0.00  0.00    +0.138 C 
ATOM      9  C   UNL     1       1.506  -8.859  -0.859  0.00  0.00    +0.036 C 
ATOM     10  C   UNL     1       2.571  -9.685  -0.711  0.00  0.00    +0.015 C 
ATOM     11  N   UNL     1       3.416  -9.934  -1.749  0.00  0.00    -0.300 N 
ATOM     12  C   UNL     1       3.273  -9.400  -2.968  0.00  0.00    +0.135 C 
ATOM     13  S   UNL     1       4.411  -9.797  -4.184  0.00  0.00    -0.019 S 
ATOM     14  N   UNL     1       2.264  -8.561  -3.271  0.00  0.00    -0.315 N 
ATOM     15  C   UNL     1       2.824 -10.338   0.624  0.00  0.00    +0.061 C 
ATOM     16  H   UNL     1       4.165 -10.531  -1.596  0.00  0.00    +0.154 HD
ATOM     17  H   UNL     1       2.180  -8.187  -4.162  0.00  0.00    +0.149 HD
BRANCH   9  18
ATOM     18  C   UNL     1       0.633  -8.601   0.211  0.00  0.00    +0.160 C 
ATOM     19  O   UNL     1       1.030  -7.996   1.187  0.00  0.00    -0.293 OA
ATOM     20  C   UNL     1      -0.797  -9.072   0.147  0.00  0.00    +0.091 C 
ENDBRANCH   9  18
ENDBRANCH   3   8
BRANCH   1  21
ATOM     21  O   UNL     1      -1.064  -3.967  -1.834  0.00  0.00    -0.489 OA
BRANCH  21  23
ATOM     22  C   UNL     1      -3.472  -3.789  -1.941  0.00  0.00    +0.048 C 
ATOM     23  C   UNL     1      -2.264  -4.727  -1.989  0.00  0.00    +0.226 C 
ENDBRANCH  21  23
ENDBRANCH   1  21
BRANCH   6  24
ATOM     24  O   UNL     1       1.325  -2.627  -1.546  0.00  0.00    -0.482 OA
BRANCH  24  25
ATOM     25  C   UNL     1       1.262  -2.134  -0.206  0.00  0.00    +0.264 C 
BRANCH  25  26
ATOM     26  C   UNL     1       1.282  -0.627  -0.224  0.00  0.00    -0.010 A 
ATOM     27  C   UNL     1       0.093   0.077  -0.295  0.00  0.00    +0.008 A 
ATOM     28  C   UNL     1       0.105   1.456  -0.312  0.00  0.00    +0.015 A 
ATOM     29  C   UNL     1       1.320   2.142  -0.257  0.00  0.00    +0.063 A 
ATOM     30  C   UNL     1       2.516   1.425  -0.185  0.00  0.00    +0.015 A 
ATOM     31  C   UNL     1       2.490   0.045  -0.169  0.00  0.00    +0.008 A 
BRANCH  29  32
ATOM     32  C   UNL     1       1.341   3.619  -0.275  0.00  0.00    +0.387 C 
ATOM     33  O   UNL     1       0.299   4.239  -0.338  0.00  0.00    -0.241 OA
ATOM     34  O   UNL     1       2.515   4.277  -0.222  0.00  0.00    -0.241 OA
ENDBRANCH  29  32
ENDBRANCH  25  26
ENDBRANCH  24  25
ENDBRANCH   6  24
TORSDOF 8
