REMARK  Name = ZINC01104750
REMARK  6 active torsions:
REMARK  status: ('A' for Active; 'I' for Inactive)
REMARK    1  A    between atoms: C_1  and  C_2
REMARK    2  A    between atoms: C_2  and  O_3
REMARK    3  A    between atoms: O_3  and  C_4
REMARK    4  A    between atoms: C_7  and  C_10
REMARK    5  A    between atoms: C_17  and  C_28
REMARK    6  A    between atoms: N_19  and  C_22
REMARK                            x       y       z     vdW  Elec       q    Type
REMARK                         _______ _______ _______ _____ _____    ______ ____
ROOT
ATOM      1  C   UNL     1       1.550   0.130   6.105  0.00  0.00    +0.050 C 
ATOM      2  N   UNL     1       1.066   0.624   7.229  0.00  0.00    -0.382 N 
ATOM      3  C   UNL     1       1.764   0.379   8.485  0.00  0.00    +0.131 C 
ATOM      4  C   UNL     1       1.533  -1.022   9.061  0.00  0.00    +0.122 C 
ATOM      5  N   UNL     1       1.648  -2.023   7.994  0.00  0.00    -0.338 N 
ATOM      6  C   UNL     1       2.655  -1.860   7.055  0.00  0.00    +0.098 C 
ATOM      7  C   UNL     1       2.659  -0.826   6.177  0.00  0.00    +0.027 C 
ATOM      8  C   UNL     1       3.928  -0.910   5.387  0.00  0.00    +0.146 C 
ATOM      9  N   UNL     1       4.623  -2.113   5.875  0.00  0.00    -0.255 N 
ATOM     10  C   UNL     1       3.866  -2.664   6.847  0.00  0.00    +0.266 C 
ATOM     11  O   UNL     1       4.145  -3.676   7.459  0.00  0.00    -0.268 OA
ATOM     12  H   UNL     1       0.947  -2.870   7.957  0.00  0.00    +0.146 HD
ATOM     13  H   UNL     1       0.141   1.218   7.215  0.00  0.00    +0.160 HD
ENDROOT
BRANCH   1  17
ATOM     14  C   UNL     1      -0.067   1.298   2.350  0.00  0.00    +0.121 A 
ATOM     15  C   UNL     1       0.108   2.243   3.354  0.00  0.00    +0.046 A 
ATOM     16  C   UNL     1       0.627   1.866   4.574  0.00  0.00    +0.013 A 
ATOM     17  C   UNL     1       0.987   0.537   4.797  0.00  0.00    -0.001 A 
ATOM     18  C   UNL     1       0.814  -0.409   3.785  0.00  0.00    +0.013 A 
ATOM     19  C   UNL     1       0.290  -0.027   2.569  0.00  0.00    +0.046 A 
BRANCH  14  20
ATOM     20  O   UNL     1      -0.584   1.671   1.151  0.00  0.00    -0.492 OA
BRANCH  20  22
ATOM     21  C   UNL     1      -1.491   3.277  -0.411  0.00  0.00    +0.048 C 
ATOM     22  C   UNL     1      -0.929   3.049   0.994  0.00  0.00    +0.225 C 
ENDBRANCH  20  22
ENDBRANCH  14  20
ENDBRANCH   1  17
BRANCH   9  23
ATOM     23  C   UNL     1       5.850  -2.598   5.414  0.00  0.00    +0.038 A 
ATOM     24  C   UNL     1       6.525  -1.931   4.399  0.00  0.00    +0.023 A 
ATOM     25  C   UNL     1       7.740  -2.410   3.950  0.00  0.00    +0.002 A 
ATOM     26  C   UNL     1       8.279  -3.558   4.501  0.00  0.00    +0.000 A 
ATOM     27  C   UNL     1       7.607  -4.227   5.508  0.00  0.00    +0.002 A 
ATOM     28  C   UNL     1       6.395  -3.751   5.966  0.00  0.00    +0.023 A 
ENDBRANCH   9  23
BRANCH   8  29
ATOM     29  C   UNL     1       3.619  -1.048   3.919  0.00  0.00    -0.022 A 
ATOM     30  C   UNL     1       3.212  -2.267   3.409  0.00  0.00    +0.006 A 
ATOM     31  C   UNL     1       2.924  -2.392   2.063  0.00  0.00    +0.000 A 
ATOM     32  C   UNL     1       3.054  -1.301   1.224  0.00  0.00    +0.000 A 
ATOM     33  C   UNL     1       3.466  -0.083   1.733  0.00  0.00    +0.000 A 
ATOM     34  C   UNL     1       3.749   0.043   3.080  0.00  0.00    +0.006 A 
ENDBRANCH   8  29
TORSDOF 5
