REMARK  Name = ZINC06704946
REMARK  7 active torsions:
REMARK  status: ('A' for Active; 'I' for Inactive)
REMARK    1  A    between atoms: C_1  and  C_2
REMARK    2  A    between atoms: C_2  and  C_3
REMARK    3  A    between atoms: C_12  and  C_13
REMARK    4  A    between atoms: C_13  and  C_15
REMARK    5  A    between atoms: C_13  and  C_25
REMARK    6  A    between atoms: C_15  and  C_16
REMARK    7  A    between atoms: N_18  and  C_19
REMARK                            x       y       z     vdW  Elec       q    Type
REMARK                         _______ _______ _______ _____ _____    ______ ____
ROOT
ATOM      1  C   UNL     1      -0.013   1.086   0.008  0.00  0.00    +0.063 C 
ENDROOT
BRANCH   1  11
ATOM      2  C   UNL     1      -2.479   1.122   4.375  0.00  0.00    -0.024 A 
ATOM      3  C   UNL     1      -2.568  -0.241   4.556  0.00  0.00    +0.005 A 
ATOM      4  C   UNL     1      -2.031  -1.116   3.621  0.00  0.00    +0.001 A 
ATOM      5  C   UNL     1      -1.406  -0.639   2.503  0.00  0.00    +0.010 A 
ATOM      6  C   UNL     1      -1.304   0.738   2.300  0.00  0.00    +0.004 A 
ATOM      7  C   UNL     1      -1.846   1.629   3.245  0.00  0.00    +0.050 A 
ATOM      8  N   UNL     1      -1.600   2.905   2.788  0.00  0.00    -0.360 N 
ATOM      9  H   UNL     1      -1.864   3.720   3.243  0.00  0.00    +0.165 HD
ATOM     10  C   UNL     1      -0.924   2.851   1.600  0.00  0.00    +0.088 A 
ATOM     11  C   UNL     1      -0.718   1.572   1.248  0.00  0.00    -0.014 A 
BRANCH   2  13
ATOM     12  C   UNL     1      -4.478   2.463   4.969  0.00  0.00    +0.009 C 
ATOM     13  C   UNL     1      -3.066   2.060   5.398  0.00  0.00    +0.034 C 
ENDBRANCH   2  13
ENDBRANCH   1  11
BRANCH   1  14
ATOM     14  C   UNL     1      -0.742   1.585  -1.213  0.00  0.00    +0.006 A 
ATOM     15  C   UNL     1      -0.888   2.944  -1.423  0.00  0.00    +0.008 A 
ATOM     16  C   UNL     1      -1.556   3.405  -2.542  0.00  0.00    +0.004 A 
ATOM     17  C   UNL     1      -2.080   2.510  -3.456  0.00  0.00    +0.049 A 
ATOM     18  C   UNL     1      -1.937   1.148  -3.252  0.00  0.00    +0.167 A 
ATOM     19  C   UNL     1      -1.259   0.683  -2.127  0.00  0.00    +0.170 A 
ATOM     20  O   UNL     1      -1.258  -0.682  -2.152  0.00  0.00    -0.452 OA
ATOM     21  C   UNL     1      -2.285  -1.052  -3.091  0.00  0.00    +0.466 C 
ATOM     22  O   UNL     1      -2.353   0.074  -3.986  0.00  0.00    -0.453 OA
ENDBRANCH   1  14
BRANCH   1  23
ATOM     23  C   UNL     1       1.423   1.615  -0.003  0.00  0.00    +0.108 C 
BRANCH  23  24
ATOM     24  C   UNL     1       2.165   1.031  -1.177  0.00  0.00    +0.214 C 
ATOM     25  O   UNL     1       1.601   0.266  -1.931  0.00  0.00    -0.276 OA
ATOM     26  N   UNL     1       3.455   1.358  -1.389  0.00  0.00    -0.312 N 
ATOM     27  H   UNL     1       3.906   1.970  -0.786  0.00  0.00    +0.149 HD
BRANCH  26  28
ATOM     28  C   UNL     1       4.176   0.790  -2.531  0.00  0.00    +0.073 C 
ATOM     29  C   UNL     1       4.740  -0.580  -2.147  0.00  0.00    +0.022 C 
ATOM     30  C   UNL     1       5.493  -1.173  -3.340  0.00  0.00    +0.002 C 
ATOM     31  C   UNL     1       6.641  -0.241  -3.732  0.00  0.00    +0.000 C 
ATOM     32  C   UNL     1       6.078   1.129  -4.115  0.00  0.00    +0.002 C 
ATOM     33  C   UNL     1       5.325   1.722  -2.923  0.00  0.00    +0.022 C 
ENDBRANCH  26  28
ENDBRANCH  23  24
ENDBRANCH   1  23
TORSDOF 6
