REMARK  Name = ZINC02764603
REMARK  7 active torsions:
REMARK  status: ('A' for Active; 'I' for Inactive)
REMARK    1  A    between atoms: C_1  and  C_2
REMARK    2  A    between atoms: C_2  and  C_3
REMARK    3  A    between atoms: C_10  and  N_15
REMARK    4  A    between atoms: C_11  and  C_12
REMARK    5  A    between atoms: C_16  and  C_18
REMARK    6  A    between atoms: C_18  and  S_19
REMARK    7  A    between atoms: S_19  and  C_20
REMARK                            x       y       z     vdW  Elec       q    Type
REMARK                         _______ _______ _______ _____ _____    ______ ____
ROOT
ATOM      1  C   UNL     1       0.297  -2.806   0.365  0.00  0.00    -0.006 C 
ATOM      2  C   UNL     1      -0.882  -2.278  -0.458  0.00  0.00    +0.008 C 
ATOM      3  C   UNL     1      -1.252  -0.869   0.009  0.00  0.00    +0.037 C 
ATOM      4  C   UNL     1       0.002  -0.004   0.002  0.00  0.00    -0.023 A 
ATOM      5  C   UNL     1       1.232  -0.563  -0.012  0.00  0.00    -0.004 A 
ATOM      6  S   UNL     1       2.352   0.809  -0.016  0.00  0.00    -0.077 S 
ATOM      7  C   UNL     1       1.204   2.107   0.002  0.00  0.00    +0.084 A 
ATOM      8  C   UNL     1      -0.018   1.449   0.010  0.00  0.00    +0.068 A 
ATOM      9  C   UNL     1       1.560  -2.024  -0.022  0.00  0.00    +0.046 C 
ENDROOT
BRANCH   8  10
ATOM     10  C   UNL     1      -1.282   2.192   0.020  0.00  0.00    +0.244 C 
ATOM     11  O   UNL     1      -1.801   2.495   1.078  0.00  0.00    -0.270 OA
ATOM     12  N   UNL     1      -1.868   2.540  -1.142  0.00  0.00    -0.325 N 
ATOM     13  H   UNL     1      -1.454   2.299  -1.986  0.00  0.00    +0.145 HD
ATOM     14  H   UNL     1      -2.704   3.031  -1.136  0.00  0.00    +0.145 HD
ENDBRANCH   8  10
BRANCH   7  15
ATOM     15  N   UNL     1       1.447   3.472   0.006  0.00  0.00    -0.279 N 
ATOM     16  C   UNL     1       2.715   3.931  -0.003  0.00  0.00    +0.228 C 
ATOM     17  O   UNL     1       3.642   3.149  -0.016  0.00  0.00    -0.275 OA
ATOM     18  H   UNL     1       0.706   4.097   0.016  0.00  0.00    +0.155 HD
BRANCH  16  19
ATOM     19  C   UNL     1       2.979   5.414   0.001  0.00  0.00    +0.170 C 
BRANCH  19  20
ATOM     20  S   UNL     1       4.769   5.709  -0.014  0.00  0.00    -0.116 S 
BRANCH  20  21
ATOM     21  C   UNL     1       4.911   7.466  -0.007  0.00  0.00    +0.008 A 
ATOM     22  C   UNL     1       3.769   8.257   0.002  0.00  0.00    +0.015 A 
ATOM     23  C   UNL     1       3.884   9.633   0.012  0.00  0.00    +0.001 A 
ATOM     24  C   UNL     1       5.135  10.224   0.004  0.00  0.00    +0.000 A 
ATOM     25  C   UNL     1       6.274   9.439  -0.010  0.00  0.00    +0.001 A 
ATOM     26  C   UNL     1       6.166   8.063  -0.016  0.00  0.00    +0.015 A 
ENDBRANCH  20  21
ENDBRANCH  19  20
ENDBRANCH  16  19
ENDBRANCH   7  15
BRANCH   1  28
ATOM     27  C   UNL     1       1.610  -4.843   0.971  0.00  0.00    +0.004 C 
ATOM     28  C   UNL     1       0.503  -4.293   0.069  0.00  0.00    +0.000 C 
ENDBRANCH   1  28
TORSDOF 6
