REMARK  Name = ZINC35081508
REMARK  6 active torsions:
REMARK  status: ('A' for Active; 'I' for Inactive)
REMARK    1  A    between atoms: C_1  and  C_2
REMARK    2  A    between atoms: C_3  and  C_7
REMARK    3  A    between atoms: C_7  and  C_9
REMARK    4  A    between atoms: C_7  and  N_19
REMARK    5  A    between atoms: C_14  and  O_15
REMARK    6  A    between atoms: O_15  and  C_16
REMARK                            x       y       z     vdW  Elec       q    Type
REMARK                         _______ _______ _______ _____ _____    ______ ____
ROOT
ATOM      1  C   UNL     1      -2.448  -0.161   0.030  0.00  0.00    -0.006 C 
ENDROOT
BRANCH   1   2
ATOM      2  C   UNL     1      -2.752   0.389   1.400  0.00  0.00    -0.013 A 
ATOM      3  C   UNL     1      -3.304  -0.430   2.366  0.00  0.00    +0.026 A 
ATOM      4  C   UNL     1      -3.583   0.073   3.624  0.00  0.00    +0.042 A 
ATOM      5  C   UNL     1      -3.309   1.398   3.918  0.00  0.00    +0.039 A 
ATOM      6  C   UNL     1      -2.757   2.220   2.954  0.00  0.00    +0.061 A 
ATOM      7  C   UNL     1      -2.471   1.714   1.693  0.00  0.00    +0.136 A 
ATOM      8 BR   UNL     1      -2.384   4.030   3.355  0.00  0.00    -0.046 Br
ATOM      9 CL   UNL     1      -4.277  -0.958   4.836  0.00  0.00    -0.083 Cl
BRANCH   7  10
ATOM     10  O   UNL     1      -1.923   2.520   0.745  0.00  0.00    -0.494 OA
ATOM     11  C   UNL     1      -2.826   3.237  -0.099  0.00  0.00    +0.277 C 
ENDBRANCH   7  10
ENDBRANCH   1   2
BRANCH   1  14
ATOM     12  C   UNL     1      -0.787  -0.766  -2.547  0.00  0.00    +0.086 C 
ATOM     13  C   UNL     1      -0.294  -0.881  -1.127  0.00  0.00    +0.104 A 
ATOM     14  C   UNL     1      -1.013  -0.620  -0.021  0.00  0.00    -0.017 A 
ATOM     15  C   UNL     1      -0.165  -0.857   1.085  0.00  0.00    +0.043 A 
ATOM     16  C   UNL     1       1.022  -1.250   0.589  0.00  0.00    +0.195 A 
ATOM     17  O   UNL     1       0.936  -1.268  -0.752  0.00  0.00    -0.468 OA
ENDBRANCH   1  14
BRANCH   1  18
ATOM     18  N   UNL     1      -3.336  -1.298  -0.250  0.00  0.00    +0.385 N 
ATOM     19  H   UNL     1      -3.132  -1.666  -1.167  0.00  0.00    -0.089 HD
ATOM     20  H   UNL     1      -3.188  -2.018   0.442  0.00  0.00    -0.089 HD
ATOM     21  H   UNL     1      -4.296  -0.991  -0.216  0.00  0.00    -0.089 HD
ENDBRANCH   1  18
TORSDOF 4
