REMARK  Name = ZINC13134908
REMARK  9 active torsions:
REMARK  status: ('A' for Active; 'I' for Inactive)
REMARK    1  A    between atoms: C_1  and  C_2
REMARK    2  A    between atoms: C_2  and  C_4
REMARK    3  A    between atoms: C_2  and  S_17
REMARK    4  A    between atoms: N_6  and  C_7
REMARK    5  A    between atoms: C_10  and  S_13
REMARK    6  A    between atoms: S_13  and  N_16
REMARK    7  A    between atoms: S_17  and  C_18
REMARK    8  A    between atoms: N_28  and  N_29
REMARK    9  A    between atoms: N_29  and  C_30
REMARK                            x       y       z     vdW  Elec       q    Type
REMARK                         _______ _______ _______ _____ _____    ______ ____
ROOT
ATOM      1  S   UNL     1       0.006   0.001   0.001  0.00  0.00    -0.074 S 
ENDROOT
BRANCH   1   2
ATOM      2  C   UNL     1      -0.013   1.763  -0.000  0.00  0.00    +0.190 A 
ATOM      3  N   UNL     1       1.131   2.400  -0.016  0.00  0.00    -0.222 NA
ATOM      4  C   UNL     1       1.191   3.747  -0.017  0.00  0.00    +0.079 A 
ATOM      5  C   UNL     1       2.412   4.426  -0.033  0.00  0.00    +0.028 A 
ATOM      6  C   UNL     1       2.426   5.793  -0.034  0.00  0.00    +0.002 A 
ATOM      7  C   UNL     1       1.242   6.519  -0.018  0.00  0.00    +0.001 A 
ATOM      8  C   UNL     1       0.032   5.883  -0.003  0.00  0.00    +0.015 A 
ATOM      9  C   UNL     1      -0.012   4.490  -0.002  0.00  0.00    +0.066 A 
ATOM     10  C   UNL     1      -1.282   3.753   0.015  0.00  0.00    +0.280 A 
ATOM     11  O   UNL     1      -2.351   4.336   0.029  0.00  0.00    -0.265 OA
ATOM     12  N   UNL     1      -1.221   2.401   0.010  0.00  0.00    -0.202 N 
BRANCH  12  13
ATOM     13  N   UNL     1      -2.404   1.650   0.020  0.00  0.00    -0.249 N 
ATOM     14  H   UNL     1      -2.704   1.207  -0.789  0.00  0.00    +0.173 HD
BRANCH  13  15
ATOM     15  C   UNL     1      -3.152   1.541   1.194  0.00  0.00    +0.047 A 
ATOM     16  C   UNL     1      -2.721   2.171   2.355  0.00  0.00    +0.024 A 
ATOM     17  C   UNL     1      -3.465   2.065   3.513  0.00  0.00    +0.002 A 
ATOM     18  C   UNL     1      -4.633   1.324   3.521  0.00  0.00    +0.000 A 
ATOM     19  C   UNL     1      -5.062   0.691   2.369  0.00  0.00    +0.002 A 
ATOM     20  C   UNL     1      -4.325   0.797   1.206  0.00  0.00    +0.024 A 
ENDBRANCH  13  15
ENDBRANCH  12  13
ENDBRANCH   1   2
BRANCH   1  22
ATOM     21  C   UNL     1       2.377   0.224  -1.338  0.00  0.00    +0.029 C 
ATOM     22  C   UNL     1       1.792  -0.294  -0.023  0.00  0.00    +0.137 C 
BRANCH  22  23
ATOM     23  C   UNL     1       2.058  -1.772   0.098  0.00  0.00    +0.230 C 
ATOM     24  O   UNL     1       1.217  -2.571  -0.255  0.00  0.00    -0.274 OA
ATOM     25  N   UNL     1       3.232  -2.207   0.599  0.00  0.00    -0.285 N 
ATOM     26  H   UNL     1       3.930  -1.570   0.819  0.00  0.00    +0.155 HD
BRANCH  25  27
ATOM     27  C   UNL     1       3.442  -3.575   0.802  0.00  0.00    +0.034 A 
ATOM     28  C   UNL     1       4.202  -4.010   1.880  0.00  0.00    +0.025 A 
ATOM     29  C   UNL     1       4.402  -5.361   2.081  0.00  0.00    +0.030 A 
ATOM     30  C   UNL     1       3.858  -6.281   1.204  0.00  0.00    +0.105 A 
ATOM     31  C   UNL     1       3.106  -5.851   0.126  0.00  0.00    +0.030 A 
ATOM     32  C   UNL     1       2.896  -4.501  -0.077  0.00  0.00    +0.025 A 
BRANCH  30  33
ATOM     33  S   UNL     1       4.123  -8.004   1.459  0.00  0.00    +0.056 S 
ATOM     34  O   UNL     1       4.402  -8.171   2.843  0.00  0.00    -0.153 OA
ATOM     35  O   UNL     1       3.054  -8.680   0.811  0.00  0.00    -0.153 OA
BRANCH  33  36
ATOM     36  N   UNL     1       5.505  -8.413   0.645  0.00  0.00    -0.204 NA
ATOM     37  H   UNL     1       5.995  -7.737   0.151  0.00  0.00    +0.144 HD
ATOM     38  H   UNL     1       5.825  -9.329   0.662  0.00  0.00    +0.144 HD
ENDBRANCH  33  36
ENDBRANCH  30  33
ENDBRANCH  25  27
ENDBRANCH  22  23
ENDBRANCH   1  22
TORSDOF 8
