REMARK  Name = ZINC17307975
REMARK  14 active torsions:
REMARK  status: ('A' for Active; 'I' for Inactive)
REMARK    1  A    between atoms: C_1  and  C_2
REMARK    2  A    between atoms: C_2  and  O_3
REMARK    3  A    between atoms: O_3  and  C_4
REMARK    4  A    between atoms: C_4  and  C_6
REMARK    5  A    between atoms: C_7  and  C_32
REMARK    6  A    between atoms: C_8  and  C_28
REMARK    7  A    between atoms: C_10  and  N_11
REMARK    8  A    between atoms: C_12  and  C_14
REMARK    9  A    between atoms: C_14  and  N_61
REMARK   10  A    between atoms: C_15  and  C_16
REMARK   11  A    between atoms: C_15  and  N_61
REMARK   12  A    between atoms: C_21  and  C_22
REMARK   13  A    between atoms: C_21  and  N_61
REMARK   14  A    between atoms: N_30  and  C_31
REMARK                            x       y       z     vdW  Elec       q    Type
REMARK                         _______ _______ _______ _____ _____    ______ ____
ROOT
ATOM      1  N   UNL     1      -2.068   7.697  -2.117  0.00  0.00    -0.281 N 
ATOM      2  C   UNL     1      -2.202   6.542  -1.435  0.00  0.00    +0.201 C 
ATOM      3  O   UNL     1      -1.329   6.182  -0.675  0.00  0.00    -0.278 OA
ATOM      4  H   UNL     1      -2.767   7.986  -2.725  0.00  0.00    +0.155 HD
ENDROOT
BRANCH   1   9
ATOM      5  C   UNL     1      -0.613   9.687  -2.560  0.00  0.00    +0.091 A 
ATOM      6  C   UNL     1       0.597  10.276  -2.224  0.00  0.00    -0.015 A 
ATOM      7  C   UNL     1       1.391   9.626  -1.319  0.00  0.00    +0.079 A 
ATOM      8  S   UNL     1       0.432   8.175  -0.927  0.00  0.00    -0.068 S 
ATOM      9  C   UNL     1      -0.936   8.470  -1.950  0.00  0.00    +0.087 A 
ATOM     10  C   UNL     1       1.022  11.587  -2.834  0.00  0.00    +0.046 C 
BRANCH   7  11
ATOM     11  C   UNL     1       2.700  10.026  -0.798  0.00  0.00    +0.251 C 
ATOM     12  O   UNL     1       3.214  11.063  -1.174  0.00  0.00    -0.270 OA
ATOM     13  N   UNL     1       3.335   9.245   0.098  0.00  0.00    -0.314 N 
ATOM     14  C   UNL     1       4.645   9.645   0.619  0.00  0.00    +0.128 C 
ATOM     15  H   UNL     1       2.925   8.418   0.398  0.00  0.00    +0.149 HD
ENDBRANCH   7  11
BRANCH   5  16
ATOM     16  C   UNL     1      -1.523  10.318  -3.522  0.00  0.00    +0.342 C 
ATOM     17  O   UNL     1      -2.371  11.099  -3.135  0.00  0.00    -0.245 OA
BRANCH  16  18
ATOM     18  O   UNL     1      -1.419  10.032  -4.836  0.00  0.00    -0.461 OA
BRANCH  18  20
ATOM     19  C   UNL     1      -2.082  10.248  -7.169  0.00  0.00    +0.048 C 
ATOM     20  C   UNL     1      -2.352  10.694  -5.731  0.00  0.00    +0.229 C 
ENDBRANCH  18  20
ENDBRANCH  16  18
ENDBRANCH   5  16
ENDBRANCH   1   9
BRANCH   2  21
ATOM     21  C   UNL     1      -3.438   5.699  -1.618  0.00  0.00    +0.019 C 
BRANCH  21  22
ATOM     22  N   UNL     1      -3.337   4.511  -0.745  0.00  0.00    +0.390 N 
ATOM     23  H   UNL     1      -3.124   4.817   0.212  0.00  0.00    -0.081 HD
BRANCH  22  24
ATOM     24  C   UNL     1      -4.621   3.778  -0.739  0.00  0.00    -0.035 C 
BRANCH  24  25
ATOM     25  C   UNL     1      -4.550   2.681   0.292  0.00  0.00    -0.027 A 
ATOM     26  C   UNL     1      -4.767   2.749   1.628  0.00  0.00    +0.009 A 
ATOM     27  C   UNL     1      -4.649   1.600   2.386  0.00  0.00    +0.008 A 
ATOM     28  C   UNL     1      -4.308   0.440   1.773  0.00  0.00    +0.045 A 
ATOM     29  S   UNL     1      -4.151   0.955   0.071  0.00  0.00    -0.103 S 
ENDBRANCH  24  25
ENDBRANCH  22  24
BRANCH  22  30
ATOM     30  C   UNL     1      -2.252   3.626  -1.219  0.00  0.00    -0.046 C 
BRANCH  30  31
ATOM     31  C   UNL     1      -2.434   3.303  -2.704  0.00  0.00    +0.102 C 
ATOM     32  C   UNL     1      -1.218   2.511  -3.234  0.00  0.00    +0.032 C 
ATOM     33  C   UNL     1      -1.833   1.500  -4.228  0.00  0.00    +0.030 C 
ATOM     34  C   UNL     1      -3.349   1.798  -4.181  0.00  0.00    +0.160 C 
ATOM     35  O   UNL     1      -3.561   2.420  -2.892  0.00  0.00    -0.378 OA
ENDBRANCH  30  31
ENDBRANCH  22  30
ENDBRANCH  21  22
ENDBRANCH   2  21
TORSDOF 11
