REMARK  Name = ZINC40062697
REMARK  7 active torsions:
REMARK  status: ('A' for Active; 'I' for Inactive)
REMARK    1  A    between atoms: C_1  and  C_2
REMARK    2  A    between atoms: C_2  and  C_4
REMARK    3  A    between atoms: C_2  and  O_13
REMARK    4  A    between atoms: O_13  and  C_14
REMARK    5  A    between atoms: C_14  and  C_16
REMARK    6  A    between atoms: N_18  and  C_25
REMARK    7  A    between atoms: C_19  and  C_22
REMARK                            x       y       z     vdW  Elec       q    Type
REMARK                         _______ _______ _______ _____ _____    ______ ____
ROOT
ATOM      1  C   UNL     1       0.509  -1.131  -3.470  0.00  0.00    +0.145 C 
ATOM      2  N   UNL     1       1.769  -1.386  -3.629  0.00  0.00    -0.176 NA
ATOM      3  N   UNL     1       2.101  -1.823  -4.910  0.00  0.00    -0.212 N 
ATOM      4  C   UNL     1       0.881  -1.867  -5.731  0.00  0.00    +0.189 C 
ATOM      5  C   UNL     1      -0.226  -1.403  -4.763  0.00  0.00    +0.098 C 
ENDROOT
BRANCH   3   6
ATOM      6  C   UNL     1       3.384  -2.163  -5.344  0.00  0.00    +0.053 A 
ATOM      7  C   UNL     1       3.588  -2.581  -6.654  0.00  0.00    +0.028 A 
ATOM      8  C   UNL     1       4.857  -2.917  -7.080  0.00  0.00    +0.040 A 
ATOM      9  C   UNL     1       5.927  -2.838  -6.205  0.00  0.00    +0.124 A 
ATOM     10  C   UNL     1       5.727  -2.422  -4.899  0.00  0.00    +0.040 A 
ATOM     11  C   UNL     1       4.460  -2.079  -4.469  0.00  0.00    +0.028 A 
ATOM     12  F   UNL     1       7.168  -3.168  -6.624  0.00  0.00    -0.205 F 
ENDBRANCH   3   6
BRANCH   4  13
ATOM     13  C   UNL     1       0.998  -0.929  -6.904  0.00  0.00    +0.233 C 
ATOM     14  O   UNL     1       1.824  -0.042  -6.892  0.00  0.00    -0.274 OA
ATOM     15  N   UNL     1       0.184  -1.077  -7.969  0.00  0.00    -0.328 N 
ATOM     16  H   UNL     1      -0.476  -1.788  -7.979  0.00  0.00    +0.145 HD
ATOM     17  H   UNL     1       0.260  -0.474  -8.725  0.00  0.00    +0.145 HD
ENDBRANCH   4  13
BRANCH   1  18
ATOM     18  C   UNL     1      -0.089  -0.673  -2.269  0.00  0.00    +0.356 C 
ATOM     19  O   UNL     1      -1.288  -0.469  -2.226  0.00  0.00    -0.244 OA
BRANCH  18  20
ATOM     20  O   UNL     1       0.671  -0.465  -1.174  0.00  0.00    -0.450 OA
BRANCH  20  22
ATOM     21  C   UNL     1      -0.019   1.526   0.010  0.00  0.00    +0.059 C 
ATOM     22  C   UNL     1       0.002  -0.004   0.002  0.00  0.00    +0.229 C 
BRANCH  22  23
ATOM     23  C   UNL     1       0.731  -0.503   1.223  0.00  0.00    +0.120 A 
ATOM     24  N   UNL     1       2.013  -0.497   1.444  0.00  0.00    -0.240 NA
ATOM     25  C   UNL     1       2.547  -0.976   2.587  0.00  0.00    +0.079 A 
ATOM     26  C   UNL     1       3.896  -1.049   2.994  0.00  0.00    +0.029 A 
ATOM     27  C   UNL     1       4.225  -1.577   4.205  0.00  0.00    +0.002 A 
ATOM     28  C   UNL     1       3.258  -2.059   5.076  0.00  0.00    +0.001 A 
ATOM     29  C   UNL     1       1.925  -2.003   4.712  0.00  0.00    +0.017 A 
ATOM     30  C   UNL     1       1.583  -1.472   3.493  0.00  0.00    +0.039 A 
ATOM     31  S   UNL     1       0.070  -1.188   2.611  0.00  0.00    -0.068 S 
ENDBRANCH  22  23
ENDBRANCH  20  22
ENDBRANCH  18  20
ENDBRANCH   1  18
TORSDOF 6
