REMARK  Name = ZINC39736277
REMARK  8 active torsions:
REMARK  status: ('A' for Active; 'I' for Inactive)
REMARK    1  A    between atoms: C_1  and  C_2
REMARK    2  A    between atoms: C_3  and  C_7
REMARK    3  A    between atoms: C_10  and  S_13
REMARK    4  A    between atoms: S_13  and  C_14
REMARK    5  A    between atoms: C_14  and  C_16
REMARK    6  A    between atoms: C_14  and  C_17
REMARK    7  A    between atoms: C_17  and  C_19
REMARK    8  A    between atoms: C_27  and  C_29
REMARK                            x       y       z     vdW  Elec       q    Type
REMARK                         _______ _______ _______ _____ _____    ______ ____
ROOT
ATOM      1  C   UNL     1      -4.713  -0.326   2.842  0.00  0.00    +0.119 C 
ATOM      2  C   UNL     1      -3.504  -1.224   2.571  0.00  0.00    +0.027 C 
ENDROOT
BRANCH   1   3
ATOM      3  C   UNL     1      -5.290  -0.656   4.195  0.00  0.00    +0.174 C 
ATOM      4  O   UNL     1      -6.216  -1.437   4.285  0.00  0.00    -0.291 OA
BRANCH   3   5
ATOM      5  C   UNL     1      -4.756  -0.058   5.355  0.00  0.00    +0.027 C 
ATOM      6  C   UNL     1      -3.643   0.760   5.439  0.00  0.00    +0.006 A 
ATOM      7  C   UNL     1      -2.728   1.241   4.473  0.00  0.00    +0.010 A 
ATOM      8  C   UNL     1      -1.707   2.045   4.843  0.00  0.00    +0.001 A 
ATOM      9  C   UNL     1      -1.502   2.438   6.176  0.00  0.00    +0.002 A 
ATOM     10  C   UNL     1      -2.317   2.034   7.174  0.00  0.00    +0.026 A 
ATOM     11  C   UNL     1      -3.456   1.156   6.856  0.00  0.00    +0.043 A 
ATOM     12  N   UNL     1      -4.381   0.627   7.604  0.00  0.00    -0.377 N 
ATOM     13  C   UNL     1      -5.284  -0.170   6.769  0.00  0.00    +0.111 C 
ATOM     14  C   UNL     1      -5.265  -1.631   7.223  0.00  0.00    +0.035 C 
ATOM     15  H   UNL     1      -4.463   0.745   8.564  0.00  0.00    +0.160 HD
ENDBRANCH   3   5
ENDBRANCH   1   3
BRANCH   1  16
ATOM     16  S   UNL     1      -5.970  -0.601   1.564  0.00  0.00    -0.085 S 
BRANCH  16  20
ATOM     17  C   UNL     1      -2.953   0.261  -0.163  0.00  0.00    +0.243 C 
ATOM     18  N   UNL     1      -3.426   1.450   0.013  0.00  0.00    -0.145 NA
ATOM     19  N   UNL     1      -4.821   1.404   0.153  0.00  0.00    -0.219 N 
ATOM     20  C   UNL     1      -5.179  -0.021   0.038  0.00  0.00    +0.340 C 
ATOM     21  O   UNL     1      -3.923  -0.684  -0.168  0.00  0.00    -0.442 OA
ATOM     22  H   UNL     1      -5.423   2.152   0.295  0.00  0.00    +0.173 HD
BRANCH  17  25
ATOM     23  C   UNL     1      -0.615   2.349  -0.172  0.00  0.00    +0.087 C 
ATOM     24  C   UNL     1      -0.488   0.858  -0.351  0.00  0.00    +0.114 A 
ATOM     25  C   UNL     1      -1.516  -0.034  -0.344  0.00  0.00    +0.078 A 
ATOM     26  C   UNL     1      -0.901  -1.351  -0.554  0.00  0.00    +0.054 A 
ATOM     27  C   UNL     1       0.419  -1.130  -0.665  0.00  0.00    +0.196 A 
ATOM     28  O   UNL     1       0.655   0.186  -0.549  0.00  0.00    -0.467 OA
ENDBRANCH  17  25
ENDBRANCH  16  20
ENDBRANCH   1  16
TORSDOF 5
