REMARK  Name = ZINC01130664
REMARK  8 active torsions:
REMARK  status: ('A' for Active; 'I' for Inactive)
REMARK    1  A    between atoms: C_1  and  C_2
REMARK    2  A    between atoms: C_3  and  C_29
REMARK    3  A    between atoms: C_4  and  C_21
REMARK    4  A    between atoms: C_10  and  S_12
REMARK    5  A    between atoms: S_12  and  C_13
REMARK    6  A    between atoms: C_13  and  C_14
REMARK    7  A    between atoms: C_26  and  O_27
REMARK    8  A    between atoms: O_27  and  C_28
REMARK                            x       y       z     vdW  Elec       q    Type
REMARK                         _______ _______ _______ _____ _____    ______ ____
ROOT
ATOM      1  C   UNL     1       0.503   1.303   0.470  0.00  0.00    +0.064 C 
ATOM      2  C   UNL     1       0.269  -0.160   0.192  0.00  0.00    +0.026 C 
ATOM      3  C   UNL     1      -1.014  -0.612   0.054  0.00  0.00    +0.060 C 
ATOM      4  C   UNL     1      -1.202  -2.092  -0.226  0.00  0.00    +0.169 C 
ATOM      5  N   UNL     1       0.024  -2.893  -0.319  0.00  0.00    -0.187 N 
ATOM      6  C   UNL     1       1.239  -2.270  -0.153  0.00  0.00    +0.217 C 
ATOM      7  N   UNL     1       1.312  -0.968   0.084  0.00  0.00    -0.330 N 
ATOM      8  N   UNL     1       2.190  -3.205  -0.283  0.00  0.00    -0.190 NA
ATOM      9  C   UNL     1       1.645  -4.384  -0.522  0.00  0.00    +0.197 C 
ATOM     10  N   UNL     1       0.285  -4.245  -0.556  0.00  0.00    -0.118 NA
ATOM     11  H   UNL     1       2.195  -0.579   0.190  0.00  0.00    +0.168 HD
ENDROOT
BRANCH   4  12
ATOM     12  C   UNL     1      -1.950  -2.233  -1.526  0.00  0.00    +0.021 A 
ATOM     13  C   UNL     1      -2.055  -1.155  -2.384  0.00  0.00    +0.009 A 
ATOM     14  C   UNL     1      -2.742  -1.284  -3.577  0.00  0.00    +0.001 A 
ATOM     15  C   UNL     1      -3.325  -2.491  -3.915  0.00  0.00    +0.004 A 
ATOM     16  C   UNL     1      -3.223  -3.572  -3.061  0.00  0.00    +0.046 A 
ATOM     17  C   UNL     1      -2.530  -3.447  -1.865  0.00  0.00    +0.125 A 
BRANCH  17  18
ATOM     18  O   UNL     1      -2.424  -4.511  -1.026  0.00  0.00    -0.495 OA
ATOM     19  C   UNL     1      -2.955  -5.755  -1.485  0.00  0.00    +0.277 C 
ENDBRANCH  17  18
ENDBRANCH   4  12
BRANCH   3  20
ATOM     20  C   UNL     1      -2.113   0.258   0.166  0.00  0.00    +0.241 C 
ATOM     21  O   UNL     1      -1.931   1.458   0.283  0.00  0.00    -0.271 OA
ATOM     22  N   UNL     1      -3.367  -0.234   0.144  0.00  0.00    -0.325 N 
ATOM     23  H   UNL     1      -3.515  -1.178  -0.027  0.00  0.00    +0.145 HD
ATOM     24  H   UNL     1      -4.122   0.354   0.300  0.00  0.00    +0.145 HD
ENDBRANCH   3  20
BRANCH   9  25
ATOM     25  S   UNL     1       2.527  -5.891  -0.760  0.00  0.00    -0.082 S 
BRANCH  25  26
ATOM     26  C   UNL     1       4.269  -5.411  -0.596  0.00  0.00    +0.115 C 
BRANCH  26  27
ATOM     27  C   UNL     1       5.144  -6.624  -0.780  0.00  0.00    -0.002 A 
ATOM     28  C   UNL     1       5.489  -7.399   0.310  0.00  0.00    +0.007 A 
ATOM     29  C   UNL     1       6.292  -8.512   0.141  0.00  0.00    +0.000 A 
ATOM     30  C   UNL     1       6.750  -8.851  -1.118  0.00  0.00    +0.003 A 
ATOM     31  C   UNL     1       6.406  -8.077  -2.210  0.00  0.00    +0.038 A 
ATOM     32  C   UNL     1       5.597  -6.965  -2.043  0.00  0.00    +0.127 A 
ATOM     33  F   UNL     1       5.256  -6.211  -3.111  0.00  0.00    -0.205 F 
ENDBRANCH  26  27
ENDBRANCH  25  26
ENDBRANCH   9  25
TORSDOF 6
