REMARK  Name = ZINC20885225
REMARK  7 active torsions:
REMARK  status: ('A' for Active; 'I' for Inactive)
REMARK    1  A    between atoms: C_1  and  C_2
REMARK    2  A    between atoms: C_7  and  C_8
REMARK    3  A    between atoms: C_19  and  C_22
REMARK    4  A    between atoms: C_25  and  O_28
REMARK    5  A    between atoms: O_28  and  C_29
REMARK    6  A    between atoms: C_29  and  C_30
REMARK    7  A    between atoms: C_29  and  C_31
REMARK                            x       y       z     vdW  Elec       q    Type
REMARK                         _______ _______ _______ _____ _____    ______ ____
ROOT
ATOM      1  C   UNL     1      10.273  -2.188  -0.679  0.00  0.00    +0.063 C 
ATOM      2  C   UNL     1      11.039  -0.933  -1.101  0.00  0.00    +0.109 C 
ATOM      3  C   UNL     1      10.679   0.200  -0.174  0.00  0.00    +0.218 C 
ATOM      4  O   UNL     1      11.510   1.037   0.109  0.00  0.00    -0.275 OA
ATOM      5  N   UNL     1       9.440   0.285   0.339  0.00  0.00    -0.289 N 
ATOM      6  C   UNL     1       8.473  -0.633   0.015  0.00  0.00    +0.018 C 
ATOM      7  C   UNL     1       8.816  -1.842  -0.477  0.00  0.00    +0.020 C 
ATOM      8  C   UNL     1       7.843  -2.800  -0.807  0.00  0.00    +0.162 C 
ATOM      9  O   UNL     1       8.190  -3.873  -1.260  0.00  0.00    -0.292 OA
ATOM     10  C   UNL     1       6.378  -2.519  -0.607  0.00  0.00    +0.088 C 
ATOM     11  C   UNL     1       6.215  -1.522   0.545  0.00  0.00    +0.032 C 
ATOM     12  C   UNL     1       7.025  -0.264   0.220  0.00  0.00    +0.059 C 
ATOM     13  H   UNL     1       9.186   1.102   1.031  0.00  0.00    +0.155 HD
ENDROOT
BRANCH   1  20
ATOM     14  C   UNL     1      11.625  -4.740  -0.641  0.00  0.00    +0.044 C 
ATOM     15  C   UNL     1      11.494  -3.938   0.628  0.00  0.00    -0.047 A 
ATOM     16  C   UNL     1      12.022  -4.424   1.810  0.00  0.00    +0.003 A 
ATOM     17  C   UNL     1      11.902  -3.688   2.974  0.00  0.00    +0.000 A 
ATOM     18  C   UNL     1      11.255  -2.466   2.956  0.00  0.00    +0.000 A 
ATOM     19  C   UNL     1      10.733  -1.978   1.773  0.00  0.00    +0.004 A 
ATOM     20  C   UNL     1      10.848  -2.717   0.610  0.00  0.00    -0.036 A 
ENDBRANCH   1  20
BRANCH  11  21
ATOM     21  C   UNL     1       4.761  -1.161   0.700  0.00  0.00    -0.043 A 
ATOM     22  C   UNL     1       4.113  -1.403   1.897  0.00  0.00    +0.007 A 
ATOM     23  C   UNL     1       2.780  -1.073   2.042  0.00  0.00    +0.046 A 
ATOM     24  C   UNL     1       2.090  -0.498   0.985  0.00  0.00    +0.121 A 
ATOM     25  C   UNL     1       2.740  -0.261  -0.217  0.00  0.00    +0.046 A 
ATOM     26  C   UNL     1       4.075  -0.587  -0.355  0.00  0.00    +0.007 A 
BRANCH  24  27
ATOM     27  O   UNL     1       0.778  -0.172   1.125  0.00  0.00    -0.489 OA
BRANCH  27  28
ATOM     28  C   UNL     1       0.101   0.308  -0.038  0.00  0.00    +0.167 C 
ATOM     29  C   UNL     1       0.337   1.813  -0.181  0.00  0.00    +0.051 C 
ATOM     30  C   UNL     1      -1.399   0.037   0.096  0.00  0.00    +0.051 C 
ENDBRANCH  27  28
ENDBRANCH  24  27
ENDBRANCH  11  21
TORSDOF 4
