REMARK  Name = ZINC63352079
REMARK  5 active torsions:
REMARK  status: ('A' for Active; 'I' for Inactive)
REMARK    1  A    between atoms: C_6  and  C_11
REMARK    2  A    between atoms: C_11  and  C_12
REMARK    3  A    between atoms: N_14  and  N_15
REMARK    4  A    between atoms: N_18  and  C_19
REMARK    5  A    between atoms: C_21  and  C_22
REMARK                            x       y       z     vdW  Elec       q    Type
REMARK                         _______ _______ _______ _____ _____    ______ ____
ROOT
ATOM      1  N   UNL     1       7.050  -3.818   2.902  0.00  0.00    -0.218 N 
ATOM      2  C   UNL     1       8.214  -4.456   3.133  0.00  0.00    +0.316 C 
ATOM      3  O   UNL     1       8.581  -4.657   4.275  0.00  0.00    -0.251 OA
ATOM      4  N   UNL     1       8.972  -4.872   2.099  0.00  0.00    -0.295 N 
ATOM      5  H   UNL     1       6.504  -3.519   3.646  0.00  0.00    +0.174 HD
ATOM      6  H   UNL     1       8.679  -4.712   1.188  0.00  0.00    +0.151 HD
ENDROOT
BRANCH   1   9
ATOM      7  C   UNL     1       5.463  -2.949   1.355  0.00  0.00    +0.233 C 
ATOM      8  O   UNL     1       4.781  -2.575   2.285  0.00  0.00    -0.274 OA
ATOM      9  N   UNL     1       6.627  -3.587   1.586  0.00  0.00    -0.233 N 
ATOM     10  H   UNL     1       7.172  -3.886   0.842  0.00  0.00    +0.173 HD
BRANCH   7  11
ATOM     11  C   UNL     1       5.008  -2.700  -0.060  0.00  0.00    +0.132 C 
BRANCH  11  17
ATOM     12  C   UNL     1      -0.016   1.357   0.009  0.00  0.00    +0.001 A 
ATOM     13  C   UNL     1       1.169   2.091   0.002  0.00  0.00    +0.001 A 
ATOM     14  C   UNL     1       2.378   1.468  -0.013  0.00  0.00    +0.008 A 
ATOM     15  C   UNL     1       2.438   0.063  -0.021  0.00  0.00    -0.018 A 
ATOM     16  C   UNL     1       3.668  -0.615  -0.036  0.00  0.00    +0.012 A 
ATOM     17  C   UNL     1       3.687  -1.976  -0.043  0.00  0.00    -0.038 A 
ATOM     18  C   UNL     1       2.502  -2.710  -0.036  0.00  0.00    +0.005 A 
ATOM     19  C   UNL     1       1.292  -2.087  -0.021  0.00  0.00    +0.009 A 
ATOM     20  C   UNL     1       1.233  -0.683  -0.013  0.00  0.00    -0.018 A 
ATOM     21  C   UNL     1       0.002  -0.004   0.002  0.00  0.00    +0.008 A 
ENDBRANCH  11  17
ENDBRANCH   7  11
ENDBRANCH   1   9
BRANCH   4  22
ATOM     22  C   UNL     1      10.237  -5.566   2.351  0.00  0.00    +0.083 C 
ATOM     23  C   UNL     1      10.545  -6.803   1.505  0.00  0.00    +0.033 C 
ATOM     24  C   UNL     1      11.308  -5.499   1.260  0.00  0.00    +0.041 C 
BRANCH  24  25
ATOM     25  C   UNL     1      10.980  -4.725   0.009  0.00  0.00    -0.040 A 
ATOM     26  C   UNL     1       9.901  -5.097  -0.770  0.00  0.00    +0.004 A 
ATOM     27  C   UNL     1       9.599  -4.388  -1.918  0.00  0.00    +0.003 A 
ATOM     28  C   UNL     1      10.377  -3.307  -2.287  0.00  0.00    +0.038 A 
ATOM     29  C   UNL     1      11.458  -2.934  -1.508  0.00  0.00    +0.124 A 
ATOM     30  C   UNL     1      11.756  -3.641  -0.355  0.00  0.00    +0.042 A 
ATOM     31  F   UNL     1      12.219  -1.878  -1.868  0.00  0.00    -0.205 F 
ENDBRANCH  24  25
ENDBRANCH   4  22
TORSDOF 5
