REMARK  Name = ZINC09671022
REMARK  9 active torsions:
REMARK  status: ('A' for Active; 'I' for Inactive)
REMARK    1  A    between atoms: C_1  and  C_2
REMARK    2  A    between atoms: C_2  and  C_4
REMARK    3  A    between atoms: C_2  and  N_55
REMARK    4  A    between atoms: C_7  and  S_16
REMARK    5  A    between atoms: N_8  and  C_9
REMARK    6  A    between atoms: S_16  and  C_17
REMARK    7  A    between atoms: C_17  and  C_18
REMARK    8  A    between atoms: N_20  and  C_21
REMARK    9  A    between atoms: C_22  and  C_26
REMARK                            x       y       z     vdW  Elec       q    Type
REMARK                         _______ _______ _______ _____ _____    ______ ____
ROOT
ATOM      1  C   UNL     1       3.059  -8.738   0.116  0.00  0.00    +0.125 A 
ATOM      2  N   UNL     1       3.910  -7.753   0.168  0.00  0.00    -0.135 NA
ATOM      3  N   UNL     1       3.291  -6.642   0.352  0.00  0.00    -0.122 NA
ATOM      4  C   UNL     1       1.998  -6.859   0.429  0.00  0.00    +0.197 A 
ATOM      5  N   UNL     1       1.809  -8.206   0.285  0.00  0.00    -0.275 N 
ENDROOT
BRANCH   5   6
ATOM      6  C   UNL     1       0.588  -8.897   0.304  0.00  0.00    +0.050 A 
ATOM      7  C   UNL     1       0.322  -9.809   1.316  0.00  0.00    +0.028 A 
ATOM      8  C   UNL     1      -0.882 -10.485   1.335  0.00  0.00    +0.022 A 
ATOM      9  C   UNL     1      -1.819 -10.262   0.341  0.00  0.00    +0.041 A 
ATOM     10  C   UNL     1      -1.553  -9.357  -0.672  0.00  0.00    +0.022 A 
ATOM     11  C   UNL     1      -0.352  -8.675  -0.693  0.00  0.00    +0.028 A 
ATOM     12 CL   UNL     1      -3.329 -11.117   0.364  0.00  0.00    -0.084 Cl
ENDBRANCH   5   6
BRANCH   1  14
ATOM     13  C   UNL     1       3.788 -10.428  -1.547  0.00  0.00    -0.005 C 
ATOM     14  C   UNL     1       3.390 -10.194  -0.088  0.00  0.00    -0.002 C 
BRANCH  14  20
ATOM     15  C   UNL     1       4.838 -11.993   0.639  0.00  0.00    -0.078 C 
ATOM     16  C   UNL     1       6.091 -12.316   1.455  0.00  0.00    -0.019 C 
ATOM     17  C   UNL     1       5.835 -11.985   2.928  0.00  0.00    -0.004 C 
ATOM     18  C   UNL     1       5.445 -10.509   3.051  0.00  0.00    -0.019 C 
ATOM     19  C   UNL     1       4.210 -10.239   2.189  0.00  0.00    -0.078 C 
ATOM     20  N   UNL     1       4.530 -10.554   0.780  0.00  0.00    +0.386 N 
ATOM     21  H   UNL     1       5.351 -10.009   0.495  0.00  0.00    -0.081 HD
ENDBRANCH  14  20
ENDBRANCH   1  14
BRANCH   4  22
ATOM     22  S   UNL     1       0.745  -5.645   0.677  0.00  0.00    -0.076 S 
BRANCH  22  23
ATOM     23  C   UNL     1       1.767  -4.154   0.777  0.00  0.00    +0.173 C 
BRANCH  23  24
ATOM     24  C   UNL     1       0.883  -2.953   0.994  0.00  0.00    +0.228 C 
ATOM     25  O   UNL     1      -0.319  -3.091   1.073  0.00  0.00    -0.275 OA
ATOM     26  N   UNL     1       1.429  -1.725   1.101  0.00  0.00    -0.278 N 
ATOM     27  H   UNL     1       2.391  -1.615   1.037  0.00  0.00    +0.155 HD
BRANCH  26  28
ATOM     28  C   UNL     1       0.615  -0.619   1.300  0.00  0.00    +0.089 A 
ATOM     29  C   UNL     1       0.987   0.713   1.433  0.00  0.00    +0.080 A 
ATOM     30  C   UNL     1      -0.077   1.667   1.634  0.00  0.00    +0.028 A 
ATOM     31  C   UNL     1      -1.333   1.187   1.675  0.00  0.00    +0.048 A 
ATOM     32  S   UNL     1      -1.110  -0.565   1.444  0.00  0.00    -0.081 S 
BRANCH  29  33
ATOM     33  C   UNL     1       2.358   1.119   1.373  0.00  0.00    +0.102 C 
ATOM     34  N   UNL     1       3.447   1.441   1.325  0.00  0.00    -0.191 NA
ENDBRANCH  29  33
ENDBRANCH  26  28
ENDBRANCH  23  24
ENDBRANCH  22  23
ENDBRANCH   4  22
TORSDOF 8
