REMARK  Name = ZINC63383462
REMARK  9 active torsions:
REMARK  status: ('A' for Active; 'I' for Inactive)
REMARK    1  A    between atoms: C_1  and  C_2
REMARK    2  A    between atoms: C_2  and  C_3
REMARK    3  A    between atoms: C_3  and  C_5
REMARK    4  A    between atoms: C_3  and  C_6
REMARK    5  A    between atoms: C_6  and  C_8
REMARK    6  A    between atoms: C_6  and  N_18
REMARK    7  A    between atoms: N_10  and  C_11
REMARK    8  A    between atoms: C_11  and  C_12
REMARK    9  A    between atoms: C_19  and  C_21
REMARK                            x       y       z     vdW  Elec       q    Type
REMARK                         _______ _______ _______ _____ _____    ______ ____
ROOT
ATOM      1  C   UNL     1      -0.071  -2.906  -5.332  0.00  0.00    +0.167 C 
ATOM      2  C   UNL     1      -0.769  -2.156  -6.484  0.00  0.00    +0.065 C 
ATOM      3  C   UNL     1      -2.238  -2.494  -6.409  0.00  0.00    -0.034 C 
ATOM      4  C   UNL     1      -3.309  -1.708  -6.369  0.00  0.00    -0.001 A 
ATOM      5  C   UNL     1      -3.456  -0.248  -6.477  0.00  0.00    +0.010 A 
ATOM      6  C   UNL     1      -4.721   0.237  -6.373  0.00  0.00    +0.001 A 
ATOM      7  C   UNL     1      -5.842  -0.575  -6.175  0.00  0.00    +0.002 A 
ATOM      8  C   UNL     1      -5.801  -1.927  -6.072  0.00  0.00    +0.026 A 
ATOM      9  C   UNL     1      -4.525  -2.554  -6.173  0.00  0.00    +0.043 A 
ATOM     10  N   UNL     1      -4.201  -3.812  -6.131  0.00  0.00    -0.375 N 
ATOM     11  C   UNL     1      -2.757  -3.926  -6.346  0.00  0.00    +0.131 C 
ATOM     12  C   UNL     1      -2.059  -4.589  -5.154  0.00  0.00    +0.134 C 
ATOM     13  N   UNL     1      -0.614  -4.269  -5.262  0.00  0.00    -0.276 N 
ATOM     14  C   UNL     1       0.086  -5.416  -5.297  0.00  0.00    +0.248 C 
ATOM     15  O   UNL     1       1.300  -5.491  -5.308  0.00  0.00    -0.270 OA
ATOM     16  C   UNL     1      -0.824  -6.563  -5.321  0.00  0.00    +0.042 A 
ATOM     17  C   UNL     1      -2.167  -6.077  -5.234  0.00  0.00    -0.013 A 
ATOM     18  C   UNL     1      -3.256  -6.919  -5.234  0.00  0.00    +0.006 A 
ATOM     19  C   UNL     1      -3.000  -8.285  -5.318  0.00  0.00    +0.000 A 
ATOM     20  C   UNL     1      -1.713  -8.779  -5.396  0.00  0.00    +0.001 A 
ATOM     21  C   UNL     1      -0.564  -7.933  -5.405  0.00  0.00    +0.013 A 
ATOM     22  H   UNL     1      -4.812  -4.551  -5.982  0.00  0.00    +0.160 HD
ENDROOT
BRANCH   1  24
ATOM     23  N   UNL     1       0.078  -0.915  -3.872  0.00  0.00    -0.302 N 
ATOM     24  C   UNL     1      -0.329  -2.190  -4.032  0.00  0.00    +0.235 C 
ATOM     25  O   UNL     1      -0.903  -2.761  -3.128  0.00  0.00    -0.274 OA
ATOM     26  H   UNL     1       0.537  -0.458  -4.594  0.00  0.00    +0.150 HD
BRANCH  23  27
ATOM     27  C   UNL     1      -0.172  -0.219  -2.607  0.00  0.00    +0.162 C 
BRANCH  27  28
ATOM     28  C   UNL     1      -0.209   1.268  -2.851  0.00  0.00    +0.234 C 
ATOM     29  O   UNL     1       0.280   1.729  -3.861  0.00  0.00    -0.274 OA
ATOM     30  N   UNL     1      -0.784   2.085  -1.947  0.00  0.00    -0.311 N 
ATOM     31  H   UNL     1      -1.106   1.727  -1.105  0.00  0.00    +0.149 HD
BRANCH  30  32
ATOM     32  C   UNL     1      -0.923   3.515  -2.235  0.00  0.00    +0.135 C 
BRANCH  32  33
ATOM     33  C   UNL     1      -1.603   4.210  -1.054  0.00  0.00    +0.135 C 
ATOM     34  C   UNL     1      -1.791   5.718  -1.353  0.00  0.00    +0.035 C 
ATOM     35  C   UNL     1      -2.991   6.055  -0.426  0.00  0.00    +0.031 C 
ATOM     36  C   UNL     1      -3.813   4.749  -0.467  0.00  0.00    +0.160 C 
ATOM     37  O   UNL     1      -2.930   3.693  -0.869  0.00  0.00    -0.375 OA
ENDBRANCH  32  33
ENDBRANCH  30  32
ENDBRANCH  27  28
BRANCH  27  38
ATOM     38  C   UNL     1       0.946  -0.546  -1.615  0.00  0.00    +0.015 C 
ATOM     39  C   UNL     1       2.302  -0.249  -2.259  0.00  0.00    +0.010 C 
BRANCH  38  41
ATOM     40  C   UNL     1      -0.419  -2.292  -0.462  0.00  0.00    +0.004 C 
ATOM     41  C   UNL     1       0.874  -2.026  -1.236  0.00  0.00    +0.002 C 
ENDBRANCH  38  41
ENDBRANCH  27  38
ENDBRANCH  23  27
ENDBRANCH   1  24
TORSDOF 7
