REMARK  Name = ZINC08789154
REMARK  12 active torsions:
REMARK  status: ('A' for Active; 'I' for Inactive)
REMARK    1  A    between atoms: C_1  and  C_2
REMARK    2  A    between atoms: C_5  and  C_34
REMARK    3  A    between atoms: C_9  and  C_10
REMARK    4  A    between atoms: C_9  and  N_64
REMARK    5  A    between atoms: C_11  and  O_33
REMARK    6  A    between atoms: C_18  and  C_19
REMARK    7  A    between atoms: C_21  and  O_29
REMARK    8  A    between atoms: C_22  and  O_27
REMARK    9  A    between atoms: C_23  and  O_25
REMARK   10  A    between atoms: O_25  and  C_26
REMARK   11  A    between atoms: O_27  and  C_28
REMARK   12  A    between atoms: O_29  and  C_30
REMARK                            x       y       z     vdW  Elec       q    Type
REMARK                         _______ _______ _______ _____ _____    ______ ____
ROOT
ATOM      1  C   UNL     1       1.353   4.494  -1.039  0.00  0.00    +0.020 A 
ATOM      2  C   UNL     1       2.715   4.291  -1.197  0.00  0.00    +0.122 A 
ATOM      3  C   UNL     1       3.264   3.022  -1.038  0.00  0.00    +0.046 A 
ATOM      4  C   UNL     1       2.462   1.960  -0.725  0.00  0.00    +0.019 A 
ATOM      5  C   UNL     1       1.089   2.151  -0.563  0.00  0.00    +0.068 A 
ATOM      6  C   UNL     1       0.524   3.426  -0.720  0.00  0.00    +0.144 A 
ATOM      7  O   UNL     1      -0.810   3.361  -0.516  0.00  0.00    -0.451 OA
ATOM      8  C   UNL     1      -1.214   2.101  -0.229  0.00  0.00    +0.176 C 
ATOM      9  C   UNL     1      -2.489   1.705   0.022  0.00  0.00    +0.058 C 
ATOM     10  C   UNL     1      -0.023   1.241  -0.234  0.00  0.00    +0.231 C 
ATOM     11  O   UNL     1       0.033   0.042  -0.018  0.00  0.00    -0.283 OA
ENDROOT
BRANCH   9  12
ATOM     12  C   UNL     1      -3.557   2.704   0.142  0.00  0.00    -0.014 A 
ATOM     13  C   UNL     1      -3.244   4.069   0.154  0.00  0.00    +0.057 A 
ATOM     14  C   UNL     1      -4.254   5.006   0.261  0.00  0.00    +0.166 A 
ATOM     15  C   UNL     1      -5.580   4.595   0.370  0.00  0.00    +0.204 A 
ATOM     16  C   UNL     1      -5.895   3.238   0.365  0.00  0.00    +0.166 A 
ATOM     17  C   UNL     1      -4.892   2.295   0.252  0.00  0.00    +0.057 A 
BRANCH  16  18
ATOM     18  O   UNL     1      -7.191   2.841   0.471  0.00  0.00    -0.491 OA
ATOM     19  C   UNL     1      -7.443   1.435   0.460  0.00  0.00    +0.277 C 
ENDBRANCH  16  18
BRANCH  15  20
ATOM     20  O   UNL     1      -6.570   5.520   0.481  0.00  0.00    -0.488 OA
ATOM     21  C   UNL     1      -6.929   5.930   1.802  0.00  0.00    +0.277 C 
ENDBRANCH  15  20
BRANCH  14  22
ATOM     22  O   UNL     1      -3.951   6.332   0.267  0.00  0.00    -0.491 OA
ATOM     23  C   UNL     1      -2.571   6.684   0.152  0.00  0.00    +0.277 C 
ENDBRANCH  14  22
ENDBRANCH   9  12
BRANCH   2  24
ATOM     24  O   UNL     1       3.520   5.338  -1.509  0.00  0.00    -0.506 OA
ATOM     25  H   UNL     1       3.629   5.480  -2.459  0.00  0.00    +0.292 HD
ENDBRANCH   2  24
BRANCH   1  26
ATOM     26  C   UNL     1       0.772   5.873  -1.214  0.00  0.00    -0.036 C 
BRANCH  26  34
ATOM     27  C   UNL     1       2.358   6.150  -5.862  0.00  0.00    +0.005 C 
ATOM     28  C   UNL     1       1.127   6.129  -4.954  0.00  0.00    -0.031 C 
ATOM     29  C   UNL     1       0.302   7.399  -5.181  0.00  0.00    +0.003 C 
ATOM     30  C   UNL     1      -0.895   7.398  -4.226  0.00  0.00    -0.031 C 
ATOM     31  C   UNL     1      -0.392   7.301  -2.784  0.00  0.00    -0.075 C 
ATOM     32  C   UNL     1       1.571   6.069  -3.491  0.00  0.00    -0.075 C 
ATOM     33  C   UNL     1      -1.794   6.199  -4.535  0.00  0.00    +0.005 C 
ATOM     34  N   UNL     1       0.372   6.046  -2.626  0.00  0.00    +0.383 N 
ATOM     35  H   UNL     1      -0.223   5.256  -2.903  0.00  0.00    -0.081 HD
ENDBRANCH  26  34
ENDBRANCH   1  26
TORSDOF 7
