REMARK  Name = ZINC04772677
REMARK  2 active torsions:
REMARK  status: ('A' for Active; 'I' for Inactive)
REMARK    1  A    between atoms: C_9  and  N_11
REMARK    2  A    between atoms: C_12  and  C_18
REMARK                            x       y       z     vdW  Elec       q    Type
REMARK                         _______ _______ _______ _____ _____    ______ ____
ROOT
ATOM      1  N   UNL     1      -2.868   2.919   1.324  0.00  0.00    -0.295 N 
ATOM      2  C   UNL     1      -4.057   2.892   2.028  0.00  0.00    +0.170 A 
ATOM      3  N   UNL     1      -4.323   4.103   2.438  0.00  0.00    -0.153 NA
ATOM      4  N   UNL     1      -3.297   4.947   1.990  0.00  0.00    -0.254 N 
ATOM      5  H   UNL     1      -3.328   6.021   2.223  0.00  0.00    +0.191 HD
ATOM      6  C   UNL     1      -2.416   4.188   1.306  0.00  0.00    +0.176 A 
ATOM      7  S   UNL     1      -0.981   4.739   0.552  0.00  0.00    -0.011 S 
ENDROOT
BRANCH   1  16
ATOM      8  C   UNL     1      -1.297   2.241  -3.440  0.00  0.00    +0.000 A 
ATOM      9  C   UNL     1      -2.562   2.632  -3.043  0.00  0.00    +0.000 A 
ATOM     10  C   UNL     1      -2.937   2.511  -1.720  0.00  0.00    +0.006 A 
ATOM     11  C   UNL     1      -2.050   1.998  -0.788  0.00  0.00    -0.021 A 
ATOM     12  C   UNL     1      -0.785   1.607  -1.185  0.00  0.00    -0.042 A 
ATOM     13  C   UNL     1      -0.411   1.730  -2.513  0.00  0.00    +0.004 A 
ATOM     14  C   UNL     1      -0.013   1.086   0.008  0.00  0.00    +0.038 C 
ATOM     15  C   UNL     1      -0.777   1.604   1.245  0.00  0.00    +0.034 C 
ATOM     16  C   UNL     1      -2.214   1.766   0.699  0.00  0.00    +0.122 C 
ENDBRANCH   1  16
BRANCH   2  17
ATOM     17  C   UNL     1      -4.883   1.698   2.277  0.00  0.00    +0.056 A 
ATOM     18  C   UNL     1      -5.900   1.524   3.181  0.00  0.00    +0.019 A 
ATOM     19  C   UNL     1      -6.538   0.305   3.232  0.00  0.00    +0.008 A 
ATOM     20  C   UNL     1      -6.136  -0.688   2.396  0.00  0.00    +0.046 A 
ATOM     21  S   UNL     1      -4.816   0.098   1.488  0.00  0.00    -0.094 S 
ENDBRANCH   2  17
TORSDOF 2
