REMARK  Name = ZINC17640254
REMARK  12 active torsions:
REMARK  status: ('A' for Active; 'I' for Inactive)
REMARK    1  A    between atoms: C_1  and  C_2
REMARK    2  A    between atoms: C_3  and  C_35
REMARK    3  A    between atoms: C_11  and  C_13
REMARK    4  A    between atoms: C_13  and  S_14
REMARK    5  A    between atoms: S_14  and  C_15
REMARK    6  A    between atoms: C_15  and  C_17
REMARK    7  A    between atoms: C_15  and  C_18
REMARK    8  A    between atoms: N_20  and  N_21
REMARK    9  A    between atoms: C_22  and  C_24
REMARK   10  A    between atoms: C_24  and  C_26
REMARK   11  A    between atoms: C_24  and  O_27
REMARK   12  A    between atoms: O_27  and  C_28
REMARK                            x       y       z     vdW  Elec       q    Type
REMARK                         _______ _______ _______ _____ _____    ______ ____
ROOT
ATOM      1  C   UNL     1      -2.366   1.013  -0.535  0.00  0.00    +0.242 C 
ATOM      2  O   UNL     1      -2.380  -0.189  -0.373  0.00  0.00    -0.273 OA
ATOM      3  N   UNL     1      -1.199   1.685  -0.499  0.00  0.00    -0.233 N 
ATOM      4  H   UNL     1      -1.188   2.646  -0.628  0.00  0.00    +0.173 HD
ENDROOT
BRANCH   3   5
ATOM      5  N   UNL     1       0.000   0.995  -0.275  0.00  0.00    -0.231 N 
ATOM      6  C   UNL     1       1.168   1.666  -0.244  0.00  0.00    +0.270 C 
ATOM      7  O   UNL     1       1.181   2.868  -0.406  0.00  0.00    -0.270 OA
ATOM      8  H   UNL     1      -0.011   0.034  -0.145  0.00  0.00    +0.173 HD
BRANCH   6   9
ATOM      9  C   UNL     1       2.458   0.923  -0.009  0.00  0.00    +0.257 C 
ATOM     10  C   UNL     1       2.720  -0.027  -1.179  0.00  0.00    +0.062 C 
BRANCH   9  11
ATOM     11  O   UNL     1       3.534   1.858   0.096  0.00  0.00    -0.477 OA
BRANCH  11  12
ATOM     12  C   UNL     1       4.629   1.463   0.797  0.00  0.00    +0.157 A 
ATOM     13  C   UNL     1       4.716   0.165   1.277  0.00  0.00    +0.048 A 
ATOM     14  C   UNL     1       5.830  -0.235   1.989  0.00  0.00    +0.004 A 
ATOM     15  C   UNL     1       6.860   0.657   2.224  0.00  0.00    +0.003 A 
ATOM     16  C   UNL     1       6.778   1.952   1.747  0.00  0.00    +0.042 A 
ATOM     17  C   UNL     1       5.667   2.357   1.030  0.00  0.00    +0.165 A 
ATOM     18  F   UNL     1       5.589   3.621   0.560  0.00  0.00    -0.202 F 
ENDBRANCH  11  12
ENDBRANCH   9  11
ENDBRANCH   6   9
ENDBRANCH   3   5
BRANCH   1  19
ATOM     19  C   UNL     1      -3.655   1.755  -0.777  0.00  0.00    +0.131 C 
ATOM     20  C   UNL     1      -4.118   2.411   0.526  0.00  0.00    +0.029 C 
BRANCH  19  21
ATOM     21  S   UNL     1      -4.924   0.592  -1.351  0.00  0.00    -0.141 S 
BRANCH  21  22
ATOM     22  C   UNL     1      -6.346   1.650  -1.737  0.00  0.00    +0.144 C 
BRANCH  22  33
ATOM     23  C   UNL     1     -11.906  -1.320  -4.021  0.00  0.00    +0.045 C 
ATOM     24  C   UNL     1     -10.528  -1.745  -3.582  0.00  0.00    -0.026 A 
ATOM     25  C   UNL     1     -10.179  -3.041  -3.601  0.00  0.00    -0.008 A 
ATOM     26  S   UNL     1      -8.498  -3.024  -3.006  0.00  0.00    -0.073 S 
ATOM     27  C   UNL     1      -8.315  -1.278  -2.751  0.00  0.00    +0.116 A 
ATOM     28  C   UNL     1      -9.564  -0.758  -3.134  0.00  0.00    +0.075 A 
ATOM     29  C   UNL     1      -9.701   0.665  -3.028  0.00  0.00    +0.260 A 
ATOM     30  O   UNL     1     -10.746   1.210  -3.337  0.00  0.00    -0.267 OA
ATOM     31  N   UNL     1      -8.660   1.388  -2.575  0.00  0.00    -0.310 N 
ATOM     32  H   UNL     1      -8.748   2.350  -2.497  0.00  0.00    +0.170 HD
ATOM     33  C   UNL     1      -7.486   0.797  -2.232  0.00  0.00    +0.121 A 
ATOM     34  N   UNL     1      -7.330  -0.496  -2.318  0.00  0.00    -0.226 NA
ATOM     35  C   UNL     1     -11.009  -4.226  -4.023  0.00  0.00    +0.052 C 
ENDBRANCH  22  33
ENDBRANCH  21  22
ENDBRANCH  19  21
ENDBRANCH   1  19
TORSDOF 8
