REMARK  Name = ZINC22369180
REMARK  14 active torsions:
REMARK  status: ('A' for Active; 'I' for Inactive)
REMARK    1  A    between atoms: C_1  and  C_2
REMARK    2  A    between atoms: C_2  and  C_3
REMARK    3  A    between atoms: N_9  and  C_10
REMARK    4  A    between atoms: C_10  and  C_11
REMARK    5  A    between atoms: C_11  and  C_12
REMARK    6  A    between atoms: C_12  and  N_13
REMARK    7  A    between atoms: C_14  and  C_16
REMARK    8  A    between atoms: C_16  and  N_17
REMARK    9  A    between atoms: N_17  and  C_18
REMARK   10  A    between atoms: N_17  and  S_27
REMARK   11  A    between atoms: C_21  and  O_24
REMARK   12  A    between atoms: O_24  and  C_25
REMARK   13  A    between atoms: C_25  and  C_26
REMARK   14  A    between atoms: S_27  and  C_30
REMARK                            x       y       z     vdW  Elec       q    Type
REMARK                         _______ _______ _______ _____ _____    ______ ____
ROOT
ATOM      1  N   UNL     1      -9.600   1.031   4.022  0.00  0.00    -0.194 N 
ENDROOT
BRANCH   1   2
ATOM      2  C   UNL     1     -10.360   2.061   3.458  0.00  0.00    +0.052 A 
ATOM      3  C   UNL     1     -11.739   1.934   3.361  0.00  0.00    +0.028 A 
ATOM      4  C   UNL     1     -12.489   2.954   2.808  0.00  0.00    +0.047 A 
ATOM      5  C   UNL     1     -11.864   4.100   2.340  0.00  0.00    +0.121 A 
ATOM      6  C   UNL     1     -10.486   4.225   2.431  0.00  0.00    +0.047 A 
ATOM      7  C   UNL     1      -9.735   3.209   2.988  0.00  0.00    +0.028 A 
BRANCH   5   8
ATOM      8  O   UNL     1     -12.603   5.101   1.792  0.00  0.00    -0.492 OA
BRANCH   8   9
ATOM      9  C   UNL     1     -14.017   4.905   1.730  0.00  0.00    +0.225 C 
ATOM     10  C   UNL     1     -14.674   6.128   1.087  0.00  0.00    +0.048 C 
ENDBRANCH   8   9
ENDBRANCH   5   8
ENDBRANCH   1   2
BRANCH   1  11
ATOM     11  S   UNL     1     -10.165  -0.525   3.997  0.00  0.00    +0.075 S 
ATOM     12  O   UNL     1     -11.097  -0.601   2.926  0.00  0.00    -0.150 OA
ATOM     13  O   UNL     1      -9.028  -1.373   4.078  0.00  0.00    -0.150 OA
BRANCH  11  14
ATOM     14  C   UNL     1     -11.084  -0.770   5.480  0.00  0.00    +0.109 A 
ATOM     15  C   UNL     1     -10.430  -1.120   6.647  0.00  0.00    +0.031 A 
ATOM     16  C   UNL     1     -11.149  -1.308   7.813  0.00  0.00    +0.040 A 
ATOM     17  C   UNL     1     -12.525  -1.156   7.809  0.00  0.00    +0.124 A 
ATOM     18  C   UNL     1     -13.179  -0.811   6.638  0.00  0.00    +0.040 A 
ATOM     19  C   UNL     1     -12.458  -0.619   5.475  0.00  0.00    +0.031 A 
ATOM     20  F   UNL     1     -13.229  -1.344   8.947  0.00  0.00    -0.205 F 
ENDBRANCH  11  14
ENDBRANCH   1  11
BRANCH   1  21
ATOM     21  C   UNL     1      -8.303   1.329   4.636  0.00  0.00    +0.227 C 
BRANCH  21  23
ATOM     22  N   UNL     1      -5.954   1.593   3.908  0.00  0.00    -0.314 N 
ATOM     23  C   UNL     1      -7.235   1.339   3.573  0.00  0.00    +0.232 C 
ATOM     24  O   UNL     1      -7.528   1.120   2.417  0.00  0.00    -0.274 OA
ATOM     25  H   UNL     1      -5.689   1.792   4.957  0.00  0.00    +0.149 HD
BRANCH  22  26
ATOM     26  C   UNL     1      -4.916   1.603   2.875  0.00  0.00    +0.102 C 
BRANCH  26  27
ATOM     27  C   UNL     1      -3.562   1.915   3.516  0.00  0.00    +0.000 C 
BRANCH  27  28
ATOM     28  C   UNL     1      -2.477   1.925   2.437  0.00  0.00    -0.077 C 
BRANCH  28  34
ATOM     29  C   UNL     1      -0.095   2.143   2.063  0.00  0.00    -0.069 C 
ATOM     30  C   UNL     1       1.218   2.601   2.702  0.00  0.00    -0.015 C 
ATOM     31  C   UNL     1       1.533   1.707   3.905  0.00  0.00    -0.003 C 
ATOM     32  C   UNL     1       0.369   1.771   4.897  0.00  0.00    -0.019 C 
ATOM     33  C   UNL     1      -0.919   1.338   4.194  0.00  0.00    -0.078 C 
ATOM     34  N   UNL     1      -1.177   2.224   3.052  0.00  0.00    +0.382 N 
ATOM     35  H   UNL     1      -1.210   3.257   3.430  0.00  0.00    -0.081 HD
BRANCH  29  37
ATOM     36  C   UNL     1       0.636   2.865  -0.215  0.00  0.00    +0.002 C 
ATOM     37  C   UNL     1      -0.424   3.047   0.873  0.00  0.00    -0.019 C 
ENDBRANCH  29  37
ENDBRANCH  28  34
ENDBRANCH  27  28
ENDBRANCH  26  27
ENDBRANCH  22  26
ENDBRANCH  21  23
ENDBRANCH   1  21
TORSDOF 12
