REMARK  Name = ZINC04631656
REMARK  9 active torsions:
REMARK  status: ('A' for Active; 'I' for Inactive)
REMARK    1  A    between atoms: C_1  and  C_2
REMARK    2  A    between atoms: C_2  and  C_3
REMARK    3  A    between atoms: C_6  and  C_9
REMARK    4  A    between atoms: N_14  and  C_28
REMARK    5  A    between atoms: C_18  and  C_24
REMARK    6  A    between atoms: C_18  and  C_26
REMARK    7  A    between atoms: C_19  and  N_23
REMARK    8  A    between atoms: C_20  and  C_21
REMARK    9  A    between atoms: C_28  and  C_29
REMARK                            x       y       z     vdW  Elec       q    Type
REMARK                         _______ _______ _______ _____ _____    ______ ____
ROOT
ATOM      1  C   UNL     1       2.490   1.048  -0.016  0.00  0.00    +0.069 C 
ATOM      2  C   UNL     1       3.271   1.440  -1.275  0.00  0.00    +0.044 C 
ATOM      3  C   UNL     1       2.607   0.811  -2.491  0.00  0.00    +0.094 C 
ATOM      4  N   UNL     1       3.577   0.572  -3.564  0.00  0.00    -0.294 NA
ATOM      5  C   UNL     1       4.589  -0.401  -3.123  0.00  0.00    +0.112 C 
ATOM      6  C   UNL     1       5.291   0.163  -1.917  0.00  0.00    -0.009 C 
ATOM      7  C   UNL     1       4.698   0.989  -1.106  0.00  0.00    -0.028 C 
ATOM      8  C   UNL     1       5.472   1.559   0.067  0.00  0.00    +0.202 C 
ATOM      9  C   UNL     1       4.574   1.600   1.271  0.00  0.00    +0.054 C 
ATOM     10  C   UNL     1       3.261   1.391   1.221  0.00  0.00    +0.057 C 
ENDROOT
BRANCH   1  14
ATOM     11  C   UNL     1      -1.238   3.133   0.029  0.00  0.00    -0.048 A 
ATOM     12  C   UNL     1      -1.219   1.751   0.017  0.00  0.00    +0.004 A 
ATOM     13  C   UNL     1      -0.013   1.076   0.008  0.00  0.00    +0.004 A 
ATOM     14  C   UNL     1       1.175   1.783   0.000  0.00  0.00    -0.039 A 
ATOM     15  C   UNL     1       1.156   3.165   0.008  0.00  0.00    +0.004 A 
ATOM     16  C   UNL     1      -0.050   3.840   0.022  0.00  0.00    +0.004 A 
BRANCH  11  18
ATOM     17  C   UNL     1      -3.010   4.125  -1.393  0.00  0.00    +0.009 C 
ATOM     18  C   UNL     1      -2.553   3.869   0.044  0.00  0.00    +0.032 C 
ENDBRANCH  11  18
ENDBRANCH   1  14
BRANCH   9  19
ATOM     19  N   UNL     1       5.140   1.867   2.491  0.00  0.00    -0.358 N 
ATOM     20  H   UNL     1       4.511   1.905   3.393  0.00  0.00    +0.142 HD
ATOM     21  H   UNL     1       6.223   2.045   2.568  0.00  0.00    +0.142 HD
ENDBRANCH   9  19
BRANCH  10  22
ATOM     22  C   UNL     1       2.527   1.504   2.446  0.00  0.00    +0.097 C 
ATOM     23  N   UNL     1       1.945   1.593   3.417  0.00  0.00    -0.191 NA
ENDBRANCH  10  22
BRANCH   8  24
ATOM     24  C   UNL     1       6.637   0.705   0.350  0.00  0.00    +0.095 C 
ATOM     25  N   UNL     1       7.536   0.046   0.568  0.00  0.00    -0.194 NA
ENDBRANCH   8  24
BRANCH   8  26
ATOM     26  C   UNL     1       5.925   2.921  -0.257  0.00  0.00    +0.095 C 
ATOM     27  N   UNL     1       6.274   3.973  -0.507  0.00  0.00    -0.194 NA
ENDBRANCH   8  26
BRANCH   4  28
ATOM     28  C   UNL     1       2.905   0.115  -4.788  0.00  0.00    +0.120 C 
BRANCH  28  29
ATOM     29  C   UNL     1       3.937  -0.353  -5.782  0.00  0.00    -0.033 A 
ATOM     30  C   UNL     1       4.474   0.539  -6.692  0.00  0.00    +0.005 A 
ATOM     31  C   UNL     1       5.424   0.111  -7.600  0.00  0.00    +0.000 A 
ATOM     32  C   UNL     1       5.829  -1.211  -7.606  0.00  0.00    +0.000 A 
ATOM     33  C   UNL     1       5.288  -2.104  -6.699  0.00  0.00    +0.000 A 
ATOM     34  C   UNL     1       4.342  -1.674  -5.787  0.00  0.00    +0.005 A 
ENDBRANCH  28  29
ENDBRANCH   4  28
TORSDOF 8
