REMARK  Name = ZINC15868551
REMARK  5 active torsions:
REMARK  status: ('A' for Active; 'I' for Inactive)
REMARK    1  A    between atoms: C_1  and  C_2
REMARK    2  A    between atoms: C_10  and  C_12
REMARK    3  A    between atoms: C_17  and  N_18
REMARK    4  A    between atoms: N_18  and  S_19
REMARK    5  A    between atoms: S_19  and  C_22
REMARK                            x       y       z     vdW  Elec       q    Type
REMARK                         _______ _______ _______ _____ _____    ______ ____
ROOT
ATOM      1  C   UNL     1      -3.132   2.242   2.138  0.00  0.00    +0.023 A 
ATOM      2  C   UNL     1      -4.410   1.748   2.398  0.00  0.00    +0.012 A 
ATOM      3  C   UNL     1      -4.701   0.424   2.143  0.00  0.00    +0.001 A 
ATOM      4  C   UNL     1      -3.729  -0.418   1.628  0.00  0.00    +0.002 A 
ATOM      5  C   UNL     1      -2.462   0.059   1.360  0.00  0.00    +0.025 A 
ATOM      6  C   UNL     1      -2.151   1.388   1.617  0.00  0.00    +0.057 A 
ENDROOT
BRANCH   1  16
ATOM      7  C   UNL     1      -0.231   9.473   3.140  0.00  0.00    +0.044 C 
ATOM      8  C   UNL     1      -0.611   8.038   2.881  0.00  0.00    -0.050 A 
ATOM      9  C   UNL     1       0.338   7.159   2.363  0.00  0.00    +0.005 A 
ATOM     10  C   UNL     1       0.028   5.856   2.118  0.00  0.00    +0.028 A 
ATOM     11  C   UNL     1      -1.269   5.385   2.389  0.00  0.00    +0.072 A 
ATOM     12  C   UNL     1      -2.232   6.281   2.916  0.00  0.00    +0.001 A 
ATOM     13  C   UNL     1      -1.877   7.618   3.156  0.00  0.00    +0.013 A 
ATOM     14  C   UNL     1      -3.532   5.811   3.188  0.00  0.00    +0.012 A 
ATOM     15  C   UNL     1      -3.812   4.501   2.932  0.00  0.00    +0.029 A 
ATOM     16  C   UNL     1      -2.814   3.662   2.411  0.00  0.00    +0.073 A 
ATOM     17  N   UNL     1      -1.597   4.110   2.163  0.00  0.00    -0.247 NA
ENDBRANCH   1  16
BRANCH   6  18
ATOM     18  N   UNL     1      -0.872   1.871   1.353  0.00  0.00    -0.216 N 
ATOM     19  H   UNL     1      -0.304   2.163   2.083  0.00  0.00    +0.174 HD
BRANCH  18  20
ATOM     20  S   UNL     1      -0.321   1.948  -0.206  0.00  0.00    +0.074 S 
ATOM     21  O   UNL     1      -0.609   0.689  -0.801  0.00  0.00    -0.150 OA
ATOM     22  O   UNL     1       0.995   2.479  -0.147  0.00  0.00    -0.150 OA
BRANCH  20  23
ATOM     23  C   UNL     1      -1.308   3.140  -1.049  0.00  0.00    +0.137 A 
ATOM     24  C   UNL     1      -0.744   4.282  -1.509  0.00  0.00    +0.031 A 
ATOM     25  C   UNL     1      -1.494   5.247  -2.181  0.00  0.00    +0.004 A 
ATOM     26  C   UNL     1      -2.820   5.086  -2.403  0.00  0.00    +0.031 A 
ATOM     27  C   UNL     1      -3.478   3.913  -1.950  0.00  0.00    +0.102 A 
ATOM     28  C   UNL     1      -2.692   2.900  -1.251  0.00  0.00    +0.126 A 
ATOM     29  N   UNL     1      -3.435   1.859  -0.879  0.00  0.00    -0.189 NA
ATOM     30  S   UNL     1      -4.891   2.162  -1.371  0.00  0.00    +0.117 S 
ATOM     31  N   UNL     1      -4.758   3.562  -2.063  0.00  0.00    -0.191 NA
ENDBRANCH  20  23
ENDBRANCH  18  20
ENDBRANCH   6  18
TORSDOF 4
