REMARK  Name = ZINC03584001
REMARK  7 active torsions:
REMARK  status: ('A' for Active; 'I' for Inactive)
REMARK    1  A    between atoms: C_1  and  N_53
REMARK    2  A    between atoms: C_2  and  C_3
REMARK    3  A    between atoms: C_2  and  N_53
REMARK    4  A    between atoms: C_15  and  C_16
REMARK    5  A    between atoms: C_15  and  N_53
REMARK    6  A    between atoms: N_18  and  C_19
REMARK    7  A    between atoms: C_20  and  C_29
REMARK                            x       y       z     vdW  Elec       q    Type
REMARK                         _______ _______ _______ _____ _____    ______ ____
ROOT
ATOM      1  C   UNL     1       1.121   3.580   0.011  0.00  0.00    +0.019 C 
ENDROOT
BRANCH   1   2
ATOM      2  C   UNL     1       1.141   2.074   0.002  0.00  0.00    +0.201 C 
ATOM      3  O   UNL     1       2.200   1.481  -0.011  0.00  0.00    -0.278 OA
ATOM      4  N   UNL     1      -0.017   1.384   0.010  0.00  0.00    -0.281 N 
ATOM      5  H   UNL     1      -0.863   1.857   0.016  0.00  0.00    +0.155 HD
BRANCH   4   6
ATOM      6  C   UNL     1       0.002  -0.004   0.002  0.00  0.00    +0.090 A 
ATOM      7  C   UNL     1      -1.071  -0.880   0.013  0.00  0.00    +0.084 A 
ATOM      8  C   UNL     1      -0.782  -2.307  -0.005  0.00  0.00    -0.018 A 
ATOM      9  C   UNL     1       0.531  -2.622  -0.015  0.00  0.00    -0.004 A 
ATOM     10  S   UNL     1       1.373  -1.062  -0.016  0.00  0.00    -0.077 S 
ATOM     11  C   UNL     1       1.145  -3.986  -0.010  0.00  0.00    +0.043 C 
ATOM     12  C   UNL     1       0.472  -4.849  -1.086  0.00  0.00    +0.005 C 
ATOM     13  C   UNL     1      -0.731  -5.548  -0.461  0.00  0.00    +0.001 C 
ATOM     14  C   UNL     1      -1.360  -4.657   0.608  0.00  0.00    +0.005 C 
ATOM     15  C   UNL     1      -1.879  -3.365  -0.014  0.00  0.00    +0.037 C 
BRANCH   7  16
ATOM     16  C   UNL     1      -2.419  -0.398   0.038  0.00  0.00    +0.102 C 
ATOM     17  N   UNL     1      -3.489  -0.015   0.059  0.00  0.00    -0.191 NA
ENDBRANCH   7  16
ENDBRANCH   4   6
ENDBRANCH   1   2
BRANCH   1  19
ATOM     18  C   UNL     1       3.197   3.742   1.245  0.00  0.00    -0.095 C 
ATOM     19  N   UNL     1       2.513   4.076  -0.021  0.00  0.00    +0.388 N 
ATOM     20  H   UNL     1       3.010   3.625  -0.798  0.00  0.00    -0.081 HD
BRANCH  19  21
ATOM     21  C   UNL     1       2.523   5.539  -0.230  0.00  0.00    -0.003 C 
BRANCH  21  22
ATOM     22  C   UNL     1       3.941   5.985  -0.479  0.00  0.00    +0.094 A 
ATOM     23  N   UNL     1       4.170   7.303  -0.715  0.00  0.00    -0.312 N 
ATOM     24  H   UNL     1       3.405   7.946  -0.719  0.00  0.00    +0.170 HD
ATOM     25  C   UNL     1       5.426   7.754  -0.943  0.00  0.00    +0.259 A 
ATOM     26  O   UNL     1       5.646   8.932  -1.155  0.00  0.00    -0.267 OA
ATOM     27  C   UNL     1       6.514   6.765  -0.924  0.00  0.00    +0.065 A 
ATOM     28  C   UNL     1       7.842   7.125  -1.147  0.00  0.00    +0.015 A 
ATOM     29  C   UNL     1       8.822   6.157  -1.118  0.00  0.00    +0.001 A 
ATOM     30  C   UNL     1       8.497   4.830  -0.868  0.00  0.00    +0.002 A 
ATOM     31  C   UNL     1       7.191   4.454  -0.646  0.00  0.00    +0.028 A 
ATOM     32  C   UNL     1       6.180   5.416  -0.671  0.00  0.00    +0.078 A 
ATOM     33  N   UNL     1       4.882   5.090  -0.452  0.00  0.00    -0.236 NA
ENDBRANCH  21  22
ENDBRANCH  19  21
ENDBRANCH   1  19
TORSDOF 6
