REMARK  Name = ZINC48419098
REMARK  7 active torsions:
REMARK  status: ('A' for Active; 'I' for Inactive)
REMARK    1  A    between atoms: C_1  and  C_2
REMARK    2  A    between atoms: C_7  and  C_13
REMARK    3  A    between atoms: C_13  and  N_14
REMARK    4  A    between atoms: N_14  and  C_15
REMARK    5  A    between atoms: N_14  and  C_22
REMARK    6  A    between atoms: C_15  and  C_16
REMARK    7  A    between atoms: C_22  and  C_23
REMARK                            x       y       z     vdW  Elec       q    Type
REMARK                         _______ _______ _______ _____ _____    ______ ____
ROOT
ATOM      1  N   UNL     1      -1.305  -6.790   0.671  0.00  0.00    -0.288 NA
ENDROOT
BRANCH   1   2
ATOM      2  C   UNL     1       0.046  -6.663   1.234  0.00  0.00    +0.138 C 
BRANCH   2   9
ATOM      3  C   UNL     1       1.525   1.051   1.344  0.00  0.00    +0.045 C 
ATOM      4  C   UNL     1       1.226  -0.406   1.104  0.00  0.00    -0.034 A 
ATOM      5  C   UNL     1       1.026  -0.874  -0.202  0.00  0.00    +0.008 A 
ATOM      6  C   UNL     1       0.756  -2.193  -0.411  0.00  0.00    +0.045 A 
ATOM      7  C   UNL     1       0.684  -3.066   0.690  0.00  0.00    +0.118 A 
ATOM      8  N   UNL     1       0.422  -4.356   0.489  0.00  0.00    -0.343 N 
ATOM      9  C   UNL     1       0.345  -5.210   1.498  0.00  0.00    +0.037 A 
ATOM     10  C   UNL     1       0.540  -4.769   2.792  0.00  0.00    +0.093 A 
ATOM     11  C   UNL     1       0.816  -3.414   3.012  0.00  0.00    +0.258 A 
ATOM     12  O   UNL     1       0.994  -2.994   4.144  0.00  0.00    -0.267 OA
ATOM     13  N   UNL     1       0.885  -2.581   1.952  0.00  0.00    -0.269 N 
ATOM     14  C   UNL     1       1.158  -1.261   2.149  0.00  0.00    +0.099 A 
ATOM     15  H   UNL     1       0.283  -4.677  -0.416  0.00  0.00    +0.167 HD
ENDBRANCH   2   9
ENDBRANCH   1   2
BRANCH   1  16
ATOM     16  C   UNL     1      -1.313  -6.456  -0.759  0.00  0.00    +0.120 C 
BRANCH  16  17
ATOM     17  C   UNL     1      -0.322  -7.329  -1.484  0.00  0.00    -0.033 A 
ATOM     18  C   UNL     1       0.994  -6.924  -1.609  0.00  0.00    +0.005 A 
ATOM     19  C   UNL     1       1.904  -7.725  -2.275  0.00  0.00    +0.000 A 
ATOM     20  C   UNL     1       1.497  -8.931  -2.815  0.00  0.00    +0.000 A 
ATOM     21  C   UNL     1       0.181  -9.336  -2.689  0.00  0.00    +0.000 A 
ATOM     22  C   UNL     1      -0.727  -8.537  -2.020  0.00  0.00    +0.005 A 
ENDBRANCH  16  17
ENDBRANCH   1  16
BRANCH   1  23
ATOM     23  C   UNL     1      -1.846  -8.136   0.900  0.00  0.00    +0.120 C 
BRANCH  23  24
ATOM     24  C   UNL     1      -3.344  -8.111   0.734  0.00  0.00    -0.033 A 
ATOM     25  C   UNL     1      -4.150  -7.726   1.788  0.00  0.00    +0.005 A 
ATOM     26  C   UNL     1      -5.524  -7.702   1.636  0.00  0.00    +0.000 A 
ATOM     27  C   UNL     1      -6.091  -8.064   0.428  0.00  0.00    +0.000 A 
ATOM     28  C   UNL     1      -5.285  -8.448  -0.627  0.00  0.00    +0.000 A 
ATOM     29  C   UNL     1      -3.911  -8.467  -0.476  0.00  0.00    +0.005 A 
ENDBRANCH  23  24
ENDBRANCH   1  23
TORSDOF 6
