REMARK  Name = ZINC39732507
REMARK  3 active torsions:
REMARK  status: ('A' for Active; 'I' for Inactive)
REMARK    1  A    between atoms: C_17  and  N_20
REMARK    2  A    between atoms: N_20  and  N_21
REMARK    3  A    between atoms: C_22  and  C_23
REMARK                            x       y       z     vdW  Elec       q    Type
REMARK                         _______ _______ _______ _____ _____    ______ ____
ROOT
ATOM      1  C   UNL     1      -0.042   1.285   0.704  0.00  0.00    +0.001 A 
ATOM      2  C   UNL     1       1.118   2.054   0.687  0.00  0.00    +0.001 A 
ATOM      3  C   UNL     1       2.340   1.505   0.429  0.00  0.00    +0.012 A 
ATOM      4  C   UNL     1       2.436   0.131   0.172  0.00  0.00    +0.023 A 
ATOM      5  C   UNL     1       3.656  -0.488  -0.153  0.00  0.00    +0.123 C 
ATOM      6  N   UNL     1       4.815   0.233  -0.181  0.00  0.00    -0.300 N 
ATOM      7  C   UNL     1       5.821  -0.166  -1.054  0.00  0.00    +0.045 A 
ATOM      8  C   UNL     1       6.808   0.705  -1.483  0.00  0.00    +0.024 A 
ATOM      9  C   UNL     1       7.792   0.253  -2.341  0.00  0.00    +0.002 A 
ATOM     10  C   UNL     1       7.800  -1.064  -2.774  0.00  0.00    +0.001 A 
ATOM     11  C   UNL     1       6.821  -1.944  -2.360  0.00  0.00    +0.015 A 
ATOM     12  C   UNL     1       5.819  -1.500  -1.501  0.00  0.00    +0.060 A 
ATOM     13  C   UNL     1       4.736  -2.390  -1.042  0.00  0.00    +0.270 C 
ATOM     14  O   UNL     1       4.798  -3.591  -1.218  0.00  0.00    -0.268 OA
ATOM     15  N   UNL     1       3.674  -1.833  -0.420  0.00  0.00    -0.170 N 
ATOM     16  N   UNL     1       2.594  -2.635  -0.021  0.00  0.00    -0.242 N 
ATOM     17  C   UNL     1       1.321  -2.079   0.035  0.00  0.00    +0.128 C 
ATOM     18  C   UNL     1       1.216  -0.688   0.226  0.00  0.00    +0.024 A 
ATOM     19  C   UNL     1      -0.012  -0.060   0.477  0.00  0.00    +0.012 A 
ATOM     20  H   UNL     1       4.933   1.006   0.393  0.00  0.00    +0.153 HD
ATOM     21  H   UNL     1       2.734  -3.566   0.212  0.00  0.00    +0.172 HD
ENDROOT
BRANCH  17  22
ATOM     22  N   UNL     1       0.222  -2.848  -0.088  0.00  0.00    -0.223 N 
ATOM     23  H   UNL     1       0.307  -3.813  -0.129  0.00  0.00    +0.176 HD
BRANCH  22  24
ATOM     24  N   UNL     1      -1.044  -2.253  -0.159  0.00  0.00    -0.189 NA
ATOM     25  C   UNL     1      -2.126  -3.009  -0.280  0.00  0.00    +0.136 C 
BRANCH  25  26
ATOM     26  C   UNL     1      -3.373  -2.423  -0.349  0.00  0.00    +0.000 C 
ATOM     27  C   UNL     1      -4.623  -3.079  -0.474  0.00  0.00    +0.004 A 
ATOM     28  C   UNL     1      -4.973  -4.432  -0.561  0.00  0.00    +0.010 A 
ATOM     29  C   UNL     1      -6.298  -4.791  -0.678  0.00  0.00    +0.001 A 
ATOM     30  C   UNL     1      -7.301  -3.833  -0.711  0.00  0.00    +0.002 A 
ATOM     31  C   UNL     1      -7.015  -2.491  -0.630  0.00  0.00    +0.026 A 
ATOM     32  C   UNL     1      -5.678  -2.064  -0.508  0.00  0.00    +0.043 A 
ATOM     33  N   UNL     1      -5.152  -0.843  -0.414  0.00  0.00    -0.380 N 
ATOM     34  C   UNL     1      -3.694  -0.946  -0.301  0.00  0.00    +0.150 C 
ATOM     35  H   UNL     1      -5.656  -0.014  -0.415  0.00  0.00    +0.160 HD
ENDBRANCH  25  26
ENDBRANCH  22  24
ENDBRANCH  17  22
TORSDOF 3
