REMARK  Name = ZINC17346593
REMARK  5 active torsions:
REMARK  status: ('A' for Active; 'I' for Inactive)
REMARK    1  A    between atoms: C_1  and  C_2
REMARK    2  A    between atoms: C_5  and  C_8
REMARK    3  A    between atoms: C_10  and  C_13
REMARK    4  A    between atoms: C_13  and  O_15
REMARK    5  A    between atoms: O_15  and  C_16
REMARK                            x       y       z     vdW  Elec       q    Type
REMARK                         _______ _______ _______ _____ _____    ______ ____
ROOT
ATOM      1  C   UNL     1       0.060  -7.360   1.856  0.00  0.00    +0.363 C 
ATOM      2  O   UNL     1       0.040  -8.551   1.614  0.00  0.00    -0.243 OA
ENDROOT
BRANCH   1   5
ATOM      3  C   UNL     1       0.057  -4.244  -0.015  0.00  0.00    +0.109 A 
ATOM      4  N   UNL     1       0.069  -5.083   1.004  0.00  0.00    -0.232 NA
ATOM      5  C   UNL     1       0.047  -6.385   0.754  0.00  0.00    +0.156 A 
ATOM      6  C   UNL     1       0.012  -6.809  -0.559  0.00  0.00    +0.082 A 
ATOM      7  S   UNL     1       0.005  -5.356  -1.409  0.00  0.00    -0.075 S 
BRANCH   3  12
ATOM      8  C   UNL     1       0.128   1.511   0.030  0.00  0.00    +0.044 C 
ATOM      9  C   UNL     1       0.110   0.004   0.018  0.00  0.00    -0.050 A 
ATOM     10  C   UNL     1       0.069  -0.675  -1.186  0.00  0.00    +0.004 A 
ATOM     11  C   UNL     1       0.052  -2.054  -1.204  0.00  0.00    +0.011 A 
ATOM     12  C   UNL     1       0.076  -2.765  -0.003  0.00  0.00    +0.007 A 
ATOM     13  C   UNL     1       0.117  -2.074   1.209  0.00  0.00    +0.011 A 
ATOM     14  C   UNL     1       0.140  -0.695   1.212  0.00  0.00    +0.004 A 
ENDBRANCH   3  12
ENDBRANCH   1   5
BRANCH   1  15
ATOM     15  O   UNL     1       0.094  -6.933   3.134  0.00  0.00    -0.421 OA
BRANCH  15  16
ATOM     16  C   UNL     1       0.002  -7.862   4.120  0.00  0.00    +0.136 A 
ATOM     17  C   UNL     1       1.112  -8.639   4.443  0.00  0.00    +0.047 A 
ATOM     18  C   UNL     1       1.036  -9.578   5.431  0.00  0.00    +0.015 A 
ATOM     19  C   UNL     1      -0.166  -9.761   6.125  0.00  0.00    +0.018 A 
ATOM     20  C   UNL     1      -0.277 -10.759   7.190  0.00  0.00    +0.018 A 
ATOM     21  C   UNL     1      -1.470 -10.889   7.826  0.00  0.00    +0.092 A 
ATOM     22  C   UNL     1      -2.557 -10.071   7.452  0.00  0.00    +0.337 A 
ATOM     23  O   UNL     1      -3.621 -10.197   8.031  0.00  0.00    -0.245 OA
ATOM     24  O   UNL     1      -2.448  -9.158   6.475  0.00  0.00    -0.422 OA
ATOM     25  C   UNL     1      -1.291  -8.979   5.803  0.00  0.00    +0.143 A 
ATOM     26  C   UNL     1      -1.194  -8.026   4.800  0.00  0.00    +0.093 A 
ENDBRANCH  15  16
ENDBRANCH   1  15
TORSDOF 4
