REMARK  Name = ZINC49248231
REMARK  12 active torsions:
REMARK  status: ('A' for Active; 'I' for Inactive)
REMARK    1  A    between atoms: C_1  and  C_2
REMARK    2  A    between atoms: C_2  and  C_3
REMARK    3  A    between atoms: C_3  and  C_5
REMARK    4  A    between atoms: C_3  and  C_6
REMARK    5  A    between atoms: C_9  and  C_12
REMARK    6  A    between atoms: C_12  and  C_14
REMARK    7  A    between atoms: C_12  and  N_17
REMARK    8  A    between atoms: C_14  and  C_15
REMARK    9  A    between atoms: C_14  and  C_16
REMARK   10  A    between atoms: C_18  and  C_20
REMARK   11  A    between atoms: N_22  and  C_23
REMARK   12  A    between atoms: C_26  and  C_29
REMARK                            x       y       z     vdW  Elec       q    Type
REMARK                         _______ _______ _______ _____ _____    ______ ____
ROOT
ATOM      1  N   UNL     1       0.635  -6.698  -2.904  0.00  0.00    -0.301 N 
ATOM      2  C   UNL     1       1.107  -7.938  -3.142  0.00  0.00    +0.300 C 
ATOM      3  O   UNL     1       1.335  -8.688  -2.217  0.00  0.00    -0.265 OA
ATOM      4  H   UNL     1       0.453  -6.098  -3.644  0.00  0.00    +0.150 HD
ENDROOT
BRANCH   2   5
ATOM      5  C   UNL     1       1.348  -8.387  -4.546  0.00  0.00    +0.303 C 
ATOM      6  O   UNL     1       1.119  -7.637  -5.472  0.00  0.00    -0.265 OA
ATOM      7  N   UNL     1       1.819  -9.627  -4.785  0.00  0.00    -0.278 N 
ATOM      8  H   UNL     1       2.065 -10.204  -4.044  0.00  0.00    +0.155 HD
BRANCH   7   9
ATOM      9  C   UNL     1       1.954 -10.081  -6.095  0.00  0.00    +0.034 A 
ATOM     10  C   UNL     1       2.330  -9.196  -7.101  0.00  0.00    +0.024 A 
ATOM     11  C   UNL     1       2.463  -9.642  -8.397  0.00  0.00    +0.015 A 
ATOM     12  C   UNL     1       2.221 -10.984  -8.701  0.00  0.00    +0.037 A 
ATOM     13  C   UNL     1       1.844 -11.870  -7.688  0.00  0.00    +0.015 A 
ATOM     14  C   UNL     1       1.717 -11.420  -6.394  0.00  0.00    +0.024 A 
BRANCH  12  15
ATOM     15  C   UNL     1       2.363 -11.465 -10.089  0.00  0.00    +0.242 C 
ATOM     16  O   UNL     1       2.691 -10.693 -10.970  0.00  0.00    -0.270 OA
ATOM     17  N   UNL     1       2.130 -12.760 -10.381  0.00  0.00    -0.325 N 
ATOM     18  H   UNL     1       1.868 -13.376  -9.679  0.00  0.00    +0.145 HD
ATOM     19  H   UNL     1       2.223 -13.076 -11.294  0.00  0.00    +0.145 HD
ENDBRANCH  12  15
ENDBRANCH   7   9
ENDBRANCH   2   5
BRANCH   1  20
ATOM     20  C   UNL     1       0.399  -6.256  -1.527  0.00  0.00    +0.106 C 
BRANCH  20  24
ATOM     21  C   UNL     1       0.631  -1.995  -1.339  0.00  0.00    -0.045 A 
ATOM     22  C   UNL     1       1.172  -2.762  -0.325  0.00  0.00    +0.004 A 
ATOM     23  C   UNL     1       1.097  -4.141  -0.385  0.00  0.00    +0.006 A 
ATOM     24  C   UNL     1       0.480  -4.753  -1.460  0.00  0.00    -0.027 A 
ATOM     25  C   UNL     1      -0.062  -3.986  -2.474  0.00  0.00    +0.006 A 
ATOM     26  C   UNL     1       0.009  -2.607  -2.412  0.00  0.00    +0.004 A 
BRANCH  21  27
ATOM     27  C   UNL     1       0.713  -0.492  -1.273  0.00  0.00    +0.016 C 
ATOM     28  C   UNL     1       2.181  -0.062  -1.235  0.00  0.00    +0.012 C 
BRANCH  27  30
ATOM     29  C   UNL     1      -0.022   1.532  -0.006  0.00  0.00    +0.004 C 
ATOM     30  C   UNL     1       0.004   0.003  -0.011  0.00  0.00    +0.004 C 
ENDBRANCH  27  30
ENDBRANCH  21  27
ENDBRANCH  20  24
BRANCH  20  31
ATOM     31  C   UNL     1      -0.990  -6.713  -1.077  0.00  0.00    +0.008 C 
ATOM     32  C   UNL     1      -1.237  -6.252   0.361  0.00  0.00    +0.009 C 
ATOM     33  C   UNL     1      -2.050  -6.103  -1.997  0.00  0.00    +0.009 C 
ENDBRANCH  20  31
ENDBRANCH   1  20
TORSDOF 8
