REMARK  Name = ZINC40548790
REMARK  11 active torsions:
REMARK  status: ('A' for Active; 'I' for Inactive)
REMARK    1  A    between atoms: C_1  and  C_2
REMARK    2  A    between atoms: C_2  and  O_3
REMARK    3  A    between atoms: O_3  and  C_4
REMARK    4  A    between atoms: C_7  and  C_12
REMARK    5  A    between atoms: C_9  and  O_10
REMARK    6  A    between atoms: O_10  and  C_11
REMARK    7  A    between atoms: C_15  and  C_31
REMARK    8  A    between atoms: N_22  and  C_23
REMARK    9  A    between atoms: C_33  and  C_39
REMARK   10  A    between atoms: C_34  and  C_38
REMARK   11  A    between atoms: C_36  and  O_37
REMARK                            x       y       z     vdW  Elec       q    Type
REMARK                         _______ _______ _______ _____ _____    ______ ____
ROOT
ATOM      1  C   UNL     1      -1.851  -5.915  -0.075  0.00  0.00    +0.142 C 
ATOM      2  C   UNL     1      -1.819  -6.544  -1.441  0.00  0.00    +0.035 A 
ATOM      3  C   UNL     1      -2.386  -6.619  -2.718  0.00  0.00    +0.102 A 
ATOM      4  N   UNL     1      -1.699  -7.513  -3.402  0.00  0.00    -0.173 NA
ATOM      5  N   UNL     1      -0.756  -8.010  -2.684  0.00  0.00    -0.272 N 
ATOM      6  H   UNL     1      -0.125  -8.684  -2.981  0.00  0.00    +0.189 HD
ATOM      7  C   UNL     1      -0.773  -7.446  -1.440  0.00  0.00    +0.126 A 
ATOM      8  C   UNL     1      -0.133  -7.416  -0.120  0.00  0.00    +0.266 C 
ATOM      9  O   UNL     1       0.822  -8.096   0.204  0.00  0.00    -0.268 OA
ATOM     10  N   UNL     1      -0.752  -6.529   0.682  0.00  0.00    -0.280 N 
ENDROOT
BRANCH   3  11
ATOM     11  C   UNL     1      -3.546  -5.837  -3.212  0.00  0.00    +0.044 A 
ATOM     12  C   UNL     1      -4.681  -5.691  -2.417  0.00  0.00    +0.017 A 
ATOM     13  C   UNL     1      -5.758  -4.963  -2.880  0.00  0.00    -0.047 A 
ATOM     14  C   UNL     1      -5.715  -4.377  -4.133  0.00  0.00    -0.044 A 
ATOM     15  C   UNL     1      -4.594  -4.515  -4.930  0.00  0.00    +0.049 A 
ATOM     16  C   UNL     1      -3.504  -5.239  -4.474  0.00  0.00    +0.126 A 
ATOM     17  C   UNL     1      -6.895  -3.583  -4.630  0.00  0.00    +0.044 C 
ATOM     18  C   UNL     1      -6.984  -4.806  -2.020  0.00  0.00    +0.044 C 
BRANCH  16  19
ATOM     19  O   UNL     1      -2.399  -5.371  -5.254  0.00  0.00    -0.506 OA
ATOM     20  H   UNL     1      -2.453  -6.095  -5.893  0.00  0.00    +0.292 HD
ENDBRANCH  16  19
ENDBRANCH   3  11
BRANCH  10  21
ATOM     21  C   UNL     1      -0.393  -6.228   2.070  0.00  0.00    +0.100 C 
ATOM     22  C   UNL     1      -0.493  -7.510   2.913  0.00  0.00    +0.047 C 
ATOM     23  C   UNL     1       0.185  -7.240   4.287  0.00  0.00    +0.168 C 
ATOM     24  S   UNL     1       1.657  -6.269   3.751  0.00  0.00    -0.029 S 
ATOM     25  O   UNL     1       2.747  -7.157   3.546  0.00  0.00    -0.174 OA
ATOM     26  O   UNL     1       1.816  -5.155   4.619  0.00  0.00    -0.174 OA
ATOM     27  C   UNL     1       1.053  -5.678   2.119  0.00  0.00    +0.188 C 
ENDBRANCH  10  21
BRANCH   1  31
ATOM     28  C   UNL     1      -1.239  -1.694  -0.387  0.00  0.00    +0.162 A 
ATOM     29  C   UNL     1      -0.191  -2.569  -0.628  0.00  0.00    +0.050 A 
ATOM     30  C   UNL     1      -0.392  -3.933  -0.526  0.00  0.00    +0.009 A 
ATOM     31  C   UNL     1      -1.637  -4.428  -0.184  0.00  0.00    -0.019 A 
ATOM     32  C   UNL     1      -2.686  -3.561   0.057  0.00  0.00    +0.055 A 
ATOM     33  C   UNL     1      -2.490  -2.192  -0.037  0.00  0.00    +0.162 A 
BRANCH  33  34
ATOM     34  O   UNL     1      -3.520  -1.338   0.205  0.00  0.00    -0.491 OA
ATOM     35  C   UNL     1      -4.776  -1.920   0.559  0.00  0.00    +0.277 C 
ENDBRANCH  33  34
BRANCH  28  36
ATOM     36  O   UNL     1      -1.042  -0.352  -0.486  0.00  0.00    -0.489 OA
BRANCH  36  38
ATOM     37  C   UNL     1       0.295   1.615  -0.910  0.00  0.00    +0.048 C 
ATOM     38  C   UNL     1       0.268   0.087  -0.849  0.00  0.00    +0.226 C 
ENDBRANCH  36  38
ENDBRANCH  28  36
ENDBRANCH   1  31
TORSDOF 7
