REMARK  Name = ZINC08121678
REMARK  8 active torsions:
REMARK  status: ('A' for Active; 'I' for Inactive)
REMARK    1  A    between atoms: C_1  and  C_2
REMARK    2  A    between atoms: C_2  and  C_4
REMARK    3  A    between atoms: C_2  and  N_44
REMARK    4  A    between atoms: C_12  and  C_13
REMARK    5  A    between atoms: C_12  and  N_44
REMARK    6  A    between atoms: N_15  and  C_16
REMARK    7  A    between atoms: C_21  and  C_22
REMARK    8  A    between atoms: C_22  and  C_24
REMARK                            x       y       z     vdW  Elec       q    Type
REMARK                         _______ _______ _______ _____ _____    ______ ____
ROOT
ATOM      1  C   UNL     1       3.656   1.274   0.742  0.00  0.00    +0.200 C 
ATOM      2  O   UNL     1       3.888   2.304   0.146  0.00  0.00    -0.278 OA
ATOM      3  N   UNL     1       4.651   0.628   1.383  0.00  0.00    -0.286 N 
ATOM      4  H   UNL     1       4.452  -0.151   1.926  0.00  0.00    +0.155 HD
ENDROOT
BRANCH   3   5
ATOM      5  C   UNL     1       5.963   1.080   1.268  0.00  0.00    +0.048 A 
ATOM      6  C   UNL     1       6.352   1.806   0.154  0.00  0.00    +0.073 A 
ATOM      7  C   UNL     1       7.658   2.256   0.036  0.00  0.00    +0.168 A 
ATOM      8  C   UNL     1       8.591   1.980   1.041  0.00  0.00    +0.167 A 
ATOM      9  C   UNL     1       8.217   1.258   2.154  0.00  0.00    +0.062 A 
ATOM     10  C   UNL     1       6.896   0.805   2.283  0.00  0.00    +0.042 A 
ATOM     11  O   UNL     1       9.789   2.530   0.684  0.00  0.00    -0.453 OA
ATOM     12  C   UNL     1       9.687   2.788  -0.729  0.00  0.00    +0.466 C 
ATOM     13  O   UNL     1       8.276   2.977  -0.943  0.00  0.00    -0.453 OA
BRANCH  10  14
ATOM     14  C   UNL     1       6.493   0.043   3.467  0.00  0.00    +0.162 C 
ATOM     15  O   UNL     1       5.375  -0.425   3.536  0.00  0.00    -0.292 OA
ATOM     16  C   UNL     1       7.465  -0.158   4.601  0.00  0.00    +0.091 C 
ENDBRANCH  10  14
ENDBRANCH   3   5
BRANCH   1  17
ATOM     17  C   UNL     1       2.257   0.715   0.764  0.00  0.00    +0.016 C 
BRANCH  17  18
ATOM     18  N   UNL     1       1.369   1.605  -0.007  0.00  0.00    +0.389 N 
ATOM     19  H   UNL     1       1.377   2.540   0.416  0.00  0.00    -0.084 HD
ATOM     20  H   UNL     1       1.705   1.663  -0.975  0.00  0.00    -0.084 HD
BRANCH  18  22
ATOM     21  C   UNL     1      -0.733   1.556   1.260  0.00  0.00    -0.009 C 
ATOM     22  C   UNL     1      -0.010   1.081  -0.002  0.00  0.00    -0.042 C 
BRANCH  22  23
ATOM     23  C   UNL     1      -0.738   1.591  -1.219  0.00  0.00    -0.043 A 
ATOM     24  C   UNL     1      -0.268   2.706  -1.887  0.00  0.00    +0.005 A 
ATOM     25  C   UNL     1      -0.934   3.175  -3.004  0.00  0.00    +0.020 A 
ATOM     26  C   UNL     1      -2.072   2.528  -3.453  0.00  0.00    +0.042 A 
ATOM     27  C   UNL     1      -2.542   1.412  -2.785  0.00  0.00    +0.040 A 
ATOM     28  C   UNL     1      -1.871   0.940  -1.671  0.00  0.00    +0.044 A 
ATOM     29 CL   UNL     1      -2.456  -0.465  -0.836  0.00  0.00    -0.083 Cl
ATOM     30 CL   UNL     1      -2.909   3.116  -4.856  0.00  0.00    -0.083 Cl
ENDBRANCH  22  23
ENDBRANCH  18  22
ENDBRANCH  17  18
ENDBRANCH   1  17
TORSDOF 6
