REMARK  Name = ZINC19317727
REMARK  12 active torsions:
REMARK  status: ('A' for Active; 'I' for Inactive)
REMARK    1  A    between atoms: C_1  and  C_2
REMARK    2  A    between atoms: C_2  and  C_4
REMARK    3  A    between atoms: C_2  and  N_9
REMARK    4  A    between atoms: C_4  and  C_5
REMARK    5  A    between atoms: C_5  and  C_6
REMARK    6  A    between atoms: C_6  and  C_7
REMARK    7  A    between atoms: C_6  and  C_8
REMARK    8  A    between atoms: C_10  and  C_12
REMARK    9  A    between atoms: C_12  and  S_13
REMARK   10  A    between atoms: S_13  and  C_14
REMARK   11  A    between atoms: C_17  and  C_20
REMARK   12  A    between atoms: N_18  and  N_19
REMARK                            x       y       z     vdW  Elec       q    Type
REMARK                         _______ _______ _______ _____ _____    ______ ____
ROOT
ATOM      1  C   UNL     1      -5.769  -1.771  -2.638  0.00  0.00    +0.209 A 
ATOM      2  N   UNL     1      -6.299  -2.254  -1.536  0.00  0.00    -0.121 NA
ATOM      3  N   UNL     1      -7.473  -2.717  -1.778  0.00  0.00    -0.127 NA
ATOM      4  C   UNL     1      -7.765  -2.559  -3.048  0.00  0.00    +0.183 A 
ATOM      5  N   UNL     1      -6.684  -1.942  -3.637  0.00  0.00    -0.224 N 
ENDROOT
BRANCH   4   6
ATOM      6  C   UNL     1      -9.019  -2.961  -3.718  0.00  0.00    +0.035 A 
ATOM      7  C   UNL     1      -8.976  -3.665  -4.923  0.00  0.00    +0.013 A 
ATOM      8  C   UNL     1     -10.150  -4.038  -5.543  0.00  0.00    +0.001 A 
ATOM      9  C   UNL     1     -11.370  -3.716  -4.974  0.00  0.00    +0.001 A 
ATOM     10  C   UNL     1     -11.421  -3.019  -3.780  0.00  0.00    +0.016 A 
ATOM     11  C   UNL     1     -10.253  -2.644  -3.146  0.00  0.00    +0.029 A 
ATOM     12 BR   UNL     1     -10.324  -1.697  -1.511  0.00  0.00    -0.050 Br
ENDBRANCH   4   6
BRANCH   5  13
ATOM     13  N   UNL     1      -6.554  -1.581  -4.947  0.00  0.00    -0.295 N 
ATOM     14  H   UNL     1      -6.227  -2.355  -5.505  0.00  0.00    +0.163 HD
ATOM     15  H   UNL     1      -7.421  -1.214  -5.309  0.00  0.00    +0.163 HD
ENDBRANCH   5  13
BRANCH   1  16
ATOM     16  S   UNL     1      -4.177  -1.033  -2.795  0.00  0.00    -0.075 S 
BRANCH  16  17
ATOM     17  C   UNL     1      -3.486  -1.117  -1.120  0.00  0.00    +0.173 C 
BRANCH  17  19
ATOM     18  N   UNL     1      -1.396  -0.464   0.031  0.00  0.00    -0.312 N 
ATOM     19  C   UNL     1      -2.107  -0.511  -1.114  0.00  0.00    +0.224 C 
ATOM     20  O   UNL     1      -1.635  -0.066  -2.139  0.00  0.00    -0.275 OA
ATOM     21  H   UNL     1      -1.773  -0.820   0.851  0.00  0.00    +0.149 HD
BRANCH  18  23
ATOM     22  C   UNL     1      -0.165   1.641   0.214  0.00  0.00    +0.028 C 
ATOM     23  C   UNL     1      -0.055   0.126   0.037  0.00  0.00    +0.070 C 
BRANCH  23  24
ATOM     24  C   UNL     1       0.757  -0.466   1.191  0.00  0.00    +0.022 C 
BRANCH  24  25
ATOM     25  C   UNL     1       0.973  -1.961   0.949  0.00  0.00    +0.005 C 
BRANCH  25  26
ATOM     26  C   UNL     1       1.785  -2.552   2.103  0.00  0.00    -0.017 C 
ATOM     27  C   UNL     1       0.971  -2.465   3.396  0.00  0.00    +0.007 C 
ATOM     28  C   UNL     1       2.107  -4.017   1.802  0.00  0.00    +0.007 C 
ENDBRANCH  25  26
ENDBRANCH  24  25
ENDBRANCH  23  24
ENDBRANCH  18  23
ENDBRANCH  17  19
ENDBRANCH  16  17
ENDBRANCH   1  16
TORSDOF 9
