REMARK  Name = ZINC39856801
REMARK  9 active torsions:
REMARK  status: ('A' for Active; 'I' for Inactive)
REMARK    1  A    between atoms: C_1  and  C_2
REMARK    2  A    between atoms: C_5  and  N_8
REMARK    3  A    between atoms: C_9  and  C_11
REMARK    4  A    between atoms: C_11  and  C_12
REMARK    5  A    between atoms: N_16  and  C_33
REMARK    6  A    between atoms: N_18  and  N_19
REMARK    7  A    between atoms: C_20  and  C_21
REMARK    8  A    between atoms: C_24  and  C_26
REMARK    9  A    between atoms: C_33  and  C_34
REMARK                            x       y       z     vdW  Elec       q    Type
REMARK                         _______ _______ _______ _____ _____    ______ ____
ROOT
ATOM      1  C   UNL     1       0.424  -6.867   2.557  0.00  0.00    +0.149 C 
ATOM      2  C   UNL     1       0.532  -8.383   2.589  0.00  0.00    +0.235 C 
ATOM      3  O   UNL     1      -0.353  -9.101   2.175  0.00  0.00    -0.274 OA
ATOM      4  N   UNL     1       1.652  -8.870   3.096  0.00  0.00    -0.241 N 
ATOM      5  C   UNL     1       2.663  -8.061   3.569  0.00  0.00    +0.186 C 
ATOM      6  N   UNL     1       3.816  -8.422   4.093  0.00  0.00    -0.126 NA
ATOM      7  S   UNL     1       2.042  -6.405   3.304  0.00  0.00    -0.075 S 
ENDROOT
BRANCH   6   8
ATOM      8  N   UNL     1       4.655  -7.525   4.488  0.00  0.00    -0.152 NA
ATOM      9  C   UNL     1       5.801  -7.885   5.010  0.00  0.00    +0.181 C 
BRANCH   9  10
ATOM     10  C   UNL     1       6.723  -6.899   5.444  0.00  0.00    +0.148 A 
ATOM     11  C   UNL     1       7.962  -7.138   6.003  0.00  0.00    +0.051 A 
ATOM     12  C   UNL     1       8.528  -5.887   6.279  0.00  0.00    +0.050 A 
ATOM     13  C   UNL     1       7.627  -4.942   5.884  0.00  0.00    +0.136 A 
ATOM     14  O   UNL     1       6.544  -5.564   5.377  0.00  0.00    -0.454 OA
BRANCH  13  15
ATOM     15  C   UNL     1       7.810  -3.482   5.990  0.00  0.00    +0.017 A 
ATOM     16  C   UNL     1       8.989  -2.959   6.527  0.00  0.00    +0.011 A 
ATOM     17  C   UNL     1       9.153  -1.593   6.623  0.00  0.00    +0.001 A 
ATOM     18  C   UNL     1       8.153  -0.741   6.189  0.00  0.00    +0.000 A 
ATOM     19  C   UNL     1       6.982  -1.251   5.655  0.00  0.00    +0.001 A 
ATOM     20  C   UNL     1       6.807  -2.615   5.548  0.00  0.00    +0.011 A 
ENDBRANCH  13  15
ENDBRANCH   9  10
ENDBRANCH   6   8
BRANCH   1  21
ATOM     21  C   UNL     1       0.309  -6.349   1.121  0.00  0.00    +0.120 C 
BRANCH  21  23
ATOM     22  N   UNL     1       0.059  -4.170  -0.021  0.00  0.00    -0.285 N 
ATOM     23  C   UNL     1       0.175  -4.848   1.138  0.00  0.00    +0.219 C 
ATOM     24  O   UNL     1       0.173  -4.251   2.193  0.00  0.00    -0.275 OA
ATOM     25  H   UNL     1      -0.017  -4.651  -0.860  0.00  0.00    +0.155 HD
BRANCH  22  30
ATOM     26  C   UNL     1       0.008   1.503   0.007  0.00  0.00    +0.044 C 
ATOM     27  C   UNL     1       0.022  -0.004  -0.001  0.00  0.00    -0.050 A 
ATOM     28  C   UNL     1       0.777  -0.692   0.931  0.00  0.00    +0.005 A 
ATOM     29  C   UNL     1       0.791  -2.073   0.927  0.00  0.00    +0.023 A 
ATOM     30  C   UNL     1       0.046  -2.771  -0.014  0.00  0.00    +0.033 A 
ATOM     31  C   UNL     1      -0.712  -2.077  -0.948  0.00  0.00    +0.023 A 
ATOM     32  C   UNL     1      -0.726  -0.696  -0.936  0.00  0.00    +0.005 A 
ENDBRANCH  22  30
ENDBRANCH  21  23
ENDBRANCH   1  21
BRANCH   4  33
ATOM     33  C   UNL     1       1.824 -10.323   3.159  0.00  0.00    +0.189 C 
BRANCH  33  34
ATOM     34  C   UNL     1       2.475 -10.807   1.888  0.00  0.00    +0.123 A 
ATOM     35  C   UNL     1       3.798 -10.928   1.679  0.00  0.00    +0.046 A 
ATOM     36  C   UNL     1       3.962 -11.413   0.361  0.00  0.00    +0.041 A 
ATOM     37  C   UNL     1       2.729 -11.558  -0.157  0.00  0.00    +0.195 A 
ATOM     38  O   UNL     1       1.832 -11.195   0.775  0.00  0.00    -0.466 OA
ENDBRANCH  33  34
ENDBRANCH   4  33
TORSDOF 8
