REMARK  Name = ZINC01066437
REMARK  5 active torsions:
REMARK  status: ('A' for Active; 'I' for Inactive)
REMARK    1  A    between atoms: C_1  and  C_2
REMARK    2  A    between atoms: C_5  and  S_9
REMARK    3  A    between atoms: C_6  and  C_8
REMARK    4  A    between atoms: S_9  and  N_12
REMARK    5  A    between atoms: C_21  and  C_23
REMARK                            x       y       z     vdW  Elec       q    Type
REMARK                         _______ _______ _______ _____ _____    ______ ____
ROOT
ATOM      1  N   UNL     1      -2.360   0.255  -1.803  0.00  0.00    -0.198 N 
ATOM      2  C   UNL     1      -2.842   0.899  -2.931  0.00  0.00    +0.096 C 
ATOM      3  C   UNL     1      -2.228   0.717  -4.110  0.00  0.00    +0.025 C 
ATOM      4  C   UNL     1      -1.075  -0.200  -4.189  0.00  0.00    -0.018 A 
ATOM      5  C   UNL     1      -0.239  -0.201  -5.305  0.00  0.00    +0.008 A 
ATOM      6  C   UNL     1       0.857  -1.039  -5.336  0.00  0.00    +0.001 A 
ATOM      7  C   UNL     1       1.125  -1.876  -4.267  0.00  0.00    +0.000 A 
ATOM      8  C   UNL     1       0.294  -1.885  -3.159  0.00  0.00    +0.006 A 
ATOM      9  C   UNL     1      -0.806  -1.057  -3.119  0.00  0.00    -0.014 A 
ATOM     10  C   UNL     1      -1.733  -1.065  -1.929  0.00  0.00    +0.160 C 
ENDROOT
BRANCH  10  11
ATOM     11  C   UNL     1      -2.798  -2.113  -2.124  0.00  0.00    +0.004 A 
ATOM     12  C   UNL     1      -4.026  -1.919  -2.630  0.00  0.00    +0.089 A 
ATOM     13  N   UNL     1      -4.712  -3.103  -2.656  0.00  0.00    -0.360 N 
ATOM     14  H   UNL     1      -5.620  -3.214  -2.982  0.00  0.00    +0.165 HD
ATOM     15  C   UNL     1      -3.925  -4.112  -2.148  0.00  0.00    +0.047 A 
ATOM     16  C   UNL     1      -2.692  -3.536  -1.792  0.00  0.00    +0.005 A 
ATOM     17  C   UNL     1      -1.685  -4.332  -1.243  0.00  0.00    +0.010 A 
ATOM     18  C   UNL     1      -1.903  -5.667  -1.053  0.00  0.00    +0.001 A 
ATOM     19  C   UNL     1      -3.118  -6.240  -1.402  0.00  0.00    +0.002 A 
ATOM     20  C   UNL     1      -4.125  -5.473  -1.946  0.00  0.00    +0.026 A 
ENDBRANCH  10  11
BRANCH   1  21
ATOM     21  S   UNL     1      -2.498   0.970  -0.316  0.00  0.00    +0.075 S 
ATOM     22  O   UNL     1      -2.627  -0.082   0.630  0.00  0.00    -0.150 OA
ATOM     23  O   UNL     1      -3.470   1.999  -0.449  0.00  0.00    -0.150 OA
BRANCH  21  28
ATOM     24  C   UNL     1       2.751   3.706   0.852  0.00  0.00    +0.044 C 
ATOM     25  C   UNL     1       1.441   3.021   0.558  0.00  0.00    -0.050 A 
ATOM     26  C   UNL     1       1.018   1.971   1.351  0.00  0.00    +0.005 A 
ATOM     27  C   UNL     1      -0.184   1.343   1.083  0.00  0.00    +0.029 A 
ATOM     28  C   UNL     1      -0.964   1.767   0.023  0.00  0.00    +0.112 A 
ATOM     29  C   UNL     1      -0.538   2.814  -0.773  0.00  0.00    -0.024 A 
ATOM     30  C   UNL     1       0.664   3.443  -0.504  0.00  0.00    +0.008 A 
ATOM     31  C   UNL     1      -1.386   3.273  -1.931  0.00  0.00    +0.046 C 
ENDBRANCH  21  28
ENDBRANCH   1  21
TORSDOF 3
