REMARK  Name = ZINC28246586
REMARK  10 active torsions:
REMARK  status: ('A' for Active; 'I' for Inactive)
REMARK    1  A    between atoms: C_1  and  C_2
REMARK    2  A    between atoms: C_5  and  C_9
REMARK    3  A    between atoms: C_6  and  C_8
REMARK    4  A    between atoms: C_9  and  C_11
REMARK    5  A    between atoms: C_9  and  N_12
REMARK    6  A    between atoms: C_13  and  C_15
REMARK    7  A    between atoms: C_18  and  C_20
REMARK    8  A    between atoms: C_20  and  C_21
REMARK    9  A    between atoms: C_22  and  C_27
REMARK   10  A    between atoms: C_25  and  C_26
REMARK                            x       y       z     vdW  Elec       q    Type
REMARK                         _______ _______ _______ _____ _____    ______ ____
ROOT
ATOM      1  N   UNL     1      -0.749   3.044   1.275  0.00  0.00    -0.302 N 
ATOM      2  C   UNL     1       0.305   3.730   1.762  0.00  0.00    +0.280 C 
ATOM      3  O   UNL     1       1.272   3.132   2.195  0.00  0.00    -0.267 OA
ATOM      4  H   UNL     1      -1.623   3.584   0.884  0.00  0.00    +0.150 HD
ENDROOT
BRANCH   2   5
ATOM      5  C   UNL     1       0.285   5.196   1.770  0.00  0.00    +0.189 A 
ATOM      6  C   UNL     1       1.279   6.009   2.232  0.00  0.00    +0.055 A 
ATOM      7  C   UNL     1       0.840   7.330   2.046  0.00  0.00    +0.046 A 
ATOM      8  C   UNL     1      -0.388   7.265   1.487  0.00  0.00    +0.110 A 
ATOM      9  O   UNL     1      -0.717   5.978   1.317  0.00  0.00    -0.455 OA
BRANCH   8  10
ATOM     10  C   UNL     1      -1.244   8.447   1.110  0.00  0.00    +0.114 C 
BRANCH  10  11
ATOM     11  C   UNL     1      -0.941   8.855  -0.308  0.00  0.00    +0.024 A 
ATOM     12  C   UNL     1       0.021   9.787  -0.759  0.00  0.00    +0.084 A 
ATOM     13  N   UNL     1      -0.073   9.815  -2.057  0.00  0.00    -0.083 NA
ATOM     14  O   UNL     1      -0.932   9.064  -2.457  0.00  0.00    -0.359 OA
ATOM     15  C   UNL     1      -1.532   8.419  -1.446  0.00  0.00    +0.138 A 
ATOM     16  C   UNL     1      -2.646   7.409  -1.555  0.00  0.00    +0.089 C 
ATOM     17  C   UNL     1       0.971  10.588   0.095  0.00  0.00    +0.069 C 
ENDBRANCH  10  11
ENDBRANCH   8  10
ENDBRANCH   2   5
BRANCH   1  18
ATOM     18  C   UNL     1      -0.729   1.579   1.267  0.00  0.00    +0.101 C 
ATOM     19  C   UNL     1      -0.013   1.086   0.008  0.00  0.00    +0.033 C 
BRANCH  18  24
ATOM     20  C   UNL     1      -6.150  -0.420   1.309  0.00  0.00    +0.044 C 
ATOM     21  C   UNL     1      -4.737   0.101   1.298  0.00  0.00    -0.050 A 
ATOM     22  C   UNL     1      -4.468   1.361   0.796  0.00  0.00    +0.004 A 
ATOM     23  C   UNL     1      -3.172   1.841   0.791  0.00  0.00    +0.006 A 
ATOM     24  C   UNL     1      -2.143   1.058   1.278  0.00  0.00    -0.025 A 
ATOM     25  C   UNL     1      -2.411  -0.202   1.779  0.00  0.00    -0.045 A 
ATOM     26  C   UNL     1      -3.708  -0.680   1.789  0.00  0.00    +0.007 A 
ATOM     27  C   UNL     1      -1.289  -1.054   2.316  0.00  0.00    +0.044 C 
ENDBRANCH  18  24
ENDBRANCH   1  18
TORSDOF 5
