REMARK  Name = ZINC00622936
REMARK  11 active torsions:
REMARK  status: ('A' for Active; 'I' for Inactive)
REMARK    1  A    between atoms: C_1  and  C_2
REMARK    2  A    between atoms: C_2  and  C_3
REMARK    3  A    between atoms: C_2  and  O_4
REMARK    4  A    between atoms: O_4  and  C_5
REMARK    5  A    between atoms: C_8  and  C_11
REMARK    6  A    between atoms: C_18  and  N_39
REMARK    7  A    between atoms: C_19  and  C_37
REMARK    8  A    between atoms: C_20  and  C_22
REMARK    9  A    between atoms: C_26  and  O_28
REMARK   10  A    between atoms: O_28  and  C_29
REMARK   11  A    between atoms: C_29  and  C_30
REMARK                            x       y       z     vdW  Elec       q    Type
REMARK                         _______ _______ _______ _____ _____    ______ ____
ROOT
ATOM      1  C   UNL     1      -2.733  -1.371   5.508  0.00  0.00    +0.100 A 
ATOM      2  C   UNL     1      -2.526  -2.282   6.548  0.00  0.00    +0.054 A 
ATOM      3  C   UNL     1      -3.586  -2.194   7.404  0.00  0.00    +0.223 A 
ATOM      4  N   UNL     1      -4.429  -1.259   6.919  0.00  0.00    -0.246 N 
ATOM      5  H   UNL     1      -5.267  -0.983   7.321  0.00  0.00    +0.192 HD
ATOM      6  N   UNL     1      -3.876  -0.751   5.733  0.00  0.00    -0.171 NA
ATOM      7  O   UNL     1      -3.689  -2.955   8.522  0.00  0.00    -0.423 OA
ATOM      8  C   UNL     1      -2.855  -4.008   8.641  0.00  0.00    +0.200 C 
ATOM      9  C   UNL     1      -1.766  -4.196   7.862  0.00  0.00    +0.098 C 
ATOM     10  C   UNL     1      -1.376  -3.229   6.772  0.00  0.00    +0.102 C 
ENDROOT
BRANCH   1  14
ATOM     11  C   UNL     1      -0.131  -0.705   2.209  0.00  0.00    +0.121 A 
ATOM     12  C   UNL     1      -0.383  -1.999   2.642  0.00  0.00    +0.046 A 
ATOM     13  C   UNL     1      -1.226  -2.218   3.711  0.00  0.00    +0.013 A 
ATOM     14  C   UNL     1      -1.825  -1.139   4.357  0.00  0.00    +0.003 A 
ATOM     15  C   UNL     1      -1.570   0.160   3.921  0.00  0.00    +0.013 A 
ATOM     16  C   UNL     1      -0.722   0.373   2.854  0.00  0.00    +0.046 A 
BRANCH  11  17
ATOM     17  O   UNL     1       0.700  -0.491   1.155  0.00  0.00    -0.489 OA
BRANCH  17  19
ATOM     18  C   UNL     1       0.258  -2.231  -0.464  0.00  0.00    +0.051 C 
ATOM     19  C   UNL     1       1.264  -1.646   0.530  0.00  0.00    +0.167 C 
ATOM     20  C   UNL     1       2.543  -1.251  -0.211  0.00  0.00    +0.051 C 
ENDBRANCH  17  19
ENDBRANCH  11  17
ENDBRANCH   1  14
BRANCH  10  21
ATOM     21  C   UNL     1      -0.154  -2.454   7.193  0.00  0.00    -0.031 A 
ATOM     22  C   UNL     1      -0.211  -1.618   8.293  0.00  0.00    +0.005 A 
ATOM     23  C   UNL     1       0.908  -0.906   8.682  0.00  0.00    +0.004 A 
ATOM     24  C   UNL     1       2.087  -1.028   7.973  0.00  0.00    +0.045 A 
ATOM     25  C   UNL     1       2.148  -1.867   6.870  0.00  0.00    +0.121 A 
ATOM     26  C   UNL     1       1.025  -2.585   6.484  0.00  0.00    +0.050 A 
BRANCH  25  27
ATOM     27  O   UNL     1       3.307  -1.989   6.170  0.00  0.00    -0.487 OA
BRANCH  27  28
ATOM     28  C   UNL     1       4.424  -1.224   6.628  0.00  0.00    +0.267 C 
BRANCH  28  29
ATOM     29  C   UNL     1       5.610  -1.486   5.736  0.00  0.00    +0.025 A 
ATOM     30  C   UNL     1       5.494  -2.355   4.667  0.00  0.00    +0.010 A 
ATOM     31  C   UNL     1       6.582  -2.595   3.850  0.00  0.00    +0.001 A 
ATOM     32  C   UNL     1       7.788  -1.967   4.100  0.00  0.00    +0.003 A 
ATOM     33  C   UNL     1       7.907  -1.098   5.167  0.00  0.00    +0.039 A 
ATOM     34  C   UNL     1       6.816  -0.853   5.984  0.00  0.00    +0.130 A 
ATOM     35  F   UNL     1       6.930   0.001   7.025  0.00  0.00    -0.205 F 
ENDBRANCH  28  29
ENDBRANCH  27  28
ENDBRANCH  25  27
ENDBRANCH  10  21
BRANCH   8  36
ATOM     36  N   UNL     1      -3.126  -4.942   9.609  0.00  0.00    -0.328 N 
ATOM     37  H   UNL     1      -3.900  -4.834  10.184  0.00  0.00    +0.145 HD
ATOM     38  H   UNL     1      -2.544  -5.710   9.719  0.00  0.00    +0.145 HD
ENDBRANCH   8  36
BRANCH   9  39
ATOM     39  C   UNL     1      -0.955  -5.355   8.079  0.00  0.00    +0.101 C 
ATOM     40  N   UNL     1      -0.311  -6.275   8.251  0.00  0.00    -0.191 NA
ENDBRANCH   9  39
TORSDOF 9
