REMARK  Name = ZINC58982271
REMARK  6 active torsions:
REMARK  status: ('A' for Active; 'I' for Inactive)
REMARK    1  A    between atoms: C_1  and  C_2
REMARK    2  A    between atoms: C_2  and  C_9
REMARK    3  A    between atoms: C_13  and  N_15
REMARK    4  A    between atoms: C_16  and  C_18
REMARK    5  A    between atoms: C_18  and  S_19
REMARK    6  A    between atoms: S_19  and  C_20
REMARK                            x       y       z     vdW  Elec       q    Type
REMARK                         _______ _______ _______ _____ _____    ______ ____
ROOT
ATOM      1  N   UNL     1       0.216  -0.319  -4.900  0.00  0.00    -0.285 N 
ATOM      2  C   UNL     1       0.860  -0.694  -6.023  0.00  0.00    +0.227 C 
ATOM      3  O   UNL     1       1.843  -1.400  -5.951  0.00  0.00    -0.275 OA
ATOM      4  H   UNL     1      -0.613   0.181  -4.960  0.00  0.00    +0.155 HD
ENDROOT
BRANCH   1   9
ATOM      5  C   UNL     1       0.416  -1.248  -1.347  0.00  0.00    -0.014 A 
ATOM      6  C   UNL     1       1.787  -1.307  -1.170  0.00  0.00    +0.006 A 
ATOM      7  C   UNL     1       2.636  -1.040  -2.227  0.00  0.00    +0.002 A 
ATOM      8  C   UNL     1       2.119  -0.712  -3.465  0.00  0.00    +0.023 A 
ATOM      9  C   UNL     1       0.744  -0.651  -3.647  0.00  0.00    +0.034 A 
ATOM     10  C   UNL     1      -0.107  -0.926  -2.584  0.00  0.00    +0.029 A 
BRANCH   5  12
ATOM     11  C   UNL     1      -1.406  -0.337   0.094  0.00  0.00    +0.047 C 
ATOM     12  C   UNL     1      -0.506  -1.541  -0.192  0.00  0.00    +0.135 C 
ATOM     13  C   UNL     1      -1.339  -2.776  -0.471  0.00  0.00    +0.248 C 
ATOM     14  O   UNL     1      -2.134  -2.935  -1.373  0.00  0.00    -0.273 OA
ATOM     15  N   UNL     1      -1.012  -3.661   0.492  0.00  0.00    -0.238 N 
ATOM     16  C   UNL     1      -0.098  -3.161   1.331  0.00  0.00    +0.307 C 
ATOM     17  O   UNL     1       0.354  -3.773   2.279  0.00  0.00    -0.252 OA
ATOM     18  N   UNL     1       0.266  -1.907   1.007  0.00  0.00    -0.282 N 
ATOM     19  H   UNL     1      -1.393  -4.549   0.567  0.00  0.00    +0.159 HD
ATOM     20  H   UNL     1       0.911  -1.353   1.473  0.00  0.00    +0.152 HD
ENDBRANCH   5  12
ENDBRANCH   1   9
BRANCH   2  21
ATOM     21  C   UNL     1       0.357  -0.236  -7.368  0.00  0.00    +0.170 C 
BRANCH  21  22
ATOM     22  S   UNL     1       1.428  -0.902  -8.672  0.00  0.00    -0.115 S 
BRANCH  22  23
ATOM     23  C   UNL     1       0.718  -0.286 -10.162  0.00  0.00    +0.017 A 
ATOM     24  C   UNL     1      -0.403   0.517 -10.119  0.00  0.00    +0.015 A 
ATOM     25  C   UNL     1      -0.971   1.009 -11.290  0.00  0.00    +0.002 A 
ATOM     26  C   UNL     1      -0.438   0.713 -12.508  0.00  0.00    +0.008 A 
ATOM     27  C   UNL     1       0.704  -0.101 -12.596  0.00  0.00    -0.015 A 
ATOM     28  C   UNL     1       1.295  -0.604 -11.411  0.00  0.00    +0.014 A 
ATOM     29  C   UNL     1       2.440  -1.413 -11.500  0.00  0.00    +0.050 A 
ATOM     30  C   UNL     1       2.969  -1.699 -12.723  0.00  0.00    +0.020 A 
ATOM     31  C   UNL     1       2.392  -1.200 -13.888  0.00  0.00    +0.002 A 
ATOM     32  C   UNL     1       1.275  -0.423 -13.840  0.00  0.00    +0.008 A 
ATOM     33 CL   UNL     1       3.176  -2.044 -10.060  0.00  0.00    -0.083 Cl
ENDBRANCH  22  23
ENDBRANCH  21  22
ENDBRANCH   2  21
TORSDOF 5
