REMARK  Name = ZINC12056123
REMARK  6 active torsions:
REMARK  status: ('A' for Active; 'I' for Inactive)
REMARK    1  A    between atoms: C_8  and  C_10
REMARK    2  A    between atoms: C_10  and  N_11
REMARK    3  A    between atoms: C_12  and  C_14
REMARK    4  A    between atoms: C_16  and  C_19
REMARK    5  A    between atoms: C_19  and  N_47
REMARK    6  A    between atoms: C_23  and  O_26
REMARK                            x       y       z     vdW  Elec       q    Type
REMARK                         _______ _______ _______ _____ _____    ______ ____
ROOT
ATOM      1  C   UNL     1       5.764   6.589   0.111  0.00  0.00    +0.168 A 
ATOM      2  C   UNL     1       4.626   6.151  -0.621  0.00  0.00    +0.078 A 
ATOM      3  C   UNL     1       3.765   5.731   0.336  0.00  0.00    +0.122 A 
ATOM      4  O   UNL     1       4.375   5.926   1.513  0.00  0.00    -0.361 OA
ATOM      5  N   UNL     1       5.480   6.396   1.375  0.00  0.00    -0.073 NA
ENDROOT
BRANCH   1   7
ATOM      6  N   UNL     1       8.014   7.526   0.383  0.00  0.00    -0.305 N 
ATOM      7  C   UNL     1       7.018   7.153  -0.445  0.00  0.00    +0.266 C 
ATOM      8  O   UNL     1       7.148   7.279  -1.646  0.00  0.00    -0.268 OA
ATOM      9  H   UNL     1       7.911   7.426   1.342  0.00  0.00    +0.149 HD
BRANCH   6  10
ATOM     10  C   UNL     1       9.253   8.083  -0.166  0.00  0.00    +0.147 C 
BRANCH  10  18
ATOM     11  C   UNL     1      13.626   8.163   4.336  0.00  0.00    +0.001 A 
ATOM     12  C   UNL     1      13.321   9.475   4.671  0.00  0.00    +0.001 A 
ATOM     13  C   UNL     1      12.326  10.140   3.982  0.00  0.00    +0.015 A 
ATOM     14  C   UNL     1      11.649   9.490   2.972  0.00  0.00    +0.020 A 
ATOM     15  C   UNL     1      11.939   8.156   2.612  0.00  0.00    -0.011 A 
ATOM     16  C   UNL     1      12.965   7.511   3.342  0.00  0.00    +0.009 A 
ATOM     17  C   UNL     1      11.123   7.629   1.528  0.00  0.00    +0.021 A 
ATOM     18  C   UNL     1      10.197   8.416   0.961  0.00  0.00    +0.008 A 
ATOM     19  S   UNL     1      10.342   9.947   1.862  0.00  0.00    -0.092 S 
ENDBRANCH  10  18
ENDBRANCH   6  10
ENDBRANCH   1   7
BRANCH   3  20
ATOM     20  C   UNL     1       2.387   5.161   0.119  0.00  0.00    -0.000 C 
BRANCH  20  26
ATOM     21  C   UNL     1       3.203   3.338  -1.250  0.00  0.00    -0.078 C 
ATOM     22  C   UNL     1       3.405   1.822  -1.294  0.00  0.00    -0.016 C 
ATOM     23  C   UNL     1       2.040   1.129  -1.262  0.00  0.00    +0.027 C 
ATOM     24  C   UNL     1       1.286   1.562  -0.002  0.00  0.00    +0.098 C 
ATOM     25  C   UNL     1       1.146   3.086   0.006  0.00  0.00    -0.047 C 
ATOM     26  N   UNL     1       2.494   3.692  -0.002  0.00  0.00    +0.386 N 
ATOM     27  H   UNL     1       3.027   3.330   0.797  0.00  0.00    -0.081 HD
BRANCH  24  28
ATOM     28  O   UNL     1      -0.011   0.963   0.007  0.00  0.00    -0.394 OA
ATOM     29  H   UNL     1       0.002  -0.004   0.002  0.00  0.00    +0.210 HD
ENDBRANCH  24  28
ENDBRANCH  20  26
ENDBRANCH   3  20
TORSDOF 6
