REMARK  Name = ZINC64796981
REMARK  5 active torsions:
REMARK  status: ('A' for Active; 'I' for Inactive)
REMARK    1  A    between atoms: C_1  and  O_2
REMARK    2  A    between atoms: O_2  and  C_3
REMARK    3  A    between atoms: C_6  and  C_9
REMARK    4  A    between atoms: C_13  and  C_14
REMARK    5  A    between atoms: C_17  and  C_23
REMARK                            x       y       z     vdW  Elec       q    Type
REMARK                         _______ _______ _______ _____ _____    ______ ____
ROOT
ATOM      1  C   UNL     1       2.493  -2.493  -4.364  0.00  0.00    +0.025 A 
ATOM      2  C   UNL     1       1.780  -3.269  -5.277  0.00  0.00    +0.053 A 
ATOM      3  C   UNL     1       2.492  -3.819  -6.309  0.00  0.00    +0.020 A 
ATOM      4  S   UNL     1       4.072  -3.345  -6.084  0.00  0.00    -0.084 S 
ATOM      5  C   UNL     1       3.866  -2.367  -4.607  0.00  0.00    +0.110 A 
ATOM      6  C   UNL     1       1.907  -4.665  -7.400  0.00  0.00    +0.066 C 
ATOM      7  C   UNL     1       0.671  -5.382  -6.842  0.00  0.00    +0.109 C 
ATOM      8  C   UNL     1      -0.160  -4.439  -6.018  0.00  0.00    +0.218 C 
ATOM      9  O   UNL     1      -1.368  -4.521  -6.085  0.00  0.00    -0.275 OA
ATOM     10  N   UNL     1       0.378  -3.510  -5.210  0.00  0.00    -0.284 N 
ATOM     11  H   UNL     1      -0.180  -3.012  -4.592  0.00  0.00    +0.155 HD
ENDROOT
BRANCH   6  12
ATOM     12  C   UNL     1       1.507  -3.792  -8.561  0.00  0.00    -0.038 A 
ATOM     13  C   UNL     1       0.577  -2.785  -8.380  0.00  0.00    +0.007 A 
ATOM     14  C   UNL     1       0.210  -1.983  -9.444  0.00  0.00    +0.040 A 
ATOM     15  C   UNL     1       0.774  -2.187 -10.692  0.00  0.00    +0.137 A 
ATOM     16  C   UNL     1       1.707  -3.196 -10.872  0.00  0.00    +0.053 A 
ATOM     17  C   UNL     1       2.076  -3.994  -9.805  0.00  0.00    +0.022 A 
ATOM     18 BR   UNL     1       2.480  -3.477 -12.575  0.00  0.00    -0.047 Br
ATOM     19  F   UNL     1       0.416  -1.404 -11.733  0.00  0.00    -0.204 F 
ENDBRANCH   6  12
BRANCH   1  23
ATOM     20  C   UNL     1       0.606  -0.607  -1.055  0.00  0.00    +0.120 A 
ATOM     21  C   UNL     1       1.172   0.165  -2.062  0.00  0.00    +0.046 A 
ATOM     22  C   UNL     1       1.785  -0.444  -3.136  0.00  0.00    +0.012 A 
ATOM     23  C   UNL     1       1.836  -1.836  -3.212  0.00  0.00    -0.015 A 
ATOM     24  C   UNL     1       1.266  -2.608  -2.199  0.00  0.00    +0.012 A 
ATOM     25  C   UNL     1       0.659  -1.993  -1.125  0.00  0.00    +0.046 A 
BRANCH  20  27
ATOM     26  C   UNL     1      -0.017   1.425   0.010  0.00  0.00    +0.277 C 
ATOM     27  O   UNL     1       0.002  -0.004   0.002  0.00  0.00    -0.495 OA
ENDBRANCH  20  27
ENDBRANCH   1  23
BRANCH   5  28
ATOM     28  C   UNL     1       4.837  -1.652  -3.871  0.00  0.00    +0.394 C 
ATOM     29  O   UNL     1       4.510  -1.030  -2.867  0.00  0.00    -0.240 OA
ATOM     30  O   UNL     1       6.007  -1.654  -4.236  0.00  0.00    -0.240 OA
ENDBRANCH   5  28
TORSDOF 4
