REMARK  Name = ZINC19800705
REMARK  6 active torsions:
REMARK  status: ('A' for Active; 'I' for Inactive)
REMARK    1  A    between atoms: C_1  and  C_2
REMARK    2  A    between atoms: C_5  and  C_9
REMARK    3  A    between atoms: C_6  and  C_8
REMARK    4  A    between atoms: C_9  and  N_10
REMARK    5  A    between atoms: N_13  and  N_16
REMARK    6  A    between atoms: C_17  and  C_18
REMARK                            x       y       z     vdW  Elec       q    Type
REMARK                         _______ _______ _______ _____ _____    ______ ____
ROOT
ATOM      1  N   UNL     1       6.996   5.374   1.066  0.00  0.00    -0.295 NA
ATOM      2  C   UNL     1       7.081   3.922   0.858  0.00  0.00    +0.105 C 
ATOM      3  C   UNL     1       6.407   3.559  -0.469  0.00  0.00    +0.141 C 
ATOM      4  N   UNL     1       5.042   4.108  -0.466  0.00  0.00    -0.253 N 
ATOM      5  C   UNL     1       4.866   5.531  -0.136  0.00  0.00    +0.141 C 
ATOM      6  C   UNL     1       5.600   5.815   1.184  0.00  0.00    +0.105 C 
ENDROOT
BRANCH   4   7
ATOM      7  N   UNL     1       3.941   3.300  -0.774  0.00  0.00    -0.192 NA
ATOM      8  C   UNL     1       4.109   2.033  -0.998  0.00  0.00    +0.139 C 
BRANCH   8   9
ATOM      9  C   UNL     1       2.938   1.157  -1.194  0.00  0.00    +0.013 A 
ATOM     10  C   UNL     1       3.115  -0.207  -1.436  0.00  0.00    +0.012 A 
ATOM     11  C   UNL     1       2.017  -1.020  -1.620  0.00  0.00    +0.021 A 
ATOM     12  C   UNL     1       0.739  -0.489  -1.559  0.00  0.00    +0.042 A 
ATOM     13  C   UNL     1       0.556   0.863  -1.325  0.00  0.00    +0.040 A 
ATOM     14  C   UNL     1       1.647   1.689  -1.139  0.00  0.00    +0.051 A 
ATOM     15 CL   UNL     1       1.415   3.383  -0.840  0.00  0.00    -0.083 Cl
ATOM     16 CL   UNL     1      -0.638  -1.521  -1.784  0.00  0.00    -0.083 Cl
ENDBRANCH   8   9
ENDBRANCH   4   7
BRANCH   1  17
ATOM     17  C   UNL     1       7.779   5.784   2.240  0.00  0.00    +0.120 C 
BRANCH  17  22
ATOM     18  C   UNL     1       7.089  11.452   3.131  0.00  0.00    +0.044 C 
ATOM     19  C   UNL     1       7.268   9.974   2.898  0.00  0.00    -0.050 A 
ATOM     20  C   UNL     1       6.673   9.062   3.750  0.00  0.00    +0.004 A 
ATOM     21  C   UNL     1       6.838   7.707   3.537  0.00  0.00    +0.005 A 
ATOM     22  C   UNL     1       7.598   7.262   2.472  0.00  0.00    -0.030 A 
ATOM     23  C   UNL     1       8.198   8.173   1.623  0.00  0.00    -0.046 A 
ATOM     24  C   UNL     1       8.029   9.529   1.833  0.00  0.00    +0.007 A 
ATOM     25  C   UNL     1       9.033   7.689   0.465  0.00  0.00    +0.044 C 
ENDBRANCH  17  22
ENDBRANCH   1  17
TORSDOF 4
