REMARK  Name = ZINC39657093
REMARK  10 active torsions:
REMARK  status: ('A' for Active; 'I' for Inactive)
REMARK    1  A    between atoms: C_1  and  C_2
REMARK    2  A    between atoms: C_4  and  C_11
REMARK    3  A    between atoms: N_5  and  C_7
REMARK    4  A    between atoms: C_7  and  C_8
REMARK    5  A    between atoms: C_7  and  C_9
REMARK    6  A    between atoms: C_7  and  C_10
REMARK    7  A    between atoms: C_15  and  C_24
REMARK    8  A    between atoms: N_26  and  C_27
REMARK    9  A    between atoms: C_27  and  C_29
REMARK   10  A    between atoms: C_27  and  C_30
REMARK                            x       y       z     vdW  Elec       q    Type
REMARK                         _______ _______ _______ _____ _____    ______ ____
ROOT
ATOM      1  C   UNL     1      -0.600  -4.032  -1.414  0.00  0.00    +0.265 C 
ATOM      2  O   UNL     1      -0.853  -3.865  -2.592  0.00  0.00    -0.268 OA
ATOM      3  N   UNL     1      -0.717  -5.259  -0.867  0.00  0.00    -0.295 N 
ATOM      4  C   UNL     1      -0.584  -5.633   0.561  0.00  0.00    +0.121 C 
ATOM      5  C   UNL     1      -1.685  -6.693   0.790  0.00  0.00    +0.100 C 
ATOM      6  C   UNL     1      -1.957  -7.284  -0.603  0.00  0.00    -0.004 C 
ATOM      7  C   UNL     1      -1.014  -6.537  -1.557  0.00  0.00    +0.115 C 
ATOM      8  C   UNL     1      -3.408  -7.040  -1.006  0.00  0.00    -0.010 C 
ATOM      9  C   UNL     1      -3.669  -7.686  -2.370  0.00  0.00    -0.082 C 
ATOM     10  N   UNL     1      -3.398  -9.127  -2.290  0.00  0.00    +0.379 N 
ATOM     11  C   UNL     1      -1.979  -9.354  -1.993  0.00  0.00    -0.082 C 
ATOM     12  C   UNL     1      -1.646  -8.778  -0.614  0.00  0.00    -0.010 C 
ATOM     13  H   UNL     1      -3.963  -9.534  -1.560  0.00  0.00    -0.086 HD
ATOM     14  H   UNL     1      -3.629  -9.560  -3.172  0.00  0.00    -0.086 HD
ENDROOT
BRANCH   1  18
ATOM     15  C   UNL     1       1.123  -1.146   2.384  0.00  0.00    +0.067 C 
ATOM     16  C   UNL     1       0.585  -1.623   1.060  0.00  0.00    +0.061 A 
ATOM     17  C   UNL     1       0.304  -2.947   0.715  0.00  0.00    +0.057 A 
ATOM     18  C   UNL     1      -0.165  -2.896  -0.586  0.00  0.00    +0.124 A 
ATOM     19  N   UNL     1      -0.143  -1.579  -0.948  0.00  0.00    -0.254 N 
ATOM     20  N   UNL     1       0.292  -0.870   0.031  0.00  0.00    -0.175 NA
BRANCH  19  21
ATOM     21  C   UNL     1      -0.557  -1.055  -2.252  0.00  0.00    +0.056 C 
ATOM     22  C   UNL     1      -1.988  -1.508  -2.552  0.00  0.00    +0.036 C 
ATOM     23  C   UNL     1      -0.501   0.474  -2.228  0.00  0.00    +0.036 C 
ATOM     24  C   UNL     1       0.383  -1.583  -3.336  0.00  0.00    +0.036 C 
ENDBRANCH  19  21
ENDBRANCH   1  18
BRANCH   5  25
ATOM     25  C   UNL     1      -1.194  -7.763   1.731  0.00  0.00    +0.219 C 
ATOM     26  O   UNL     1      -0.008  -8.002   1.812  0.00  0.00    -0.275 OA
ATOM     27  N   UNL     1      -2.074  -8.456   2.481  0.00  0.00    -0.308 N 
ATOM     28  H   UNL     1      -3.027  -8.320   2.360  0.00  0.00    +0.149 HD
BRANCH  27  29
ATOM     29  C   UNL     1      -1.591  -9.415   3.478  0.00  0.00    +0.100 C 
ATOM     30  C   UNL     1      -1.281  -8.680   4.783  0.00  0.00    +0.033 C 
BRANCH  29  31
ATOM     31  C   UNL     1      -2.651 -10.457   3.728  0.00  0.00    -0.027 A 
ATOM     32  C   UNL     1      -3.981 -10.088   3.790  0.00  0.00    +0.006 A 
ATOM     33  C   UNL     1      -4.954 -11.043   4.018  0.00  0.00    +0.015 A 
ATOM     34  C   UNL     1      -4.595 -12.369   4.185  0.00  0.00    +0.018 A 
ATOM     35  C   UNL     1      -3.263 -12.737   4.123  0.00  0.00    +0.015 A 
ATOM     36  C   UNL     1      -2.292 -11.782   3.889  0.00  0.00    +0.006 A 
ATOM     37 BR   UNL     1      -5.925 -13.676   4.498  0.00  0.00    -0.050 Br
ENDBRANCH  29  31
ENDBRANCH  27  29
ENDBRANCH   5  25
TORSDOF 5
