REMARK  Name = ZINC09659426
REMARK  5 active torsions:
REMARK  status: ('A' for Active; 'I' for Inactive)
REMARK    1  A    between atoms: C_1  and  C_2
REMARK    2  A    between atoms: C_2  and  C_3
REMARK    3  A    between atoms: C_10  and  C_14
REMARK    4  A    between atoms: C_10  and  O_18
REMARK    5  A    between atoms: C_19  and  C_21
REMARK                            x       y       z     vdW  Elec       q    Type
REMARK                         _______ _______ _______ _____ _____    ______ ____
ROOT
ATOM      1  C   UNL     1      -0.796   2.043   1.298  0.00  0.00    -0.010 C 
ATOM      2  C   UNL     1      -0.030   1.609   2.546  0.00  0.00    +0.009 C 
ATOM      3  C   UNL     1       1.422   2.110   2.475  0.00  0.00    +0.053 C 
ATOM      4  C   UNL     1       1.356   3.594   2.180  0.00  0.00    +0.045 C 
ATOM      5  N   UNL     1       1.875   4.549   2.822  0.00  0.00    -0.183 NA
ATOM      6  N   UNL     1       1.497   5.816   2.375  0.00  0.00    -0.148 N 
ATOM      7  C   UNL     1       0.538   5.658   1.266  0.00  0.00    +0.259 C 
ATOM      8  C   UNL     1       0.512   4.141   1.039  0.00  0.00    +0.097 C 
ATOM      9  C   UNL     1      -0.897   3.570   1.217  0.00  0.00    +0.018 C 
ATOM     10  C   UNL     1       1.935   6.988   2.875  0.00  0.00    +0.269 C 
ATOM     11  O   UNL     1       1.594   8.035   2.358  0.00  0.00    -0.268 OA
ENDROOT
BRANCH  10  12
ATOM     12  C   UNL     1       2.830   7.002   4.051  0.00  0.00    +0.039 A 
ATOM     13  C   UNL     1       3.315   5.803   4.576  0.00  0.00    +0.014 A 
ATOM     14  C   UNL     1       4.154   5.823   5.670  0.00  0.00    +0.016 A 
ATOM     15  C   UNL     1       4.507   7.028   6.254  0.00  0.00    +0.018 A 
ATOM     16  C   UNL     1       4.023   8.220   5.742  0.00  0.00    +0.016 A 
ATOM     17  C   UNL     1       3.188   8.214   4.644  0.00  0.00    +0.014 A 
ATOM     18 BR   UNL     1       5.652   7.046   7.759  0.00  0.00    -0.050 Br
ENDBRANCH  10  12
BRANCH   7  19
ATOM     19  C   UNL     1       1.033   6.383   0.013  0.00  0.00    +0.438 C 
ATOM     20  F   UNL     1       0.178   6.101  -1.058  0.00  0.00    -0.166 F 
ATOM     21  F   UNL     1       1.047   7.763   0.247  0.00  0.00    -0.166 F 
ATOM     22  F   UNL     1       2.326   5.950  -0.297  0.00  0.00    -0.166 F 
ENDBRANCH   7  19
BRANCH   1  24
ATOM     23  C   UNL     1      -0.076  -0.009   0.068  0.00  0.00    +0.004 C 
ATOM     24  C   UNL     1      -0.071   1.521   0.056  0.00  0.00    +0.000 C 
ENDBRANCH   1  24
BRANCH   7  25
ATOM     25  O   UNL     1      -0.755   6.134   1.645  0.00  0.00    -0.363 OA
ATOM     26  H   UNL     1      -0.793   7.088   1.800  0.00  0.00    +0.212 HD
ENDBRANCH   7  25
TORSDOF 4
