REMARK  Name = ZINC64370104
REMARK  11 active torsions:
REMARK  status: ('A' for Active; 'I' for Inactive)
REMARK    1  A    between atoms: C_1  and  C_2
REMARK    2  A    between atoms: C_2  and  N_3
REMARK    3  A    between atoms: C_4  and  C_22
REMARK    4  A    between atoms: C_7  and  S_8
REMARK    5  A    between atoms: S_8  and  C_9
REMARK    6  A    between atoms: C_9  and  C_10
REMARK    7  A    between atoms: N_12  and  C_13
REMARK    8  A    between atoms: C_16  and  C_19
REMARK    9  A    between atoms: C_19  and  C_20
REMARK   10  A    between atoms: C_19  and  C_21
REMARK   11  A    between atoms: C_23  and  N_31
REMARK                            x       y       z     vdW  Elec       q    Type
REMARK                         _______ _______ _______ _____ _____    ______ ____
ROOT
ATOM      1  N   UNL     1      -1.368  -0.524   0.013  0.00  0.00    -0.302 N 
ATOM      2  C   UNL     1      -2.138  -0.822   1.116  0.00  0.00    +0.173 A 
ATOM      3  N   UNL     1      -3.298  -1.254   0.669  0.00  0.00    -0.128 NA
ATOM      4  N   UNL     1      -3.304  -1.245  -0.616  0.00  0.00    -0.122 NA
ATOM      5  C   UNL     1      -2.155  -0.803  -1.071  0.00  0.00    +0.192 A 
ENDROOT
BRANCH   2   6
ATOM      6  C   UNL     1      -1.739  -0.684   2.523  0.00  0.00    +0.080 A 
ATOM      7  C   UNL     1      -2.466  -0.973   3.638  0.00  0.00    +0.052 A 
ATOM      8  C   UNL     1      -1.861  -0.756   4.942  0.00  0.00    +0.029 A 
ATOM      9  C   UNL     1      -2.417  -0.981   6.226  0.00  0.00    +0.014 A 
ATOM     10  C   UNL     1      -1.657  -0.703   7.339  0.00  0.00    +0.020 A 
ATOM     11  C   UNL     1      -0.367  -0.211   7.203  0.00  0.00    +0.112 A 
ATOM     12  N   UNL     1       0.146  -0.003   6.005  0.00  0.00    -0.248 NA
ATOM     13  C   UNL     1      -0.540  -0.253   4.912  0.00  0.00    +0.111 A 
ATOM     14  S   UNL     1      -0.186  -0.107   3.179  0.00  0.00    -0.064 S 
BRANCH   7  15
ATOM     15  N   UNL     1      -3.772  -1.468   3.530  0.00  0.00    -0.356 N 
ATOM     16  H   UNL     1      -4.167  -1.609   2.655  0.00  0.00    +0.142 HD
ATOM     17  H   UNL     1      -4.282  -1.671   4.330  0.00  0.00    +0.142 HD
ENDBRANCH   7  15
ENDBRANCH   2   6
BRANCH   1  19
ATOM     18  C   UNL     1      -0.026   1.521   0.018  0.00  0.00    +0.027 C 
ATOM     19  C   UNL     1       0.003  -0.009   0.002  0.00  0.00    +0.122 C 
ENDBRANCH   1  19
BRANCH   5  20
ATOM     20  S   UNL     1      -1.707  -0.611  -2.765  0.00  0.00    -0.077 S 
BRANCH  20  21
ATOM     21  C   UNL     1      -3.182  -1.151  -3.673  0.00  0.00    +0.173 C 
BRANCH  21  22
ATOM     22  C   UNL     1      -2.930  -1.036  -5.154  0.00  0.00    +0.227 C 
ATOM     23  O   UNL     1      -1.861  -0.628  -5.557  0.00  0.00    -0.275 OA
ATOM     24  N   UNL     1      -3.892  -1.384  -6.030  0.00  0.00    -0.285 N 
ATOM     25  H   UNL     1      -4.722  -1.773  -5.711  0.00  0.00    +0.155 HD
BRANCH  24  26
ATOM     26  C   UNL     1      -3.695  -1.186  -7.402  0.00  0.00    +0.033 A 
ATOM     27  C   UNL     1      -4.763  -0.825  -8.213  0.00  0.00    +0.023 A 
ATOM     28  C   UNL     1      -4.565  -0.630  -9.566  0.00  0.00    +0.006 A 
ATOM     29  C   UNL     1      -3.305  -0.794 -10.113  0.00  0.00    -0.045 A 
ATOM     30  C   UNL     1      -2.240  -1.155  -9.308  0.00  0.00    +0.006 A 
ATOM     31  C   UNL     1      -2.430  -1.345  -7.953  0.00  0.00    +0.023 A 
BRANCH  29  32
ATOM     32  C   UNL     1      -3.093  -0.581 -11.589  0.00  0.00    +0.013 C 
ATOM     33  C   UNL     1      -2.073   0.539 -11.801  0.00  0.00    +0.012 C 
ATOM     34  C   UNL     1      -2.570  -1.873 -12.221  0.00  0.00    +0.012 C 
ENDBRANCH  29  32
ENDBRANCH  24  26
ENDBRANCH  21  22
ENDBRANCH  20  21
ENDBRANCH   5  20
TORSDOF 8
