REMARK  Name = ZINC08627168
REMARK  11 active torsions:
REMARK  status: ('A' for Active; 'I' for Inactive)
REMARK    1  A    between atoms: C_1  and  N_2
REMARK    2  A    between atoms: N_2  and  C_3
REMARK    3  A    between atoms: C_3  and  C_4
REMARK    4  A    between atoms: C_10  and  C_12
REMARK    5  A    between atoms: C_12  and  C_13
REMARK    6  A    between atoms: C_15  and  O_31
REMARK    7  A    between atoms: C_17  and  O_30
REMARK    8  A    between atoms: C_19  and  C_22
REMARK    9  A    between atoms: C_22  and  N_54
REMARK   10  A    between atoms: C_23  and  C_24
REMARK   11  A    between atoms: C_23  and  N_54
REMARK                            x       y       z     vdW  Elec       q    Type
REMARK                         _______ _______ _______ _____ _____    ______ ____
ROOT
ATOM      1  C   UNL     1       5.965   3.576   4.489  0.00  0.00    +0.158 C 
ATOM      2  C   UNL     1       6.727   4.892   4.238  0.00  0.00    +0.174 C 
ATOM      3  C   UNL     1       6.127   5.431   2.917  0.00  0.00    +0.172 C 
ATOM      4  C   UNL     1       4.766   4.691   2.852  0.00  0.00    +0.133 C 
ATOM      5  O   UNL     1       5.069   3.383   3.382  0.00  0.00    -0.369 OA
ENDROOT
BRANCH   3   6
ATOM      6  O   UNL     1       5.936   6.846   2.983  0.00  0.00    -0.387 OA
ATOM      7  H   UNL     1       6.759   7.352   3.025  0.00  0.00    +0.210 HD
ENDBRANCH   3   6
BRANCH   2   8
ATOM      8  O   UNL     1       6.496   5.814   5.305  0.00  0.00    -0.387 OA
ATOM      9  H   UNL     1       6.952   6.660   5.199  0.00  0.00    +0.210 HD
ENDBRANCH   2   8
BRANCH   1  10
ATOM     10  C   UNL     1       6.953   2.410   4.567  0.00  0.00    +0.130 C 
BRANCH  10  13
ATOM     11  C   UNL     1       8.332  -0.051   4.835  0.00  0.00    +0.132 C 
ATOM     12  N   UNL     1       6.882  -0.017   5.040  0.00  0.00    -0.300 N 
ATOM     13  C   UNL     1       6.211   1.145   4.917  0.00  0.00    +0.218 C 
ATOM     14  O   UNL     1       5.011   1.174   5.087  0.00  0.00    -0.276 OA
BRANCH  12  15
ATOM     15  C   UNL     1       6.161  -1.246   5.380  0.00  0.00    +0.142 C 
BRANCH  15  16
ATOM     16  C   UNL     1       5.712  -1.931   4.115  0.00  0.00    -0.030 A 
ATOM     17  C   UNL     1       4.476  -1.637   3.571  0.00  0.00    +0.005 A 
ATOM     18  C   UNL     1       4.066  -2.262   2.409  0.00  0.00    +0.000 A 
ATOM     19  C   UNL     1       4.888  -3.188   1.795  0.00  0.00    +0.000 A 
ATOM     20  C   UNL     1       6.123  -3.486   2.341  0.00  0.00    +0.000 A 
ATOM     21  C   UNL     1       6.534  -2.858   3.502  0.00  0.00    +0.005 A 
ENDBRANCH  15  16
ENDBRANCH  12  15
ENDBRANCH  10  13
ENDBRANCH   1  10
BRANCH   4  22
ATOM     22  C   UNL     1       4.278   4.587   1.405  0.00  0.00    -0.047 C 
BRANCH  22  23
ATOM     23  N   UNL     1       2.978   3.891   1.383  0.00  0.00    +0.384 N 
ATOM     24  H   UNL     1       2.300   4.421   1.943  0.00  0.00    -0.085 HD
ATOM     25  H   UNL     1       3.090   2.951   1.782  0.00  0.00    -0.085 HD
BRANCH  23  26
ATOM     26  C   UNL     1       2.483   3.776  -0.001  0.00  0.00    -0.026 C 
BRANCH  26  27
ATOM     27  C   UNL     1       1.156   3.061   0.007  0.00  0.00    +0.024 A 
ATOM     28  C   UNL     1      -0.015   3.796   0.022  0.00  0.00    +0.021 A 
ATOM     29  C   UNL     1      -1.231   3.129   0.030  0.00  0.00    +0.003 A 
ATOM     30  C   UNL     1      -1.223   1.742   0.017  0.00  0.00    +0.020 A 
ATOM     31  C   UNL     1      -0.013   1.076   0.008  0.00  0.00    +0.111 A 
ATOM     32  N   UNL     1       1.125   1.743   0.001  0.00  0.00    -0.262 NA
ENDBRANCH  26  27
ENDBRANCH  23  26
ENDBRANCH  22  23
ENDBRANCH   4  22
TORSDOF 10
