REMARK  Name = ZINC39674494
REMARK  7 active torsions:
REMARK  status: ('A' for Active; 'I' for Inactive)
REMARK    1  A    between atoms: C_1  and  C_2
REMARK    2  A    between atoms: C_4  and  C_9
REMARK    3  A    between atoms: C_5  and  C_8
REMARK    4  A    between atoms: C_9  and  C_11
REMARK    5  A    between atoms: C_9  and  N_12
REMARK    6  A    between atoms: C_13  and  C_15
REMARK    7  A    between atoms: C_26  and  C_28
REMARK                            x       y       z     vdW  Elec       q    Type
REMARK                         _______ _______ _______ _____ _____    ______ ____
ROOT
ATOM      1  C   UNL     1      -3.930   3.060  -1.858  0.00  0.00    +0.100 C 
ATOM      2  C   UNL     1      -3.658   3.876  -0.574  0.00  0.00    +0.121 C 
ATOM      3  N   UNL     1      -4.739   4.889  -0.537  0.00  0.00    -0.300 N 
ATOM      4  C   UNL     1      -5.944   4.159  -1.000  0.00  0.00    +0.115 C 
ATOM      5  C   UNL     1      -5.432   3.248  -2.133  0.00  0.00    -0.004 C 
ATOM      6  C   UNL     1      -5.641   3.921  -3.486  0.00  0.00    -0.010 C 
ATOM      7  C   UNL     1      -7.142   4.045  -3.763  0.00  0.00    -0.082 C 
ATOM      8  N   UNL     1      -7.754   2.711  -3.758  0.00  0.00    +0.379 N 
ATOM      9  C   UNL     1      -7.630   2.108  -2.426  0.00  0.00    -0.082 C 
ATOM     10  C   UNL     1      -6.149   1.902  -2.092  0.00  0.00    -0.010 C 
ATOM     11  C   UNL     1      -4.648   6.181  -0.167  0.00  0.00    +0.219 C 
ATOM     12  O   UNL     1      -3.568   6.657   0.113  0.00  0.00    -0.275 OA
ATOM     13  H   UNL     1      -8.730   2.790  -4.001  0.00  0.00    -0.086 HD
ATOM     14  H   UNL     1      -7.288   2.126  -4.436  0.00  0.00    -0.086 HD
ENDROOT
BRANCH  11  15
ATOM     15  C   UNL     1      -5.888   7.035  -0.101  0.00  0.00    +0.079 C 
ATOM     16  C   UNL     1      -5.497   8.491   0.183  0.00  0.00    +0.017 C 
ATOM     17  C   UNL     1      -6.751   9.361   0.068  0.00  0.00    +0.027 C 
ATOM     18  C   UNL     1      -7.870   8.761   0.869  0.00  0.00    -0.031 C 
ATOM     19  C   UNL     1      -7.889   7.536   1.285  0.00  0.00    -0.030 C 
ATOM     20  C   UNL     1      -6.792   6.543   1.031  0.00  0.00    +0.039 C 
ENDBRANCH  11  15
BRANCH   1  22
ATOM     21  N   UNL     1      -3.363   0.798  -2.680  0.00  0.00    -0.309 N 
ATOM     22  C   UNL     1      -3.617   1.604  -1.631  0.00  0.00    +0.219 C 
ATOM     23  O   UNL     1      -3.592   1.158  -0.503  0.00  0.00    -0.275 OA
ATOM     24  H   UNL     1      -3.382   1.155  -3.582  0.00  0.00    +0.149 HD
BRANCH  21  25
ATOM     25  C   UNL     1      -3.058  -0.618  -2.459  0.00  0.00    +0.100 C 
ATOM     26  C   UNL     1      -4.357  -1.426  -2.461  0.00  0.00    +0.033 C 
BRANCH  25  29
ATOM     27  C   UNL     1      -2.596   0.315  -5.571  0.00  0.00    +0.039 C 
ATOM     28  C   UNL     1      -2.416  -1.114  -5.055  0.00  0.00    +0.154 C 
ATOM     29  C   UNL     1      -2.155  -1.115  -3.559  0.00  0.00    -0.001 C 
ATOM     30  C   UNL     1      -0.942  -1.659  -3.445  0.00  0.00    +0.063 C 
ATOM     31  N   UNL     1      -0.444  -1.981  -4.659  0.00  0.00    -0.159 NA
ATOM     32  N   UNL     1      -1.192  -1.717  -5.609  0.00  0.00    -0.180 NA
ATOM     33  C   UNL     1      -0.224  -1.884  -2.139  0.00  0.00    +0.067 C 
ENDBRANCH  25  29
ENDBRANCH  21  25
ENDBRANCH   1  22
TORSDOF 4
