REMARK  Name = ZINC17202959
REMARK  7 active torsions:
REMARK  status: ('A' for Active; 'I' for Inactive)
REMARK    1  A    between atoms: C_1  and  C_2
REMARK    2  A    between atoms: C_5  and  C_26
REMARK    3  A    between atoms: C_6  and  O_8
REMARK    4  A    between atoms: O_8  and  C_9
REMARK    5  A    between atoms: C_9  and  C_10
REMARK    6  A    between atoms: N_12  and  N_13
REMARK    7  A    between atoms: C_14  and  C_16
REMARK                            x       y       z     vdW  Elec       q    Type
REMARK                         _______ _______ _______ _____ _____    ______ ____
ROOT
ATOM      1  C   UNL     1       3.609   5.889   0.000  0.00  0.00    +0.267 C 
ATOM      2  O   UNL     1       4.582   5.165  -0.013  0.00  0.00    -0.271 OA
ATOM      3  N   UNL     1       3.766   7.228   0.006  0.00  0.00    -0.232 N 
ATOM      4  H   UNL     1       2.988   7.807   0.016  0.00  0.00    +0.173 HD
ENDROOT
BRANCH   3   5
ATOM      5  N   UNL     1       5.052   7.783  -0.003  0.00  0.00    -0.234 N 
ATOM      6  C   UNL     1       5.209   9.121   0.003  0.00  0.00    +0.235 C 
ATOM      7  O   UNL     1       4.236   9.845   0.016  0.00  0.00    -0.274 OA
ATOM      8  H   UNL     1       5.830   7.203  -0.013  0.00  0.00    +0.173 HD
BRANCH   6   9
ATOM      9  C   UNL     1       6.592   9.718  -0.007  0.00  0.00    +0.049 C 
ATOM     10  C   UNL     1       7.358   9.251   1.233  0.00  0.00    +0.019 C 
ATOM     11  C   UNL     1       8.763   9.857   1.224  0.00  0.00    -0.009 C 
ATOM     12  C   UNL     1       8.660  11.384   1.233  0.00  0.00    +0.007 C 
ATOM     13  C   UNL     1       7.894  11.851  -0.007  0.00  0.00    -0.009 C 
ATOM     14  C   UNL     1       6.489  11.245   0.003  0.00  0.00    +0.019 C 
ATOM     15  C   UNL     1       8.637  11.397  -1.266  0.00  0.00    +0.007 C 
ATOM     16  C   UNL     1       8.740   9.871  -1.275  0.00  0.00    -0.009 C 
ATOM     17  C   UNL     1       9.505   9.404  -0.035  0.00  0.00    +0.007 C 
ATOM     18  C   UNL     1       7.335   9.265  -1.265  0.00  0.00    +0.019 C 
ENDBRANCH   6   9
ENDBRANCH   3   5
BRANCH   1  19
ATOM     19  C   UNL     1       2.226   5.292   0.010  0.00  0.00    +0.326 C 
BRANCH  19  20
ATOM     20  O   UNL     1       2.322   3.866   0.001  0.00  0.00    -0.482 OA
BRANCH  20  26
ATOM     21  C   UNL     1      -2.559   3.865   0.047  0.00  0.00    +0.044 C 
ATOM     22  C   UNL     1      -1.242   3.133   0.031  0.00  0.00    -0.047 A 
ATOM     23  C   UNL     1      -1.219   1.750   0.017  0.00  0.00    +0.004 A 
ATOM     24  C   UNL     1      -0.013   1.076   0.008  0.00  0.00    +0.007 A 
ATOM     25  C   UNL     1       1.175   1.782   0.000  0.00  0.00    -0.009 A 
ATOM     26  C   UNL     1       1.155   3.169   0.008  0.00  0.00    +0.124 A 
ATOM     27  C   UNL     1      -0.057   3.844   0.023  0.00  0.00    +0.049 A 
ATOM     28  C   UNL     1       2.490   1.047  -0.017  0.00  0.00    +0.047 C 
ENDBRANCH  20  26
ENDBRANCH  19  20
ENDBRANCH   1  19
TORSDOF 5
