REMARK  Name = ZINC63647049
REMARK  7 active torsions:
REMARK  status: ('A' for Active; 'I' for Inactive)
REMARK    1  A    between atoms: C_1  and  C_2
REMARK    2  A    between atoms: C_2  and  C_3
REMARK    3  A    between atoms: C_2  and  C_4
REMARK    4  A    between atoms: C_4  and  C_5
REMARK    5  A    between atoms: C_7  and  S_11
REMARK    6  A    between atoms: S_11  and  C_12
REMARK    7  A    between atoms: C_12  and  C_13
REMARK                            x       y       z     vdW  Elec       q    Type
REMARK                         _______ _______ _______ _____ _____    ______ ____
ROOT
ATOM      1  C   UNL     1      -4.247  -3.060   5.347  0.00  0.00    +0.021 C 
ATOM      2  N   UNL     1      -3.943  -3.600   6.575  0.00  0.00    -0.319 N 
ATOM      3  C   UNL     1      -4.771  -4.721   7.042  0.00  0.00    +0.231 C 
ATOM      4  N   UNL     1      -6.189  -4.323   6.820  0.00  0.00    -0.242 N 
ATOM      5  C   UNL     1      -7.055  -4.620   7.877  0.00  0.00    +0.026 C 
ATOM      6  C   UNL     1      -6.540  -4.893   9.080  0.00  0.00    +0.006 C 
ATOM      7  S   UNL     1      -4.751  -4.769   8.881  0.00  0.00    -0.086 S 
ATOM      8  C   UNL     1      -7.276  -5.244  10.335  0.00  0.00    +0.044 C 
ATOM      9  C   UNL     1      -8.751  -4.856  10.165  0.00  0.00    +0.006 C 
ATOM     10  C   UNL     1      -9.237  -5.378   8.809  0.00  0.00    +0.006 C 
ATOM     11  C   UNL     1      -8.571  -4.589   7.684  0.00  0.00    +0.052 C 
ATOM     12  C   UNL     1      -6.547  -3.664   5.686  0.00  0.00    +0.247 C 
ATOM     13  O   UNL     1      -7.717  -3.572   5.356  0.00  0.00    -0.270 OA
ATOM     14  C   UNL     1      -5.521  -3.082   4.901  0.00  0.00    +0.087 C 
ATOM     15  H   UNL     1      -3.212  -3.255   7.111  0.00  0.00    +0.148 HD
ENDROOT
BRANCH   1  16
ATOM     16  C   UNL     1      -3.162  -2.441   4.505  0.00  0.00    +0.128 C 
BRANCH  16  17
ATOM     17  S   UNL     1      -2.705  -0.828   5.198  0.00  0.00    -0.081 S 
BRANCH  17  20
ATOM     18  C   UNL     1      -0.030  -0.130   2.478  0.00  0.00    +0.152 A 
ATOM     19  N   UNL     1      -0.975  -0.869   3.058  0.00  0.00    -0.206 NA
ATOM     20  C   UNL     1      -1.444  -0.241   4.116  0.00  0.00    +0.185 A 
ATOM     21  H   UNL     1      -0.915   1.611   4.906  0.00  0.00    +0.191 HD
ATOM     22  N   UNL     1      -0.786   0.934   4.224  0.00  0.00    -0.254 N 
ATOM     23  N   UNL     1       0.125   0.976   3.156  0.00  0.00    -0.157 NA
BRANCH  18  24
ATOM     24  C   UNL     1       0.742  -0.511   1.242  0.00  0.00    +0.081 C 
BRANCH  24  26
ATOM     25  C   UNL     1      -0.019   1.526   0.010  0.00  0.00    +0.007 C 
ATOM     26  C   UNL     1       0.002  -0.004   0.002  0.00  0.00    -0.010 C 
ATOM     27  C   UNL     1       0.718  -0.497  -1.257  0.00  0.00    +0.007 C 
ENDBRANCH  24  26
ENDBRANCH  18  24
ENDBRANCH  17  20
ENDBRANCH  16  17
ENDBRANCH   1  16
TORSDOF 5
