REMARK  Name = ZINC19104271
REMARK  6 active torsions:
REMARK  status: ('A' for Active; 'I' for Inactive)
REMARK    1  A    between atoms: C_5  and  S_7
REMARK    2  A    between atoms: S_7  and  N_10
REMARK    3  A    between atoms: C_16  and  C_18
REMARK    4  A    between atoms: C_18  and  S_19
REMARK    5  A    between atoms: S_19  and  C_20
REMARK    6  A    between atoms: C_20  and  C_21
REMARK                            x       y       z     vdW  Elec       q    Type
REMARK                         _______ _______ _______ _____ _____    ______ ____
ROOT
ATOM      1  N   UNL     1       9.883  -3.642  -3.356  0.00  0.00    -0.174 NA
ATOM      2  C   UNL     1       9.057  -3.368  -4.540  0.00  0.00    +0.128 C 
ATOM      3  C   UNL     1       8.519  -1.936  -4.442  0.00  0.00    +0.125 C 
ATOM      4  N   UNL     1       7.931  -1.746  -3.109  0.00  0.00    -0.298 N 
ATOM      5  C   UNL     1       8.758  -2.014  -1.924  0.00  0.00    +0.125 C 
ATOM      6  C   UNL     1       9.294  -3.452  -2.022  0.00  0.00    +0.128 C 
ATOM      7  C   UNL     1       6.656  -1.327  -2.975  0.00  0.00    +0.225 C 
ATOM      8  O   UNL     1       5.985  -1.104  -3.960  0.00  0.00    -0.275 OA
ENDROOT
BRANCH   1   9
ATOM      9  S   UNL     1      11.449  -4.156  -3.520  0.00  0.00    +0.063 S 
ATOM     10  O   UNL     1      11.777  -4.847  -2.322  0.00  0.00    -0.153 OA
ATOM     11  O   UNL     1      11.544  -4.765  -4.801  0.00  0.00    -0.153 OA
BRANCH   9  16
ATOM     12  C   UNL     1      14.181  -1.361  -2.582  0.00  0.00    +0.004 A 
ATOM     13  C   UNL     1      14.123  -0.447  -3.580  0.00  0.00    +0.031 A 
ATOM     14  C   UNL     1      13.211  -0.624  -4.652  0.00  0.00    +0.102 A 
ATOM     15  C   UNL     1      12.355  -1.806  -4.650  0.00  0.00    +0.126 A 
ATOM     16  C   UNL     1      12.467  -2.719  -3.568  0.00  0.00    +0.133 A 
ATOM     17  C   UNL     1      13.359  -2.488  -2.576  0.00  0.00    +0.031 A 
ATOM     18  N   UNL     1      11.556  -1.848  -5.714  0.00  0.00    -0.189 NA
ATOM     19  S   UNL     1      11.885  -0.570  -6.559  0.00  0.00    +0.117 S 
ATOM     20  N   UNL     1      12.997   0.146  -5.718  0.00  0.00    -0.191 NA
ENDBRANCH   9  16
ENDBRANCH   1   9
BRANCH   7  21
ATOM     21  C   UNL     1       6.066  -1.137  -1.601  0.00  0.00    +0.165 C 
BRANCH  21  22
ATOM     22  S   UNL     1       4.349  -0.572  -1.754  0.00  0.00    -0.146 S 
BRANCH  22  23
ATOM     23  C   UNL     1       3.792  -0.394  -0.037  0.00  0.00    +0.112 C 
BRANCH  23  24
ATOM     24  C   UNL     1       2.360   0.077  -0.020  0.00  0.00    +0.001 A 
ATOM     25  C   UNL     1       1.221  -0.657  -0.013  0.00  0.00    +0.013 A 
ATOM     26  C   UNL     1       0.002  -0.004   0.002  0.00  0.00    +0.028 A 
ATOM     27  C   UNL     1      -0.016   1.352   0.009  0.00  0.00    +0.078 A 
ATOM     28  S   UNL     1       1.725   1.745  -0.005  0.00  0.00    -0.081 S 
ATOM     29 CL   UNL     1      -1.379   2.427   0.022  0.00  0.00    -0.076 Cl
ENDBRANCH  23  24
ENDBRANCH  22  23
ENDBRANCH  21  22
ENDBRANCH   7  21
TORSDOF 6
