REMARK  Name = ZINC22025216
REMARK  10 active torsions:
REMARK  status: ('A' for Active; 'I' for Inactive)
REMARK    1  A    between atoms: C_1  and  C_2
REMARK    2  A    between atoms: C_2  and  O_3
REMARK    3  A    between atoms: O_3  and  C_4
REMARK    4  A    between atoms: C_4  and  C_6
REMARK    5  A    between atoms: C_7  and  C_20
REMARK    6  A    between atoms: C_12  and  C_14
REMARK    7  A    between atoms: C_20  and  O_21
REMARK    8  A    between atoms: O_21  and  C_22
REMARK    9  A    between atoms: C_22  and  C_24
REMARK   10  A    between atoms: C_24  and  N_25
REMARK                            x       y       z     vdW  Elec       q    Type
REMARK                         _______ _______ _______ _____ _____    ______ ____
ROOT
ATOM      1  C   UNL     1       1.388   1.666  -0.059  0.00  0.00    +0.081 C 
ATOM      2  C   UNL     1       1.816   2.391   0.997  0.00  0.00    +0.061 C 
ATOM      3  N   UNL     1       0.992   2.648   2.056  0.00  0.00    -0.269 N 
ATOM      4  C   UNL     1      -0.273   2.217   2.134  0.00  0.00    +0.304 C 
ATOM      5  O   UNL     1      -0.930   2.497   3.118  0.00  0.00    -0.252 OA
ATOM      6  N   UNL     1      -0.842   1.482   1.158  0.00  0.00    -0.288 N 
ATOM      7  C   UNL     1      -0.036   1.149  -0.029  0.00  0.00    +0.144 C 
ATOM      8  H   UNL     1       1.359   3.241   2.907  0.00  0.00    +0.156 HD
ATOM      9  H   UNL     1      -1.882   1.132   1.233  0.00  0.00    +0.151 HD
ENDROOT
BRANCH   7  10
ATOM     10  C   UNL     1      -0.751   1.687  -1.241  0.00  0.00    -0.022 A 
ATOM     11  C   UNL     1      -1.308   2.952  -1.210  0.00  0.00    +0.006 A 
ATOM     12  C   UNL     1      -1.961   3.447  -2.323  0.00  0.00    +0.000 A 
ATOM     13  C   UNL     1      -2.064   2.674  -3.465  0.00  0.00    +0.000 A 
ATOM     14  C   UNL     1      -1.512   1.407  -3.494  0.00  0.00    +0.000 A 
ATOM     15  C   UNL     1      -0.856   0.913  -2.382  0.00  0.00    +0.006 A 
ENDBRANCH   7  10
BRANCH   1  16
ATOM     16  C   UNL     1       2.240   1.399  -1.156  0.00  0.00    +0.339 C 
ATOM     17  O   UNL     1       2.777   0.311  -1.258  0.00  0.00    -0.245 OA
BRANCH  16  18
ATOM     18  O   UNL     1       2.457   2.349  -2.089  0.00  0.00    -0.462 OA
BRANCH  18  20
ATOM     19  C   UNL     1       3.452   3.204  -4.118  0.00  0.00    +0.048 C 
ATOM     20  C   UNL     1       3.329   2.010  -3.169  0.00  0.00    +0.229 C 
ENDBRANCH  18  20
ENDBRANCH  16  18
ENDBRANCH   1  16
BRANCH   2  21
ATOM     21  C   UNL     1       3.225   2.925   1.008  0.00  0.00    +0.283 C 
BRANCH  21  22
ATOM     22  O   UNL     1       3.193   4.375   0.960  0.00  0.00    -0.457 OA
BRANCH  22  23
ATOM     23  C   UNL     1       4.375   5.011   0.963  0.00  0.00    +0.327 C 
ATOM     24  O   UNL     1       5.403   4.376   1.004  0.00  0.00    -0.249 OA
BRANCH  23  25
ATOM     25  C   UNL     1       4.421   6.517   0.915  0.00  0.00    +0.255 C 
BRANCH  25  26
ATOM     26  N   UNL     1       5.817   6.963   0.928  0.00  0.00    -0.157 N 
ATOM     27  C   UNL     1       6.639   7.088  -0.125  0.00  0.00    +0.268 C 
ATOM     28  O   UNL     1       6.260   6.821  -1.248  0.00  0.00    -0.268 OA
ATOM     29  C   UNL     1       8.010   7.557   0.118  0.00  0.00    +0.065 A 
ATOM     30  C   UNL     1       9.064   7.775  -0.787  0.00  0.00    +0.015 A 
ATOM     31  C   UNL     1      10.284   8.223  -0.336  0.00  0.00    +0.001 A 
ATOM     32  C   UNL     1      10.501   8.467   1.008  0.00  0.00    +0.002 A 
ATOM     33  C   UNL     1       9.473   8.258   1.915  0.00  0.00    +0.029 A 
ATOM     34  C   UNL     1       8.259   7.813   1.472  0.00  0.00    +0.121 A 
ATOM     35  S   UNL     1       6.717   7.432   2.258  0.00  0.00    +0.078 S 
ATOM     36  O   UNL     1       6.167   8.647   2.746  0.00  0.00    -0.150 OA
ATOM     37  O   UNL     1       6.921   6.282   3.068  0.00  0.00    -0.150 OA
ENDBRANCH  25  26
ENDBRANCH  23  25
ENDBRANCH  22  23
ENDBRANCH  21  22
ENDBRANCH   2  21
TORSDOF 9
