REMARK  Name = ZINC62853224
REMARK  5 active torsions:
REMARK  status: ('A' for Active; 'I' for Inactive)
REMARK    1  A    between atoms: C_1  and  C_2
REMARK    2  A    between atoms: C_2  and  C_3
REMARK    3  A    between atoms: C_3  and  C_9
REMARK    4  A    between atoms: N_11  and  C_12
REMARK    5  A    between atoms: C_15  and  C_19
REMARK                            x       y       z     vdW  Elec       q    Type
REMARK                         _______ _______ _______ _____ _____    ______ ____
ROOT
ATOM      1  C   UNL     1       2.197   0.387  -1.733  0.00  0.00    +0.222 C 
ATOM      2  O   UNL     1       3.118  -0.112  -2.344  0.00  0.00    -0.275 OA
ATOM      3  N   UNL     1       2.419   1.435  -0.916  0.00  0.00    -0.283 N 
ATOM      4  H   UNL     1       1.675   1.869  -0.470  0.00  0.00    +0.155 HD
ENDROOT
BRANCH   3   5
ATOM      5  C   UNL     1       3.724   1.899  -0.712  0.00  0.00    +0.062 A 
ATOM      6  C   UNL     1       3.981   3.264  -0.676  0.00  0.00    +0.040 A 
ATOM      7  C   UNL     1       5.271   3.717  -0.474  0.00  0.00    +0.020 A 
ATOM      8  C   UNL     1       6.305   2.815  -0.307  0.00  0.00    -0.048 A 
ATOM      9  C   UNL     1       6.053   1.456  -0.342  0.00  0.00    +0.020 A 
ATOM     10  C   UNL     1       4.765   0.995  -0.538  0.00  0.00    +0.040 A 
ATOM     11 BR   UNL     1       4.420  -0.864  -0.577  0.00  0.00    -0.048 Br
ATOM     12  C   UNL     1       7.710   3.314  -0.086  0.00  0.00    +0.044 C 
ATOM     13 BR   UNL     1       2.568   4.499  -0.906  0.00  0.00    -0.048 Br
ENDBRANCH   3   5
BRANCH   1  14
ATOM     14  C   UNL     1       0.803  -0.167  -1.886  0.00  0.00    +0.032 C 
ATOM     15  C   UNL     1      -0.164   0.970  -2.229  0.00  0.00    +0.012 C 
ATOM     16  C   UNL     1       0.232   1.575  -3.579  0.00  0.00    -0.018 C 
ATOM     17  C   UNL     1       0.235   0.476  -4.643  0.00  0.00    -0.083 C 
ATOM     18  N   UNL     1       1.199  -0.567  -4.271  0.00  0.00    +0.380 N 
ATOM     19  C   UNL     1       0.785  -1.201  -3.014  0.00  0.00    -0.066 C 
ATOM     20  H   UNL     1       1.238  -1.263  -5.001  0.00  0.00    -0.086 HD
ATOM     21  H   UNL     1       2.112  -0.154  -4.154  0.00  0.00    -0.086 HD
BRANCH  14  23
ATOM     22  C   UNL     1       1.235  -2.065  -0.320  0.00  0.00    +0.005 C 
ATOM     23  C   UNL     1       0.370  -0.830  -0.577  0.00  0.00    +0.011 C 
ENDBRANCH  14  23
ENDBRANCH   1  14
TORSDOF 3
