REMARK  Name = ZINC20181110
REMARK  14 active torsions:
REMARK  status: ('A' for Active; 'I' for Inactive)
REMARK    1  A    between atoms: C_1  and  C_2
REMARK    2  A    between atoms: C_2  and  C_3
REMARK    3  A    between atoms: C_3  and  C_4
REMARK    4  A    between atoms: C_4  and  N_5
REMARK    5  A    between atoms: N_5  and  C_6
REMARK    6  A    between atoms: N_5  and  C_10
REMARK    7  A    between atoms: C_6  and  C_7
REMARK    8  A    between atoms: C_7  and  C_8
REMARK    9  A    between atoms: C_8  and  C_9
REMARK   10  A    between atoms: C_10  and  C_11
REMARK   11  A    between atoms: C_11  and  N_12
REMARK   12  A    between atoms: C_13  and  C_15
REMARK   13  A    between atoms: C_15  and  N_16
REMARK   14  A    between atoms: C_25  and  C_26
REMARK                            x       y       z     vdW  Elec       q    Type
REMARK                         _______ _______ _______ _____ _____    ______ ____
ROOT
ATOM      1  N   UNL     1       3.030   0.919  -0.044  0.00  0.00    -0.257 N 
ATOM      2  C   UNL     1       3.196   2.192   0.487  0.00  0.00    +0.051 A 
ATOM      3  C   UNL     1       4.448   2.796   0.389  0.00  0.00    +0.024 A 
ATOM      4  C   UNL     1       4.657   4.061   0.897  0.00  0.00    +0.002 A 
ATOM      5  C   UNL     1       3.626   4.750   1.512  0.00  0.00    +0.001 A 
ATOM      6  C   UNL     1       2.378   4.165   1.619  0.00  0.00    +0.017 A 
ATOM      7  C   UNL     1       2.163   2.894   1.111  0.00  0.00    +0.034 A 
ATOM      8  S   UNL     1       0.568   2.146   1.253  0.00  0.00    -0.082 S 
ATOM      9  C   UNL     1       0.587   1.020  -0.118  0.00  0.00    +0.076 C 
ATOM     10  C   UNL     1      -0.514   0.793  -0.874  0.00  0.00    +0.028 C 
ATOM     11  C   UNL     1       1.875   0.342  -0.386  0.00  0.00    +0.258 C 
ATOM     12  O   UNL     1       1.882  -0.749  -0.923  0.00  0.00    -0.269 OA
ENDROOT
BRANCH  10  13
ATOM     13  C   UNL     1      -0.407   0.004  -2.110  0.00  0.00    -0.022 A 
ATOM     14  C   UNL     1      -1.460  -0.829  -2.507  0.00  0.00    +0.008 A 
ATOM     15  C   UNL     1      -1.352  -1.566  -3.667  0.00  0.00    +0.002 A 
ATOM     16  C   UNL     1      -0.206  -1.485  -4.439  0.00  0.00    +0.020 A 
ATOM     17  C   UNL     1       0.841  -0.663  -4.054  0.00  0.00    +0.042 A 
ATOM     18  C   UNL     1       0.746   0.085  -2.898  0.00  0.00    +0.028 A 
ATOM     19 CL   UNL     1       2.272  -0.569  -5.032  0.00  0.00    -0.084 Cl
ENDBRANCH  10  13
BRANCH   1  20
ATOM     20  C   UNL     1       4.246   0.129  -0.250  0.00  0.00    +0.209 C 
BRANCH  20  22
ATOM     21  N   UNL     1       5.856  -0.304  -2.077  0.00  0.00    -0.316 N 
ATOM     22  C   UNL     1       4.742   0.329  -1.659  0.00  0.00    +0.231 C 
ATOM     23  O   UNL     1       4.139   1.059  -2.416  0.00  0.00    -0.274 OA
ATOM     24  H   UNL     1       6.403  -0.966  -1.390  0.00  0.00    +0.149 HD
BRANCH  21  25
ATOM     25  C   UNL     1       6.338  -0.111  -3.447  0.00  0.00    +0.086 C 
BRANCH  25  26
ATOM     26  C   UNL     1       7.608  -0.936  -3.662  0.00  0.00    -0.060 C 
BRANCH  26  27
ATOM     27  N   UNL     1       8.116  -0.707  -5.021  0.00  0.00    +0.381 N 
ATOM     28  H   UNL     1       7.256  -0.702  -5.707  0.00  0.00    -0.082 HD
BRANCH  27  29
ATOM     29  C   UNL     1       8.781   0.600  -5.122  0.00  0.00    -0.079 C 
BRANCH  29  30
ATOM     30  C   UNL     1       9.074   0.911  -6.590  0.00  0.00    -0.019 C 
BRANCH  30  32
ATOM     31  C   UNL     1      10.059   2.584  -8.164  0.00  0.00    +0.004 C 
ATOM     32  C   UNL     1       9.767   2.272  -6.695  0.00  0.00    -0.005 C 
ENDBRANCH  30  32
ENDBRANCH  29  30
ENDBRANCH  27  29
BRANCH  27  33
ATOM     33  C   UNL     1       9.018  -1.790  -5.436  0.00  0.00    -0.079 C 
BRANCH  33  34
ATOM     34  C   UNL     1       8.196  -3.030  -5.792  0.00  0.00    -0.019 C 
BRANCH  34  35
ATOM     35  C   UNL     1       9.138  -4.187  -6.129  0.00  0.00    -0.005 C 
ATOM     36  C   UNL     1       8.316  -5.427  -6.485  0.00  0.00    +0.004 C 
ENDBRANCH  34  35
ENDBRANCH  33  34
ENDBRANCH  27  33
ENDBRANCH  26  27
ENDBRANCH  25  26
ENDBRANCH  21  25
ENDBRANCH  20  22
ENDBRANCH   1  20
TORSDOF 12
