REMARK  Name = ZINC39517102
REMARK  18 active torsions:
REMARK  status: ('A' for Active; 'I' for Inactive)
REMARK    1  A    between atoms: C_1  and  C_2
REMARK    2  A    between atoms: C_2  and  C_3
REMARK    3  A    between atoms: C_3  and  C_4
REMARK    4  A    between atoms: C_4  and  C_5
REMARK    5  A    between atoms: C_5  and  N_6
REMARK    6  A    between atoms: N_6  and  C_7
REMARK    7  A    between atoms: C_8  and  N_20
REMARK    8  A    between atoms: N_9  and  C_16
REMARK    9  A    between atoms: C_16  and  C_17
REMARK   10  A    between atoms: C_17  and  C_18
REMARK   11  A    between atoms: C_18  and  C_19
REMARK   12  A    between atoms: C_21  and  C_23
REMARK   13  A    between atoms: C_23  and  C_24
REMARK   14  A    between atoms: C_24  and  C_25
REMARK   15  A    between atoms: C_26  and  C_34
REMARK   16  A    between atoms: C_28  and  S_32
REMARK   17  A    between atoms: C_30  and  C_31
REMARK   18  A    between atoms: S_32  and  C_33
REMARK                            x       y       z     vdW  Elec       q    Type
REMARK                         _______ _______ _______ _____ _____    ______ ____
ROOT
ATOM      1  N   UNL     1       1.478  -3.979  -2.535  0.00  0.00    -0.264 N 
ATOM      2  C   UNL     1       2.600  -4.558  -2.057  0.00  0.00    +0.220 C 
ATOM      3  O   UNL     1       2.736  -5.762  -2.122  0.00  0.00    -0.275 OA
ENDROOT
BRANCH   1   4
ATOM      4  C   UNL     1       0.418  -4.780  -3.008  0.00  0.00    +0.140 A 
ATOM      5  C   UNL     1       0.065  -4.762  -4.342  0.00  0.00    +0.127 A 
ATOM      6  N   UNL     1      -0.973  -5.554  -4.774  0.00  0.00    -0.280 N 
ATOM      7  C   UNL     1      -1.638  -6.337  -3.905  0.00  0.00    +0.331 A 
ATOM      8  O   UNL     1      -2.554  -7.029  -4.306  0.00  0.00    -0.246 OA
ATOM      9  N   UNL     1      -1.309  -6.368  -2.601  0.00  0.00    -0.273 N 
ATOM     10  H   UNL     1      -1.804  -6.941  -1.995  0.00  0.00    +0.173 HD
ATOM     11  C   UNL     1      -0.296  -5.616  -2.129  0.00  0.00    +0.277 A 
ATOM     12  O   UNL     1      -0.002  -5.655  -0.946  0.00  0.00    -0.266 OA
BRANCH   5  13
ATOM     13  N   UNL     1       0.744  -3.961  -5.229  0.00  0.00    -0.343 N 
ATOM     14  H   UNL     1       1.427  -3.352  -4.908  0.00  0.00    +0.144 HD
ATOM     15  H   UNL     1       0.540  -4.006  -6.177  0.00  0.00    +0.144 HD
ENDBRANCH   5  13
BRANCH   6  16
ATOM     16  C   UNL     1      -1.358  -5.544  -6.187  0.00  0.00    +0.128 C 
BRANCH  16  17
ATOM     17  C   UNL     1      -0.565  -6.615  -6.939  0.00  0.00    +0.021 C 
BRANCH  17  18
ATOM     18  C   UNL     1      -0.967  -6.605  -8.415  0.00  0.00    -0.002 C 
ATOM     19  C   UNL     1      -0.174  -7.676  -9.166  0.00  0.00    +0.004 C 
ENDBRANCH  17  18
ENDBRANCH  16  17
ENDBRANCH   6  16
ENDBRANCH   1   4
BRANCH   1  20
ATOM     20  C   UNL     1       1.363  -2.519  -2.563  0.00  0.00    +0.114 C 
BRANCH  20  21
ATOM     21  C   UNL     1       0.641  -2.041  -1.301  0.00  0.00    +0.019 C 
BRANCH  21  22
ATOM     22  C   UNL     1       0.520  -0.516  -1.330  0.00  0.00    +0.001 C 
BRANCH  22  24
ATOM     23  C   UNL     1      -0.322   1.488  -0.097  0.00  0.00    +0.004 C 
ATOM     24  C   UNL     1      -0.201  -0.037  -0.068  0.00  0.00    -0.003 C 
ENDBRANCH  22  24
ENDBRANCH  21  22
ENDBRANCH  20  21
ENDBRANCH   1  20
BRANCH   2  25
ATOM     25  C   UNL     1       3.682  -3.709  -1.441  0.00  0.00    +0.101 C 
BRANCH  25  26
ATOM     26  C   UNL     1       4.834  -4.606  -0.983  0.00  0.00    +0.048 C 
BRANCH  26  27
ATOM     27  C   UNL     1       5.917  -3.757  -0.367  0.00  0.00    -0.005 A 
ATOM     28  C   UNL     1       6.938  -3.237  -1.147  0.00  0.00    +0.046 A 
ATOM     29  N   UNL     1       7.873  -2.496  -0.576  0.00  0.00    -0.227 NA
ATOM     30  C   UNL     1       7.840  -2.250   0.726  0.00  0.00    +0.188 A 
ATOM     31  N   UNL     1       6.878  -2.732   1.500  0.00  0.00    -0.227 NA
ATOM     32  C   UNL     1       5.910  -3.475   0.990  0.00  0.00    +0.046 A 
ATOM     33  C   UNL     1       4.816  -4.014   1.875  0.00  0.00    +0.066 C 
ATOM     34  C   UNL     1       6.983  -3.513  -2.628  0.00  0.00    +0.066 C 
BRANCH  30  35
ATOM     35  S   UNL     1       9.106  -1.258   1.446  0.00  0.00    -0.089 S 
ATOM     36  C   UNL     1       8.665  -1.190   3.204  0.00  0.00    +0.093 C 
ENDBRANCH  30  35
ENDBRANCH  26  27
ENDBRANCH  25  26
ENDBRANCH   2  25
TORSDOF 13
