REMARK  Name = ZINC44165197
REMARK  5 active torsions:
REMARK  status: ('A' for Active; 'I' for Inactive)
REMARK    1  A    between atoms: C_1  and  C_2
REMARK    2  A    between atoms: C_10  and  C_11
REMARK    3  A    between atoms: C_16  and  C_19
REMARK    4  A    between atoms: N_21  and  C_22
REMARK    5  A    between atoms: C_22  and  C_23
REMARK                            x       y       z     vdW  Elec       q    Type
REMARK                         _______ _______ _______ _____ _____    ______ ____
ROOT
ATOM      1  C   UNL     1      -0.004  -0.153   2.542  0.00  0.00    -0.023 C 
ATOM      2  C   UNL     1       1.410  -0.299   3.116  0.00  0.00    +0.058 C 
ATOM      3  S   UNL     1       1.426   0.430   4.784  0.00  0.00    -0.163 S 
ATOM      4  C   UNL     1      -0.019  -0.346   5.572  0.00  0.00    +0.062 C 
ATOM      5  C   UNL     1      -1.220  -0.194   4.631  0.00  0.00    +0.027 C 
ATOM      6  N   UNL     1      -0.955  -0.895   3.372  0.00  0.00    +0.393 N 
ATOM      7  H   UNL     1      -1.821  -1.004   2.867  0.00  0.00    -0.084 HD
ATOM      8  H   UNL     1      -0.575  -1.808   3.575  0.00  0.00    -0.084 HD
ENDROOT
BRANCH   1  18
ATOM      9  C   UNL     1      -0.085   1.488  -0.012  0.00  0.00    +0.045 C 
ATOM     10  C   UNL     1      -0.069  -0.019  -0.017  0.00  0.00    -0.034 A 
ATOM     11  C   UNL     1      -0.087  -0.750  -1.275  0.00  0.00    -0.006 A 
ATOM     12  C   UNL     1      -0.118  -0.241  -2.595  0.00  0.00    +0.029 A 
ATOM     13  C   UNL     1      -0.131  -1.082  -3.664  0.00  0.00    +0.042 A 
ATOM     14  C   UNL     1      -0.113  -2.462  -3.503  0.00  0.00    +0.021 A 
ATOM     15  C   UNL     1      -0.082  -2.997  -2.231  0.00  0.00    +0.017 A 
ATOM     16  C   UNL     1      -0.069  -2.155  -1.139  0.00  0.00    +0.020 A 
ATOM     17  S   UNL     1      -0.030  -2.404   0.617  0.00  0.00    -0.095 S 
ATOM     18  C   UNL     1      -0.033  -0.700   1.138  0.00  0.00    -0.019 A 
ATOM     19 CL   UNL     1      -0.171  -0.416  -5.267  0.00  0.00    -0.084 Cl
ENDBRANCH   1  18
BRANCH   5  20
ATOM     20  C   UNL     1      -1.453   1.268   4.349  0.00  0.00    +0.200 C 
ATOM     21  O   UNL     1      -1.829   1.622   3.252  0.00  0.00    -0.278 OA
ATOM     22  N   UNL     1      -1.242   2.183   5.316  0.00  0.00    -0.314 N 
ATOM     23  H   UNL     1      -0.941   1.900   6.194  0.00  0.00    +0.149 HD
BRANCH  22  24
ATOM     24  C   UNL     1      -1.469   3.604   5.043  0.00  0.00    +0.135 C 
BRANCH  24  25
ATOM     25  C   UNL     1      -1.159   4.421   6.299  0.00  0.00    +0.135 C 
ATOM     26  C   UNL     1      -1.510   5.905   6.058  0.00  0.00    +0.035 C 
ATOM     27  C   UNL     1      -0.347   6.640   6.779  0.00  0.00    +0.031 C 
ATOM     28  C   UNL     1       0.825   5.660   6.520  0.00  0.00    +0.160 C 
ATOM     29  O   UNL     1       0.240   4.348   6.594  0.00  0.00    -0.375 OA
ENDBRANCH  24  25
ENDBRANCH  22  24
ENDBRANCH   5  20
TORSDOF 4
