REMARK  Name = ZINC39660314
REMARK  9 active torsions:
REMARK  status: ('A' for Active; 'I' for Inactive)
REMARK    1  A    between atoms: C_1  and  C_2
REMARK    2  A    between atoms: C_2  and  C_3
REMARK    3  A    between atoms: C_3  and  C_4
REMARK    4  A    between atoms: C_4  and  C_5
REMARK    5  A    between atoms: C_5  and  C_6
REMARK    6  A    between atoms: C_6  and  N_7
REMARK    7  A    between atoms: C_8  and  C_10
REMARK    8  A    between atoms: C_21  and  C_23
REMARK    9  A    between atoms: C_23  and  C_24
REMARK                            x       y       z     vdW  Elec       q    Type
REMARK                         _______ _______ _______ _____ _____    ______ ____
ROOT
ATOM      1  C   UNL     1       3.006  -6.331  -5.199  0.00  0.00    +0.100 C 
ATOM      2  C   UNL     1       4.443  -5.766  -5.257  0.00  0.00    +0.121 C 
ATOM      3  N   UNL     1       5.287  -6.829  -4.662  0.00  0.00    -0.300 N 
ATOM      4  C   UNL     1       4.707  -8.092  -5.177  0.00  0.00    +0.115 C 
ATOM      5  C   UNL     1       3.184  -7.858  -5.151  0.00  0.00    -0.004 C 
ATOM      6  C   UNL     1       2.529  -8.505  -6.367  0.00  0.00    -0.010 C 
ATOM      7  C   UNL     1       2.667 -10.027  -6.266  0.00  0.00    -0.082 C 
ATOM      8  N   UNL     1       2.027 -10.498  -5.032  0.00  0.00    +0.379 N 
ATOM      9  C   UNL     1       2.723  -9.944  -3.865  0.00  0.00    -0.082 C 
ATOM     10  C   UNL     1       2.587  -8.419  -3.863  0.00  0.00    -0.010 C 
ATOM     11  C   UNL     1       6.344  -6.680  -3.839  0.00  0.00    +0.220 C 
ATOM     12  O   UNL     1       6.938  -7.656  -3.433  0.00  0.00    -0.275 OA
ATOM     13  H   UNL     1       1.063 -10.201  -5.020  0.00  0.00    -0.086 HD
ATOM     14  H   UNL     1       2.066 -11.506  -4.998  0.00  0.00    -0.086 HD
ENDROOT
BRANCH   1  16
ATOM     15  N   UNL     1       0.959  -5.712  -3.955  0.00  0.00    -0.315 N 
ATOM     16  C   UNL     1       2.301  -5.845  -3.959  0.00  0.00    +0.218 C 
ATOM     17  O   UNL     1       2.940  -5.574  -2.965  0.00  0.00    -0.275 OA
ATOM     18  H   UNL     1       0.448  -5.929  -4.751  0.00  0.00    +0.149 HD
BRANCH  15  19
ATOM     19  C   UNL     1       0.274  -5.240  -2.750  0.00  0.00    +0.104 C 
BRANCH  19  20
ATOM     20  C   UNL     1      -1.233  -5.180  -3.011  0.00  0.00    +0.019 C 
BRANCH  20  21
ATOM     21  C   UNL     1      -1.949  -4.686  -1.752  0.00  0.00    +0.002 C 
BRANCH  21  22
ATOM     22  C   UNL     1      -3.455  -4.626  -2.013  0.00  0.00    -0.000 C 
BRANCH  22  24
ATOM     23  C   UNL     1      -5.678  -4.072  -1.015  0.00  0.00    +0.004 C 
ATOM     24  C   UNL     1      -4.171  -4.133  -0.754  0.00  0.00    -0.003 C 
ENDBRANCH  22  24
ENDBRANCH  21  22
ENDBRANCH  20  21
ENDBRANCH  19  20
ENDBRANCH  15  19
ENDBRANCH   1  16
BRANCH  11  25
ATOM     25  C   UNL     1       6.787  -5.301  -3.424  0.00  0.00    +0.131 C 
BRANCH  25  26
ATOM     26  C   UNL     1       7.981  -5.411  -2.510  0.00  0.00    -0.039 A 
ATOM     27  C   UNL     1       7.797  -5.518  -1.143  0.00  0.00    +0.005 A 
ATOM     28  C   UNL     1       8.890  -5.619  -0.305  0.00  0.00    +0.020 A 
ATOM     29  C   UNL     1      10.169  -5.613  -0.832  0.00  0.00    +0.041 A 
ATOM     30  C   UNL     1      10.353  -5.506  -2.199  0.00  0.00    +0.020 A 
ATOM     31  C   UNL     1       9.258  -5.411  -3.038  0.00  0.00    +0.005 A 
ATOM     32 CL   UNL     1      11.544  -5.739   0.221  0.00  0.00    -0.084 Cl
ENDBRANCH  25  26
ENDBRANCH  11  25
TORSDOF 8
