REMARK  Name = ZINC16425430
REMARK  2 active torsions:
REMARK  status: ('A' for Active; 'I' for Inactive)
REMARK    1  A    between atoms: C_3  and  C_8
REMARK    2  A    between atoms: C_19  and  N_24
REMARK                            x       y       z     vdW  Elec       q    Type
REMARK                         _______ _______ _______ _____ _____    ______ ____
ROOT
ATOM      1  C   UNL     1      -1.310   1.674   0.017  0.00  0.00    +0.105 C 
ATOM      2  C   UNL     1      -1.543   2.849   0.956  0.00  0.00    +0.029 C 
ATOM      3  C   UNL     1      -2.947   3.468   0.963  0.00  0.00    +0.033 C 
ATOM      4  C   UNL     1      -2.642   4.921   1.332  0.00  0.00    -0.030 C 
ATOM      5  C   UNL     1      -1.403   5.231   0.968  0.00  0.00    -0.023 C 
ATOM      6  C   UNL     1      -0.794   4.050   0.304  0.00  0.00    +0.049 C 
ATOM      7  C   UNL     1       0.657   3.775   0.372  0.00  0.00    -0.017 A 
ATOM      8  C   UNL     1       1.592   4.771   0.550  0.00  0.00    +0.038 A 
ATOM      9  C   UNL     1       2.940   4.465   0.584  0.00  0.00    +0.127 A 
ATOM     10  C   UNL     1       3.355   3.154   0.438  0.00  0.00    +0.034 A 
ATOM     11  C   UNL     1       2.426   2.148   0.267  0.00  0.00    +0.025 A 
ATOM     12  C   UNL     1       1.068   2.444   0.237  0.00  0.00    +0.032 A 
ATOM     13  N   UNL     1       0.144   1.405   0.076  0.00  0.00    -0.336 N 
ATOM     14  H   UNL     1       0.462   0.492  -0.003  0.00  0.00    +0.147 HD
ENDROOT
BRANCH   1  17
ATOM     15  C   UNL     1      -3.387   2.152  -3.099  0.00  0.00    +0.001 A 
ATOM     16  C   UNL     1      -3.013   1.815  -1.811  0.00  0.00    +0.005 A 
ATOM     17  C   UNL     1      -1.716   2.037  -1.388  0.00  0.00    -0.026 A 
ATOM     18  C   UNL     1      -0.789   2.586  -2.255  0.00  0.00    +0.020 A 
ATOM     19  C   UNL     1      -1.162   2.918  -3.545  0.00  0.00    +0.018 A 
ATOM     20  C   UNL     1      -2.462   2.701  -3.966  0.00  0.00    +0.015 A 
ATOM     21 BR   UNL     1       0.104   3.669  -4.731  0.00  0.00    -0.050 Br
ENDBRANCH   1  17
BRANCH   9  22
ATOM     22  N   UNL     1       3.938   5.540   0.775  0.00  0.00    +0.056 N 
ATOM     23  O   UNL     1       3.573   6.695   0.903  0.00  0.00    -0.126 OA
ATOM     24  O   UNL     1       5.126   5.271   0.804  0.00  0.00    -0.126 OA
ENDBRANCH   9  22
TORSDOF 2
