REMARK  Name = ZINC21316110
REMARK  9 active torsions:
REMARK  status: ('A' for Active; 'I' for Inactive)
REMARK    1  A    between atoms: C_1  and  S_2
REMARK    2  A    between atoms: S_2  and  C_3
REMARK    3  A    between atoms: C_8  and  N_9
REMARK    4  A    between atoms: C_10  and  C_12
REMARK    5  A    between atoms: C_12  and  S_13
REMARK    6  A    between atoms: S_13  and  C_14
REMARK    7  A    between atoms: N_18  and  N_19
REMARK    8  A    between atoms: N_20  and  N_21
REMARK    9  A    between atoms: C_22  and  C_23
REMARK                            x       y       z     vdW  Elec       q    Type
REMARK                         _______ _______ _______ _____ _____    ______ ____
ROOT
ATOM      1  C   UNL     1       0.717  -2.098   0.023  0.00  0.00    +0.210 A 
ATOM      2  N   UNL     1      -0.594  -2.115   0.039  0.00  0.00    -0.119 NA
ATOM      3  N   UNL     1      -1.045  -0.789   0.068  0.00  0.00    -0.109 NA
ATOM      4  C   UNL     1       0.006  -0.004   0.059  0.00  0.00    +0.254 A 
ATOM      5  N   UNL     1       1.122  -0.793   0.035  0.00  0.00    -0.211 N 
ATOM      6  N   UNL     1      -0.012   1.383   0.077  0.00  0.00    -0.204 N 
ATOM      7  H   UNL     1       0.933   1.945   0.076  0.00  0.00    +0.177 HD
ENDROOT
BRANCH   5   8
ATOM      8  N   UNL     1       2.416  -0.354   0.023  0.00  0.00    -0.294 N 
ATOM      9  H   UNL     1       2.630   0.725   0.035  0.00  0.00    +0.163 HD
ATOM     10  H   UNL     1       3.243  -1.079   0.003  0.00  0.00    +0.163 HD
ENDBRANCH   5   8
BRANCH   6  11
ATOM     11  N   UNL     1      -1.235   2.067   0.095  0.00  0.00    -0.188 NA
ATOM     12  C   UNL     1      -1.252   3.366   0.112  0.00  0.00    +0.138 C 
BRANCH  12  13
ATOM     13  C   UNL     1      -2.538   4.086   0.131  0.00  0.00    -0.005 A 
ATOM     14  C   UNL     1      -3.741   3.375   0.126  0.00  0.00    +0.010 A 
ATOM     15  C   UNL     1      -4.940   4.055   0.148  0.00  0.00    +0.016 A 
ATOM     16  C   UNL     1      -4.955   5.439   0.166  0.00  0.00    +0.018 A 
ATOM     17  C   UNL     1      -3.767   6.150   0.167  0.00  0.00    +0.016 A 
ATOM     18  C   UNL     1      -2.560   5.483   0.149  0.00  0.00    +0.010 A 
ATOM     19 BR   UNL     1      -6.604   6.363   0.190  0.00  0.00    -0.050 Br
ENDBRANCH  12  13
ENDBRANCH   6  11
BRANCH   1  20
ATOM     20  S   UNL     1       1.772  -3.509  -0.007  0.00  0.00    -0.075 S 
BRANCH  20  21
ATOM     21  C   UNL     1       0.624  -4.914  -0.011  0.00  0.00    +0.173 C 
BRANCH  21  23
ATOM     22  N   UNL     1       0.759  -7.384  -0.044  0.00  0.00    -0.284 N 
ATOM     23  C   UNL     1       1.407  -6.202  -0.037  0.00  0.00    +0.228 C 
ATOM     24  O   UNL     1       2.619  -6.174  -0.051  0.00  0.00    -0.275 OA
ATOM     25  H   UNL     1      -0.337  -7.411   0.043  0.00  0.00    +0.155 HD
BRANCH  22  31
ATOM     26  C   UNL     1       0.944  -9.655  -0.867  0.00  0.00    +0.029 A 
ATOM     27  C   UNL     1       1.666 -10.835  -0.981  0.00  0.00    +0.016 A 
ATOM     28  C   UNL     1       2.914 -10.940  -0.396  0.00  0.00    +0.001 A 
ATOM     29  C   UNL     1       3.447  -9.872   0.302  0.00  0.00    +0.002 A 
ATOM     30  C   UNL     1       2.738  -8.691   0.416  0.00  0.00    +0.024 A 
ATOM     31  C   UNL     1       1.482  -8.578  -0.162  0.00  0.00    +0.047 A 
BRANCH  26  33
ATOM     32  C   UNL     1      -0.906 -11.133  -2.395  0.00  0.00    +0.090 C 
ATOM     33  S   UNL     1      -0.646  -9.517  -1.612  0.00  0.00    -0.127 S 
ENDBRANCH  26  33
ENDBRANCH  22  31
ENDBRANCH  21  23
ENDBRANCH  20  21
ENDBRANCH   1  20
TORSDOF 8
