REMARK  Name = ZINC39326825
REMARK  10 active torsions:
REMARK  status: ('A' for Active; 'I' for Inactive)
REMARK    1  A    between atoms: C_1  and  O_2
REMARK    2  A    between atoms: O_2  and  C_3
REMARK    3  A    between atoms: C_6  and  C_9
REMARK    4  A    between atoms: N_12  and  C_32
REMARK    5  A    between atoms: C_17  and  N_31
REMARK    6  A    between atoms: C_18  and  C_29
REMARK    7  A    between atoms: C_19  and  C_21
REMARK    8  A    between atoms: C_24  and  O_27
REMARK    9  A    between atoms: O_27  and  C_28
REMARK   10  A    between atoms: C_32  and  C_33
REMARK                            x       y       z     vdW  Elec       q    Type
REMARK                         _______ _______ _______ _____ _____    ______ ____
ROOT
ATOM      1  C   UNL     1       2.492  -2.490  -4.358  0.00  0.00    +0.016 C 
ATOM      2  C   UNL     1       2.629  -3.828  -4.381  0.00  0.00    +0.010 C 
ATOM      3  C   UNL     1       2.019  -4.699  -3.303  0.00  0.00    +0.124 C 
ATOM      4  N   UNL     1       3.009  -5.743  -2.982  0.00  0.00    -0.290 NA
ATOM      5  C   UNL     1       3.252  -6.601  -4.144  0.00  0.00    +0.120 C 
ATOM      6  C   UNL     1       3.677  -5.798  -5.347  0.00  0.00    -0.001 C 
ATOM      7  C   UNL     1       3.376  -4.503  -5.462  0.00  0.00    +0.136 C 
ATOM      8  O   UNL     1       3.742  -3.776  -6.547  0.00  0.00    -0.441 OA
ATOM      9  C   UNL     1       4.042  -4.396  -7.701  0.00  0.00    +0.199 C 
ATOM     10  C   UNL     1       4.388  -5.708  -7.717  0.00  0.00    +0.098 C 
ATOM     11  C   UNL     1       4.453  -6.500  -6.436  0.00  0.00    +0.095 C 
ENDROOT
BRANCH   1  15
ATOM     12  C   UNL     1      -0.068  -0.668  -1.504  0.00  0.00    +0.120 A 
ATOM     13  C   UNL     1       1.079  -0.008  -1.927  0.00  0.00    +0.046 A 
ATOM     14  C   UNL     1       1.914  -0.595  -2.853  0.00  0.00    +0.011 A 
ATOM     15  C   UNL     1       1.604  -1.858  -3.368  0.00  0.00    -0.024 A 
ATOM     16  C   UNL     1       0.448  -2.518  -2.939  0.00  0.00    +0.011 A 
ATOM     17  C   UNL     1      -0.377  -1.925  -2.009  0.00  0.00    +0.046 A 
BRANCH  12  19
ATOM     18  C   UNL     1      -0.509   1.208  -0.113  0.00  0.00    +0.277 C 
ATOM     19  O   UNL     1      -0.886  -0.085  -0.591  0.00  0.00    -0.495 OA
ENDBRANCH  12  19
ENDBRANCH   1  15
BRANCH  11  20
ATOM     20  C   UNL     1       5.888  -6.658  -6.003  0.00  0.00    -0.035 A 
ATOM     21  C   UNL     1       6.646  -5.540  -5.708  0.00  0.00    +0.008 A 
ATOM     22  C   UNL     1       7.962  -5.682  -5.312  0.00  0.00    +0.046 A 
ATOM     23  C   UNL     1       8.522  -6.947  -5.208  0.00  0.00    +0.120 A 
ATOM     24  C   UNL     1       7.758  -8.067  -5.503  0.00  0.00    +0.046 A 
ATOM     25  C   UNL     1       6.441  -7.920  -5.895  0.00  0.00    +0.008 A 
BRANCH  23  26
ATOM     26  O   UNL     1       9.816  -7.090  -4.819  0.00  0.00    -0.495 OA
ATOM     27  C   UNL     1      10.325  -8.422  -4.734  0.00  0.00    +0.277 C 
ENDBRANCH  23  26
ENDBRANCH  11  20
BRANCH   9  28
ATOM     28  N   UNL     1       3.997  -3.693  -8.879  0.00  0.00    -0.328 N 
ATOM     29  H   UNL     1       3.750  -2.755  -8.875  0.00  0.00    +0.145 HD
ATOM     30  H   UNL     1       4.213  -4.134  -9.716  0.00  0.00    +0.145 HD
ENDBRANCH   9  28
BRANCH  10  31
ATOM     31  C   UNL     1       4.702  -6.343  -8.961  0.00  0.00    +0.101 C 
ATOM     32  N   UNL     1       4.952  -6.846  -9.948  0.00  0.00    -0.191 NA
ENDBRANCH  10  31
BRANCH   4  33
ATOM     33  C   UNL     1       2.581  -6.536  -1.822  0.00  0.00    +0.120 C 
BRANCH  33  34
ATOM     34  C   UNL     1       2.570  -5.664  -0.594  0.00  0.00    -0.033 A 
ATOM     35  C   UNL     1       3.705  -5.553   0.186  0.00  0.00    +0.005 A 
ATOM     36  C   UNL     1       3.695  -4.753   1.313  0.00  0.00    +0.000 A 
ATOM     37  C   UNL     1       2.549  -4.063   1.660  0.00  0.00    +0.000 A 
ATOM     38  C   UNL     1       1.413  -4.173   0.880  0.00  0.00    +0.000 A 
ATOM     39  C   UNL     1       1.425  -4.970  -0.250  0.00  0.00    +0.005 A 
ENDBRANCH  33  34
ENDBRANCH   4  33
TORSDOF 8
