REMARK  Name = ZINC40529985
REMARK  15 active torsions:
REMARK  status: ('A' for Active; 'I' for Inactive)
REMARK    1  A    between atoms: C_1  and  C_2
REMARK    2  A    between atoms: C_2  and  C_3
REMARK    3  A    between atoms: C_3  and  C_4
REMARK    4  A    between atoms: C_4  and  C_5
REMARK    5  A    between atoms: C_5  and  O_6
REMARK    6  A    between atoms: O_6  and  C_7
REMARK    7  A    between atoms: C_11  and  C_13
REMARK    8  A    between atoms: C_18  and  O_27
REMARK    9  A    between atoms: C_22  and  N_26
REMARK   10  A    between atoms: C_23  and  C_24
REMARK   11  A    between atoms: O_27  and  C_28
REMARK   12  A    between atoms: C_28  and  C_30
REMARK   13  A    between atoms: C_30  and  O_31
REMARK   14  A    between atoms: O_31  and  C_32
REMARK   15  A    between atoms: C_36  and  C_38
REMARK                            x       y       z     vdW  Elec       q    Type
REMARK                         _______ _______ _______ _____ _____    ______ ____
ROOT
ATOM      1  C   UNL     1      -5.428  -8.176  -0.006  0.00  0.00    +0.098 C 
ATOM      2  C   UNL     1      -6.127  -8.650   1.240  0.00  0.00    +0.008 A 
ATOM      3  C   UNL     1      -5.423  -8.725   2.429  0.00  0.00    +0.012 A 
ATOM      4  C   UNL     1      -6.049  -9.157   3.582  0.00  0.00    +0.047 A 
ATOM      5  C   UNL     1      -7.388  -9.518   3.550  0.00  0.00    +0.135 A 
ATOM      6  C   UNL     1      -8.096  -9.444   2.362  0.00  0.00    +0.093 A 
ATOM      7  C   UNL     1      -7.466  -9.008   1.203  0.00  0.00    +0.138 A 
ATOM      8  O   UNL     1      -8.172  -8.942   0.048  0.00  0.00    -0.441 OA
ATOM      9  C   UNL     1      -7.528  -8.906  -1.131  0.00  0.00    +0.199 C 
ATOM     10  C   UNL     1      -6.228  -8.550  -1.222  0.00  0.00    +0.098 C 
ENDROOT
BRANCH   1  15
ATOM     11  C   UNL     1      -3.870  -4.734   0.067  0.00  0.00    +0.121 A 
ATOM     12  C   UNL     1      -4.995  -3.925   0.147  0.00  0.00    +0.045 A 
ATOM     13  C   UNL     1      -6.253  -4.495   0.176  0.00  0.00    +0.004 A 
ATOM     14  C   UNL     1      -6.392  -5.870   0.126  0.00  0.00    +0.005 A 
ATOM     15  C   UNL     1      -5.273  -6.678   0.047  0.00  0.00    -0.031 A 
ATOM     16  C   UNL     1      -4.012  -6.113   0.012  0.00  0.00    +0.050 A 
BRANCH  11  17
ATOM     17  O   UNL     1      -2.631  -4.176   0.038  0.00  0.00    -0.492 OA
BRANCH  17  18
ATOM     18  C   UNL     1      -2.561  -2.750   0.098  0.00  0.00    +0.229 C 
BRANCH  18  19
ATOM     19  C   UNL     1      -1.096  -2.309   0.054  0.00  0.00    +0.041 C 
BRANCH  19  20
ATOM     20  C   UNL     1      -1.020  -0.783   0.118  0.00  0.00    +0.003 C 
BRANCH  20  22
ATOM     21  C   UNL     1       0.520   1.184   0.138  0.00  0.00    +0.004 C 
ATOM     22  C   UNL     1       0.444  -0.342   0.074  0.00  0.00    -0.003 C 
ENDBRANCH  20  22
ENDBRANCH  19  20
ENDBRANCH  18  19
ENDBRANCH  17  18
ENDBRANCH  11  17
ENDBRANCH   1  15
BRANCH   9  23
ATOM     23  N   UNL     1      -8.210  -9.240  -2.273  0.00  0.00    -0.328 N 
ATOM     24  H   UNL     1      -9.145  -9.497  -2.223  0.00  0.00    +0.145 HD
ATOM     25  H   UNL     1      -7.759  -9.219  -3.132  0.00  0.00    +0.145 HD
ENDBRANCH   9  23
BRANCH  10  26
ATOM     26  C   UNL     1      -5.600  -8.531  -2.509  0.00  0.00    +0.101 C 
ATOM     27  N   UNL     1      -5.101  -8.515  -3.530  0.00  0.00    -0.191 NA
ENDBRANCH  10  26
BRANCH   5  28
ATOM     28  O   UNL     1      -8.005  -9.945   4.684  0.00  0.00    -0.423 OA
BRANCH  28  29
ATOM     29  C   UNL     1      -8.363 -11.237   4.760  0.00  0.00    +0.350 C 
ATOM     30  O   UNL     1      -8.043 -12.004   3.883  0.00  0.00    -0.247 OA
BRANCH  29  31
ATOM     31  C   UNL     1      -9.163 -11.729   5.938  0.00  0.00    +0.349 C 
BRANCH  31  32
ATOM     32  O   UNL     1      -9.417 -13.128   5.789  0.00  0.00    -0.481 OA
BRANCH  32  33
ATOM     33  C   UNL     1     -10.133 -13.732   6.774  0.00  0.00    +0.122 A 
ATOM     34  C   UNL     1     -10.586 -12.994   7.857  0.00  0.00    +0.045 A 
ATOM     35  C   UNL     1     -11.314 -13.611   8.856  0.00  0.00    +0.004 A 
ATOM     36  C   UNL     1     -11.591 -14.963   8.777  0.00  0.00    +0.003 A 
ATOM     37  C   UNL     1     -11.139 -15.702   7.699  0.00  0.00    -0.047 A 
ATOM     38  C   UNL     1     -10.416 -15.088   6.694  0.00  0.00    +0.049 A 
ATOM     39  C   UNL     1     -11.442 -17.176   7.616  0.00  0.00    +0.044 C 
ENDBRANCH  32  33
ENDBRANCH  31  32
ENDBRANCH  29  31
ENDBRANCH  28  29
ENDBRANCH   5  28
TORSDOF 13
