REMARK  Name = ZINC62577323
REMARK  6 active torsions:
REMARK  status: ('A' for Active; 'I' for Inactive)
REMARK    1  A    between atoms: C_4  and  C_7
REMARK    2  A    between atoms: C_10  and  C_13
REMARK    3  A    between atoms: C_13  and  N_14
REMARK    4  A    between atoms: C_17  and  C_31
REMARK    5  A    between atoms: C_22  and  C_24
REMARK    6  A    between atoms: C_24  and  N_25
REMARK                            x       y       z     vdW  Elec       q    Type
REMARK                         _______ _______ _______ _____ _____    ______ ____
ROOT
ATOM      1  N   UNL     1       7.565  -3.330   0.009  0.00  0.00    -0.321 N 
ATOM      2  C   UNL     1       8.348  -4.460  -0.145  0.00  0.00    +0.132 A 
ATOM      3  C   UNL     1       9.502  -4.427  -0.972  0.00  0.00    +0.056 A 
ATOM      4  C   UNL     1      10.058  -3.325  -1.752  0.00  0.00    +0.008 A 
ATOM      5  C   UNL     1      11.186  -3.541  -2.472  0.00  0.00    +0.057 A 
ATOM      6  S   UNL     1      11.569  -5.250  -2.142  0.00  0.00    -0.076 S 
ATOM      7  C   UNL     1      10.222  -5.636  -1.055  0.00  0.00    +0.114 A 
ATOM      8  N   UNL     1       9.834  -6.714  -0.401  0.00  0.00    -0.223 NA
ATOM      9  C   UNL     1       8.752  -6.684   0.352  0.00  0.00    +0.146 A 
ATOM     10  N   UNL     1       8.032  -5.583   0.480  0.00  0.00    -0.216 NA
ATOM     11  H   UNL     1       7.850  -2.486  -0.376  0.00  0.00    +0.148 HD
ENDROOT
BRANCH   4  12
ATOM     12  C   UNL     1       9.403  -2.000  -1.756  0.00  0.00    +0.021 A 
ATOM     13  C   UNL     1       9.915  -0.783  -1.391  0.00  0.00    +0.016 A 
ATOM     14  C   UNL     1       9.105   0.329  -1.481  0.00  0.00    +0.008 A 
ATOM     15  C   UNL     1       7.832   0.186  -1.928  0.00  0.00    +0.046 A 
ATOM     16  S   UNL     1       7.742  -1.568  -2.247  0.00  0.00    -0.097 S 
ENDBRANCH   4  12
BRANCH   1  17
ATOM     17  C   UNL     1       6.306  -3.407   0.755  0.00  0.00    +0.175 C 
BRANCH  17  21
ATOM     18  C   UNL     1       4.159  -0.451   0.948  0.00  0.00    +0.064 A 
ATOM     19  C   UNL     1       5.373   0.089   0.657  0.00  0.00    +0.110 A 
ATOM     20  N   UNL     1       6.256  -0.913   0.560  0.00  0.00    -0.348 N 
ATOM     21  C   UNL     1       5.652  -2.050   0.777  0.00  0.00    +0.102 A 
ATOM     22  N   UNL     1       4.346  -1.813   1.028  0.00  0.00    -0.342 N 
ATOM     23  H   UNL     1       3.667  -2.477   1.225  0.00  0.00    +0.167 HD
ATOM     24  H   UNL     1       7.199  -0.809   0.360  0.00  0.00    +0.166 HD
BRANCH  18  28
ATOM     25  C   UNL     1       0.512   1.652   1.516  0.00  0.00    +0.000 A 
ATOM     26  C   UNL     1       1.669   2.348   1.218  0.00  0.00    +0.001 A 
ATOM     27  C   UNL     1       2.857   1.671   1.032  0.00  0.00    +0.010 A 
ATOM     28  C   UNL     1       2.889   0.281   1.146  0.00  0.00    -0.000 A 
ATOM     29  C   UNL     1       1.718  -0.416   1.448  0.00  0.00    +0.010 A 
ATOM     30  C   UNL     1       0.537   0.273   1.631  0.00  0.00    +0.001 A 
ENDBRANCH  18  28
ENDBRANCH  17  21
ENDBRANCH   1  17
BRANCH   9  31
ATOM     31  C   UNL     1       8.330  -7.930   1.087  0.00  0.00    +0.160 C 
BRANCH  31  32
ATOM     32  N   UNL     1       8.961  -7.953   2.414  0.00  0.00    -0.291 NA
ATOM     33  C   UNL     1      10.420  -8.098   2.301  0.00  0.00    +0.113 C 
ATOM     34  C   UNL     1      11.041  -8.057   3.700  0.00  0.00    +0.175 C 
ATOM     35  O   UNL     1      10.455  -9.083   4.506  0.00  0.00    -0.377 OA
ATOM     36  C   UNL     1       9.036  -8.972   4.638  0.00  0.00    +0.175 C 
ATOM     37  C   UNL     1       8.394  -9.022   3.248  0.00  0.00    +0.113 C 
ENDBRANCH  31  32
ENDBRANCH   9  31
TORSDOF 6
