REMARK  Name = ZINC64338126
REMARK  10 active torsions:
REMARK  status: ('A' for Active; 'I' for Inactive)
REMARK    1  A    between atoms: C_1  and  C_2
REMARK    2  A    between atoms: C_4  and  C_12
REMARK    3  A    between atoms: C_18  and  C_20
REMARK    4  A    between atoms: C_20  and  C_22
REMARK    5  A    between atoms: C_20  and  N_25
REMARK    6  A    between atoms: C_22  and  C_23
REMARK    7  A    between atoms: C_22  and  C_24
REMARK    8  A    between atoms: C_26  and  C_28
REMARK    9  A    between atoms: C_31  and  O_34
REMARK   10  A    between atoms: O_34  and  C_35
REMARK                            x       y       z     vdW  Elec       q    Type
REMARK                         _______ _______ _______ _____ _____    ______ ____
ROOT
ATOM      1  C   UNL     1      -2.204  -1.744  -2.220  0.00  0.00    +0.079 A 
ATOM      2  C   UNL     1      -3.513  -1.926  -1.792  0.00  0.00    +0.076 A 
ATOM      3  S   UNL     1      -4.366  -0.847  -2.762  0.00  0.00    -0.060 S 
ATOM      4  C   UNL     1      -2.994  -0.193  -3.695  0.00  0.00    +0.165 A 
ATOM      5  N   UNL     1      -1.973  -0.849  -3.188  0.00  0.00    -0.225 NA
ATOM      6  N   UNL     1      -3.001   0.768  -4.696  0.00  0.00    -0.263 N 
ATOM      7  C   UNL     1      -4.163   1.336  -5.077  0.00  0.00    +0.239 C 
ATOM      8  O   UNL     1      -5.188   1.077  -4.482  0.00  0.00    -0.273 OA
ATOM      9  H   UNL     1      -2.171   1.031  -5.122  0.00  0.00    +0.157 HD
ENDROOT
BRANCH   1  12
ATOM     10  C   UNL     1      -2.064  -4.758  -1.212  0.00  0.00    +0.035 C 
ATOM     11  C   UNL     1      -1.254  -3.597  -0.632  0.00  0.00    +0.109 C 
ATOM     12  C   UNL     1      -1.146  -2.480  -1.645  0.00  0.00    +0.009 C 
ATOM     13  C   UNL     1       0.216  -2.328  -1.892  0.00  0.00    +0.005 A 
ATOM     14  C   UNL     1       0.941  -1.456  -2.735  0.00  0.00    +0.010 A 
ATOM     15  C   UNL     1       2.295  -1.532  -2.777  0.00  0.00    +0.001 A 
ATOM     16  C   UNL     1       3.000  -2.457  -2.003  0.00  0.00    +0.002 A 
ATOM     17  C   UNL     1       2.370  -3.324  -1.173  0.00  0.00    +0.026 A 
ATOM     18  C   UNL     1       0.955  -3.304  -1.075  0.00  0.00    +0.043 A 
ATOM     19  N   UNL     1       0.119  -4.029  -0.354  0.00  0.00    -0.377 N 
ATOM     20  H   UNL     1       0.373  -4.735   0.261  0.00  0.00    +0.160 HD
ENDBRANCH   1  12
BRANCH   7  21
ATOM     21  C   UNL     1      -4.188   2.291  -6.242  0.00  0.00    +0.162 C 
BRANCH  21  22
ATOM     22  N   UNL     1      -5.512   2.262  -6.868  0.00  0.00    -0.300 N 
ATOM     23  C   UNL     1      -5.652   2.606  -8.164  0.00  0.00    +0.245 C 
ATOM     24  O   UNL     1      -4.679   2.941  -8.813  0.00  0.00    -0.270 OA
ATOM     25  H   UNL     1      -6.288   1.996  -6.351  0.00  0.00    +0.150 HD
BRANCH  23  26
ATOM     26  C   UNL     1      -6.986   2.577  -8.796  0.00  0.00    +0.037 A 
ATOM     27  C   UNL     1      -8.105   2.199  -8.050  0.00  0.00    +0.016 A 
ATOM     28  C   UNL     1      -9.348   2.173  -8.643  0.00  0.00    +0.046 A 
ATOM     29  C   UNL     1      -9.489   2.523  -9.981  0.00  0.00    +0.120 A 
ATOM     30  C   UNL     1      -8.378   2.900 -10.726  0.00  0.00    +0.046 A 
ATOM     31  C   UNL     1      -7.133   2.933 -10.139  0.00  0.00    +0.016 A 
BRANCH  29  32
ATOM     32  O   UNL     1     -10.716   2.495 -10.561  0.00  0.00    -0.495 OA
ATOM     33  C   UNL     1     -10.789   2.866 -11.939  0.00  0.00    +0.277 C 
ENDBRANCH  29  32
ENDBRANCH  23  26
ENDBRANCH  21  22
BRANCH  21  34
ATOM     34  C   UNL     1      -3.889   3.708  -5.746  0.00  0.00    +0.012 C 
ATOM     35  C   UNL     1      -2.536   3.723  -5.032  0.00  0.00    +0.009 C 
ATOM     36  C   UNL     1      -3.849   4.667  -6.937  0.00  0.00    +0.009 C 
ENDBRANCH  21  34
ENDBRANCH   7  21
TORSDOF 6
