REMARK  Name = ZINC23667497
REMARK  8 active torsions:
REMARK  status: ('A' for Active; 'I' for Inactive)
REMARK    1  A    between atoms: C_1  and  C_2
REMARK    2  A    between atoms: C_2  and  C_4
REMARK    3  A    between atoms: C_2  and  N_12
REMARK    4  A    between atoms: N_12  and  C_13
REMARK    5  A    between atoms: N_12  and  C_14
REMARK    6  A    between atoms: C_14  and  C_15
REMARK    7  A    between atoms: C_24  and  O_26
REMARK    8  A    between atoms: O_26  and  C_27
REMARK                            x       y       z     vdW  Elec       q    Type
REMARK                         _______ _______ _______ _____ _____    ______ ____
ROOT
ATOM      1  C   UNL     1      -1.280  -0.796   0.009  0.00  0.00    -0.042 C 
ENDROOT
BRANCH   1   2
ATOM      2  C   UNL     1       0.002  -0.004   0.002  0.00  0.00    -0.047 A 
ATOM      3  C   UNL     1      -0.016   1.354   0.009  0.00  0.00    +0.094 A 
ATOM      4  C   UNL     1       1.197   2.072   0.002  0.00  0.00    +0.337 A 
ATOM      5  O   UNL     1       1.166   3.290   0.008  0.00  0.00    -0.245 OA
ATOM      6  O   UNL     1       2.385   1.448  -0.013  0.00  0.00    -0.422 OA
ATOM      7  C   UNL     1       2.474   0.101  -0.021  0.00  0.00    +0.143 A 
ATOM      8  C   UNL     1       1.302  -0.678  -0.014  0.00  0.00    +0.019 A 
ATOM      9  C   UNL     1       1.389  -2.075  -0.023  0.00  0.00    +0.015 A 
ATOM     10  C   UNL     1       2.614  -2.678  -0.038  0.00  0.00    +0.046 A 
ATOM     11  C   UNL     1       3.778  -1.911  -0.045  0.00  0.00    +0.124 A 
ATOM     12  C   UNL     1       3.710  -0.527  -0.036  0.00  0.00    +0.092 A 
BRANCH  11  13
ATOM     13  O   UNL     1       4.988  -2.526  -0.059  0.00  0.00    -0.495 OA
ATOM     14  C   UNL     1       4.990  -3.955  -0.067  0.00  0.00    +0.277 C 
ENDBRANCH  11  13
ENDBRANCH   1   2
BRANCH   1  15
ATOM     15  N   UNL     1      -1.558  -1.265   1.374  0.00  0.00    +0.385 N 
ATOM     16  C   UNL     1      -1.839  -0.136   2.272  0.00  0.00    -0.095 C 
ATOM     17  H   UNL     1      -0.658  -1.776   1.745  0.00  0.00    -0.081 HD
BRANCH  15  19
ATOM     18  C   UNL     1      -2.294  -3.437   0.515  0.00  0.00    -0.008 C 
ATOM     19  C   UNL     1      -2.664  -2.232   1.383  0.00  0.00    -0.041 C 
BRANCH  19  20
ATOM     20  C   UNL     1      -2.919  -2.690   2.796  0.00  0.00    -0.058 A 
ATOM     21  C   UNL     1      -4.216  -2.867   3.240  0.00  0.00    +0.005 A 
ATOM     22  C   UNL     1      -4.453  -3.287   4.535  0.00  0.00    +0.041 A 
ATOM     23  C   UNL     1      -3.391  -3.531   5.389  0.00  0.00    +0.158 A 
ATOM     24  C   UNL     1      -2.090  -3.354   4.943  0.00  0.00    +0.159 A 
ATOM     25  C   UNL     1      -1.856  -2.938   3.644  0.00  0.00    +0.043 A 
ATOM     26  F   UNL     1      -1.052  -3.592   5.774  0.00  0.00    -0.202 F 
ATOM     27  F   UNL     1      -3.622  -3.942   6.655  0.00  0.00    -0.202 F 
ENDBRANCH  19  20
ENDBRANCH  15  19
ENDBRANCH   1  15
TORSDOF 5
