REMARK  Name = ZINC02861414
REMARK  7 active torsions:
REMARK  status: ('A' for Active; 'I' for Inactive)
REMARK    1  A    between atoms: C_1  and  C_2
REMARK    2  A    between atoms: N_8  and  C_9
REMARK    3  A    between atoms: C_9  and  N_11
REMARK    4  A    between atoms: C_12  and  C_14
REMARK    5  A    between atoms: C_18  and  C_22
REMARK    6  A    between atoms: C_19  and  O_20
REMARK    7  A    between atoms: O_20  and  C_21
REMARK                            x       y       z     vdW  Elec       q    Type
REMARK                         _______ _______ _______ _____ _____    ______ ____
ROOT
ATOM      1  N   UNL     1       3.587   4.089  -0.018  0.00  0.00    -0.263 N 
ATOM      2  C   UNL     1       2.409   4.744  -0.008  0.00  0.00    +0.253 C 
ATOM      3  O   UNL     1       2.389   5.959  -0.001  0.00  0.00    -0.270 OA
ATOM      4  H   UNL     1       3.603   3.119  -0.023  0.00  0.00    +0.157 HD
ENDROOT
BRANCH   2   5
ATOM      5  C   UNL     1       1.144   3.985  -0.005  0.00  0.00    +0.080 A 
ATOM      6  C   UNL     1       1.163   2.588  -0.013  0.00  0.00    +0.032 A 
ATOM      7  C   UNL     1      -0.023   1.885  -0.011  0.00  0.00    +0.019 A 
ATOM      8  C   UNL     1      -1.235   2.559  -0.005  0.00  0.00    +0.022 A 
ATOM      9  C   UNL     1      -1.267   3.939   0.008  0.00  0.00    -0.007 A 
ATOM     10  C   UNL     1      -0.083   4.662   0.005  0.00  0.00    +0.135 A 
ATOM     11  C   UNL     1      -2.590   4.661   0.020  0.00  0.00    +0.047 C 
ATOM     12 BR   UNL     1       0.003  -0.005  -0.022  0.00  0.00    -0.050 Br
BRANCH  10  13
ATOM     13  O   UNL     1      -0.114   6.018   0.014  0.00  0.00    -0.494 OA
ATOM     14  C   UNL     1      -0.135   6.674  -1.256  0.00  0.00    +0.277 C 
ENDBRANCH  10  13
ENDBRANCH   2   5
BRANCH   1  15
ATOM     15  C   UNL     1       4.743   4.782  -0.020  0.00  0.00    +0.142 C 
ATOM     16  S   UNL     1       4.715   6.494  -0.010  0.00  0.00    -0.018 S 
BRANCH  15  24
ATOM     17  C   UNL     1      10.818   4.170  -0.515  0.00  0.00    +0.044 C 
ATOM     18  C   UNL     1       9.493   4.875  -0.378  0.00  0.00    -0.046 A 
ATOM     19  C   UNL     1       9.425   6.262  -0.360  0.00  0.00    +0.023 A 
ATOM     20  C   UNL     1       8.195   6.877  -0.233  0.00  0.00    +0.113 A 
ATOM     21  N   UNL     1       7.090   6.164  -0.130  0.00  0.00    -0.240 NA
ATOM     22  C   UNL     1       7.113   4.841  -0.142  0.00  0.00    +0.124 A 
ATOM     23  C   UNL     1       8.317   4.155  -0.261  0.00  0.00    +0.047 A 
ATOM     24  N   UNL     1       5.921   4.128  -0.030  0.00  0.00    -0.282 N 
ATOM     25  H   UNL     1       5.939   3.161   0.041  0.00  0.00    +0.155 HD
ENDBRANCH  15  24
ENDBRANCH   1  15
TORSDOF 4
