REMARK  Name = ZINC16267232
REMARK  6 active torsions:
REMARK  status: ('A' for Active; 'I' for Inactive)
REMARK    1  A    between atoms: C_1  and  C_2
REMARK    2  A    between atoms: C_9  and  C_11
REMARK    3  A    between atoms: C_11  and  N_12
REMARK    4  A    between atoms: C_14  and  C_21
REMARK    5  A    between atoms: N_28  and  C_31
REMARK    6  A    between atoms: C_31  and  C_32
REMARK                            x       y       z     vdW  Elec       q    Type
REMARK                         _______ _______ _______ _____ _____    ______ ____
ROOT
ATOM      1  N   UNL     1       1.990   5.872   1.852  0.00  0.00    -0.337 N 
ATOM      2  C   UNL     1       1.119   4.851   1.948  0.00  0.00    +0.095 A 
ATOM      3  C   UNL     1       0.293   5.050   3.041  0.00  0.00    +0.001 A 
ATOM      4  C   UNL     1       0.731   6.317   3.661  0.00  0.00    +0.007 A 
ATOM      5  C   UNL     1       1.794   6.782   2.872  0.00  0.00    +0.050 A 
ATOM      6  C   UNL     1       2.423   7.975   3.211  0.00  0.00    +0.026 A 
ATOM      7  C   UNL     1       2.000   8.686   4.314  0.00  0.00    +0.002 A 
ATOM      8  C   UNL     1       0.949   8.225   5.091  0.00  0.00    +0.001 A 
ATOM      9  C   UNL     1       0.313   7.045   4.770  0.00  0.00    +0.010 A 
ENDROOT
BRANCH   3  10
ATOM     10  C   UNL     1      -0.751   4.209   3.478  0.00  0.00    +0.028 C 
ATOM     11  C   UNL     1      -0.538   2.842   3.598  0.00  0.00    +0.100 C 
ATOM     12  C   UNL     1      -1.650   1.910   3.854  0.00  0.00    +0.257 C 
ATOM     13  O   UNL     1      -2.791   2.316   3.969  0.00  0.00    -0.270 OA
ATOM     14  N   UNL     1      -1.369   0.595   3.959  0.00  0.00    -0.236 N 
ATOM     15  C   UNL     1      -0.116   0.135   3.835  0.00  0.00    +0.316 C 
ATOM     16  O   UNL     1       0.071  -1.061   3.940  0.00  0.00    -0.252 OA
ATOM     17  N   UNL     1       0.942   0.924   3.601  0.00  0.00    -0.217 N 
ATOM     18  C   UNL     1       0.811   2.261   3.479  0.00  0.00    +0.259 C 
ATOM     19  O   UNL     1       1.779   2.968   3.272  0.00  0.00    -0.269 OA
ATOM     20  H   UNL     1      -2.089  -0.032   4.128  0.00  0.00    +0.159 HD
BRANCH  17  21
ATOM     21  C   UNL     1       2.272   0.322   3.482  0.00  0.00    +0.153 C 
BRANCH  21  22
ATOM     22  C   UNL     1       2.533  -0.038   2.042  0.00  0.00    -0.030 A 
ATOM     23  C   UNL     1       2.184  -1.288   1.567  0.00  0.00    +0.005 A 
ATOM     24  C   UNL     1       2.418  -1.617   0.245  0.00  0.00    +0.000 A 
ATOM     25  C   UNL     1       3.012  -0.698  -0.600  0.00  0.00    +0.000 A 
ATOM     26  C   UNL     1       3.366   0.551  -0.125  0.00  0.00    +0.000 A 
ATOM     27  C   UNL     1       3.127   0.881   1.196  0.00  0.00    +0.005 A 
ENDBRANCH  21  22
ENDBRANCH  17  21
ENDBRANCH   3  10
BRANCH   1  28
ATOM     28  C   UNL     1       3.014   5.996   0.811  0.00  0.00    +0.217 C 
BRANCH  28  36
ATOM     29  C   UNL     1       6.406   4.032   2.264  0.00  0.00    +0.028 C 
ATOM     30  C   UNL     1       6.650   4.787   0.956  0.00  0.00    +0.073 C 
ATOM     31  C   UNL     1       7.093   3.802  -0.130  0.00  0.00    +0.022 C 
ATOM     32  C   UNL     1       7.201   4.538  -1.468  0.00  0.00    +0.003 C 
ATOM     33  C   UNL     1       5.832   5.100  -1.855  0.00  0.00    +0.019 C 
ATOM     34  C   UNL     1       5.373   6.095  -0.790  0.00  0.00    +0.108 C 
ATOM     35  N   UNL     1       5.407   5.440   0.524  0.00  0.00    -0.297 N 
ATOM     36  C   UNL     1       4.316   5.432   1.316  0.00  0.00    +0.236 C 
ATOM     37  O   UNL     1       4.383   4.971   2.436  0.00  0.00    -0.274 OA
ENDBRANCH  28  36
ENDBRANCH   1  28
TORSDOF 5
