REMARK  Name = ZINC63907154
REMARK  4 active torsions:
REMARK  status: ('A' for Active; 'I' for Inactive)
REMARK    1  A    between atoms: C_1  and  C_2
REMARK    2  A    between atoms: C_2  and  O_3
REMARK    3  A    between atoms: O_3  and  C_4
REMARK    4  A    between atoms: C_4  and  C_6
REMARK                            x       y       z     vdW  Elec       q    Type
REMARK                         _______ _______ _______ _____ _____    ______ ____
ROOT
ATOM      1  C   UNL     1      -2.881  -2.427   0.017  0.00  0.00    +0.213 C 
ATOM      2  C   UNL     1      -3.607  -2.035   1.284  0.00  0.00    +0.019 C 
ATOM      3  C   UNL     1      -3.892  -3.191   1.925  0.00  0.00    +0.010 A 
ATOM      4  C   UNL     1      -3.381  -4.328   1.127  0.00  0.00    +0.044 A 
ATOM      5  N   UNL     1      -2.802  -3.892   0.032  0.00  0.00    -0.369 N 
ATOM      6  C   UNL     1      -3.582  -5.642   1.631  0.00  0.00    +0.026 A 
ATOM      7  C   UNL     1      -4.221  -5.832   2.805  0.00  0.00    +0.003 A 
ATOM      8  C   UNL     1      -4.714  -4.774   3.579  0.00  0.00    +0.016 A 
ATOM      9  C   UNL     1      -4.577  -3.484   3.191  0.00  0.00    +0.027 A 
ATOM     10 BR   UNL     1      -5.256  -2.081   4.262  0.00  0.00    -0.050 Br
ATOM     11  H   UNL     1      -2.390  -4.444  -0.651  0.00  0.00    +0.161 HD
ENDROOT
BRANCH   1  12
ATOM     12  C   UNL     1      -1.496  -1.832   0.006  0.00  0.00    +0.334 C 
ATOM     13  O   UNL     1      -0.528  -2.555  -0.007  0.00  0.00    -0.248 OA
BRANCH  12  14
ATOM     14  O   UNL     1      -1.339  -0.499   0.012  0.00  0.00    -0.463 OA
BRANCH  14  16
ATOM     15  C   UNL     1      -0.019   1.526   0.010  0.00  0.00    +0.048 C 
ATOM     16  C   UNL     1       0.002  -0.004   0.002  0.00  0.00    +0.229 C 
ENDBRANCH  14  16
ENDBRANCH  12  14
ENDBRANCH   1  12
TORSDOF 3
