REMARK  Name = ZINC65020921
REMARK  8 active torsions:
REMARK  status: ('A' for Active; 'I' for Inactive)
REMARK    1  A    between atoms: C_1  and  C_2
REMARK    2  A    between atoms: C_6  and  C_28
REMARK    3  A    between atoms: C_6  and  C_29
REMARK    4  A    between atoms: C_11  and  S_13
REMARK    5  A    between atoms: S_13  and  N_16
REMARK    6  A    between atoms: N_16  and  C_17
REMARK    7  A    between atoms: C_20  and  O_23
REMARK    8  A    between atoms: O_23  and  C_24
REMARK                            x       y       z     vdW  Elec       q    Type
REMARK                         _______ _______ _______ _____ _____    ______ ____
ROOT
ATOM      1  S   UNL     1       0.542   1.162  -6.664  0.00  0.00    +0.072 S 
ATOM      2  O   UNL     1      -0.012   0.041  -7.339  0.00  0.00    -0.150 OA
ATOM      3  O   UNL     1      -0.009   2.467  -6.775  0.00  0.00    -0.150 OA
ENDROOT
BRANCH   1  14
ATOM      4  C   UNL     1       0.656  -0.333   1.526  0.00  0.00    +0.109 C 
ATOM      5  C   UNL     1       0.503   0.335   0.184  0.00  0.00    +0.217 C 
ATOM      6  O   UNL     1       0.305   1.530   0.120  0.00  0.00    -0.276 OA
ATOM      7  N   UNL     1       0.586  -0.395  -0.946  0.00  0.00    -0.271 N 
ATOM      8  C   UNL     1       0.710  -1.854  -0.996  0.00  0.00    +0.124 C 
ATOM      9  C   UNL     1       0.768  -2.203  -2.492  0.00  0.00    +0.008 C 
ATOM     10  C   UNL     1       0.669  -0.870  -3.198  0.00  0.00    -0.017 A 
ATOM     11  C   UNL     1       0.561   0.129  -2.242  0.00  0.00    +0.040 A 
ATOM     12  C   UNL     1       0.450   1.456  -2.659  0.00  0.00    +0.026 A 
ATOM     13  C   UNL     1       0.445   1.766  -4.002  0.00  0.00    +0.030 A 
ATOM     14  C   UNL     1       0.549   0.762  -4.948  0.00  0.00    +0.109 A 
ATOM     15  C   UNL     1       0.668  -0.554  -4.543  0.00  0.00    +0.034 A 
ATOM     16  C   UNL     1       2.093  -2.889  -2.829  0.00  0.00    +0.017 C 
ATOM     17  C   UNL     1      -0.411  -3.099  -2.877  0.00  0.00    +0.017 C 
ENDBRANCH   1  14
BRANCH   1  18
ATOM     18  N   UNL     1       2.122   1.273  -7.148  0.00  0.00    -0.216 N 
ATOM     19  H   UNL     1       2.469   0.660  -7.814  0.00  0.00    +0.174 HD
BRANCH  18  20
ATOM     20  C   UNL     1       2.956   2.251  -6.595  0.00  0.00    +0.048 A 
ATOM     21  C   UNL     1       2.499   3.555  -6.455  0.00  0.00    +0.028 A 
ATOM     22  C   UNL     1       3.323   4.520  -5.909  0.00  0.00    +0.048 A 
ATOM     23  C   UNL     1       4.606   4.187  -5.500  0.00  0.00    +0.130 A 
ATOM     24  C   UNL     1       5.063   2.885  -5.640  0.00  0.00    +0.048 A 
ATOM     25  C   UNL     1       4.238   1.917  -6.181  0.00  0.00    +0.028 A 
BRANCH  23  26
ATOM     26  O   UNL     1       5.416   5.138  -4.962  0.00  0.00    -0.406 OA
BRANCH  26  27
ATOM     27  C   UNL     1       6.724   4.724  -4.563  0.00  0.00    +0.575 C 
ATOM     28  F   UNL     1       7.415   4.226  -5.673  0.00  0.00    -0.133 F 
ATOM     29  F   UNL     1       7.418   5.819  -4.035  0.00  0.00    -0.133 F 
ATOM     30  F   UNL     1       6.621   3.724  -3.590  0.00  0.00    -0.133 F 
ENDBRANCH  26  27
ENDBRANCH  23  26
ENDBRANCH  18  20
ENDBRANCH   1  18
TORSDOF 5
