REMARK  Name = ZINC05237221
REMARK  7 active torsions:
REMARK  status: ('A' for Active; 'I' for Inactive)
REMARK    1  A    between atoms: C_1  and  O_2
REMARK    2  A    between atoms: O_2  and  C_3
REMARK    3  A    between atoms: C_12  and  C_13
REMARK    4  A    between atoms: N_14  and  N_15
REMARK    5  A    between atoms: N_15  and  C_16
REMARK    6  A    between atoms: C_16  and  N_18
REMARK    7  A    between atoms: N_18  and  C_19
REMARK                            x       y       z     vdW  Elec       q    Type
REMARK                         _______ _______ _______ _____ _____    ______ ____
ROOT
ATOM      1  C   UNL     1      -1.461   6.051   0.088  0.00  0.00    +0.142 C 
ATOM      2  N   UNL     1      -1.425   7.350   0.074  0.00  0.00    -0.188 NA
ENDROOT
BRANCH   1  12
ATOM      3  C   UNL     1       0.881   5.923  -0.746  0.00  0.00    +0.129 A 
ATOM      4  C   UNL     1       1.995   5.184  -1.143  0.00  0.00    +0.047 A 
ATOM      5  C   UNL     1       1.990   3.825  -1.141  0.00  0.00    +0.012 A 
ATOM      6  C   UNL     1       0.849   3.110  -0.734  0.00  0.00    -0.017 A 
ATOM      7  C   UNL     1       0.833   1.705  -0.729  0.00  0.00    +0.008 A 
ATOM      8  C   UNL     1      -0.290   1.046  -0.329  0.00  0.00    +0.001 A 
ATOM      9  C   UNL     1      -1.427   1.744   0.071  0.00  0.00    +0.001 A 
ATOM     10  C   UNL     1      -1.444   3.107   0.083  0.00  0.00    +0.009 A 
ATOM     11  C   UNL     1      -0.307   3.816  -0.322  0.00  0.00    -0.006 A 
ATOM     12  C   UNL     1      -0.283   5.278  -0.331  0.00  0.00    +0.044 A 
BRANCH   3  14
ATOM     13  C   UNL     1       2.153   7.878  -1.201  0.00  0.00    +0.277 C 
ATOM     14  O   UNL     1       0.931   7.280  -0.764  0.00  0.00    -0.494 OA
ENDBRANCH   3  14
ENDBRANCH   1  12
BRANCH   2  15
ATOM     15  N   UNL     1      -2.547   8.086   0.474  0.00  0.00    -0.218 N 
ATOM     16  H   UNL     1      -3.460   7.565   0.799  0.00  0.00    +0.176 HD
BRANCH  15  17
ATOM     17  C   UNL     1      -2.509   9.434   0.459  0.00  0.00    +0.154 C 
ATOM     18  S   UNL     1      -3.881  10.334   0.948  0.00  0.00    -0.017 S 
BRANCH  17  19
ATOM     19  N   UNL     1      -1.391  10.072   0.061  0.00  0.00    -0.296 N 
ATOM     20  H   UNL     1      -0.487   9.496  -0.186  0.00  0.00    +0.154 HD
BRANCH  19  21
ATOM     21  C   UNL     1      -1.381  11.467  -0.039  0.00  0.00    +0.033 A 
ATOM     22  C   UNL     1      -0.826  12.081  -1.155  0.00  0.00    +0.023 A 
ATOM     23  C   UNL     1      -0.822  13.458  -1.253  0.00  0.00    +0.002 A 
ATOM     24  C   UNL     1      -1.360  14.227  -0.237  0.00  0.00    +0.000 A 
ATOM     25  C   UNL     1      -1.908  13.619   0.877  0.00  0.00    +0.002 A 
ATOM     26  C   UNL     1      -1.920  12.242   0.979  0.00  0.00    +0.023 A 
ENDBRANCH  19  21
ENDBRANCH  17  19
ENDBRANCH  15  17
ENDBRANCH   2  15
TORSDOF 6
