REMARK  Name = ZINC15434637
REMARK  6 active torsions:
REMARK  status: ('A' for Active; 'I' for Inactive)
REMARK    1  A    between atoms: C_1  and  O_2
REMARK    2  A    between atoms: O_2  and  C_3
REMARK    3  A    between atoms: C_6  and  C_9
REMARK    4  A    between atoms: C_10  and  C_11
REMARK    5  A    between atoms: N_13  and  N_14
REMARK    6  A    between atoms: N_14  and  C_15
REMARK                            x       y       z     vdW  Elec       q    Type
REMARK                         _______ _______ _______ _____ _____    ______ ____
ROOT
ATOM      1  C   UNL     1      -4.787   3.863  -0.442  0.00  0.00    +0.253 C 
ATOM      2  O   UNL     1      -4.812   5.047  -0.161  0.00  0.00    -0.269 OA
ATOM      3  N   UNL     1      -3.630   3.176  -0.361  0.00  0.00    -0.233 N 
ATOM      4  H   UNL     1      -3.610   2.232  -0.584  0.00  0.00    +0.173 HD
ENDROOT
BRANCH   1   6
ATOM      5  C   UNL     1      -7.170   3.874  -0.948  0.00  0.00    +0.013 C 
ATOM      6  C   UNL     1      -6.011   3.186  -0.867  0.00  0.00    +0.069 C 
BRANCH   5  10
ATOM      7  C   UNL     1     -10.721   1.910  -2.181  0.00  0.00    +0.120 A 
ATOM      8  C   UNL     1     -10.753   3.263  -1.862  0.00  0.00    +0.046 A 
ATOM      9  C   UNL     1      -9.603   3.905  -1.461  0.00  0.00    +0.011 A 
ATOM     10  C   UNL     1      -8.400   3.193  -1.376  0.00  0.00    -0.025 A 
ATOM     11  C   UNL     1      -8.373   1.833  -1.704  0.00  0.00    +0.011 A 
ATOM     12  C   UNL     1      -9.530   1.199  -2.098  0.00  0.00    +0.046 A 
BRANCH   7  14
ATOM     13  C   UNL     1     -11.755  -0.109  -2.890  0.00  0.00    +0.277 C 
ATOM     14  O   UNL     1     -11.858   1.282  -2.576  0.00  0.00    -0.495 OA
ENDBRANCH   7  14
ENDBRANCH   5  10
ENDBRANCH   1   6
BRANCH   3  15
ATOM     15  N   UNL     1      -2.457   3.824   0.046  0.00  0.00    -0.261 N 
ATOM     16  H   UNL     1      -2.492   4.745   0.349  0.00  0.00    +0.170 HD
BRANCH  15  17
ATOM     17  C   UNL     1      -1.235   3.143   0.018  0.00  0.00    +0.081 A 
ATOM     18  C   UNL     1      -0.284   3.377   1.003  0.00  0.00    +0.066 A 
ATOM     19  C   UNL     1       0.924   2.708   0.969  0.00  0.00    +0.042 A 
ATOM     20  C   UNL     1       1.183   1.797  -0.040  0.00  0.00    +0.044 A 
ATOM     21  C   UNL     1       0.236   1.558  -1.020  0.00  0.00    +0.042 A 
ATOM     22  C   UNL     1      -0.972   2.228  -0.994  0.00  0.00    +0.066 A 
ATOM     23 CL   UNL     1      -2.159   1.928  -2.225  0.00  0.00    -0.081 Cl
ATOM     24 CL   UNL     1       2.700   0.952  -0.076  0.00  0.00    -0.083 Cl
ATOM     25 CL   UNL     1      -0.612   4.514   2.274  0.00  0.00    -0.081 Cl
ENDBRANCH  15  17
ENDBRANCH   3  15
TORSDOF 5
