REMARK  Name = ZINC36385369
REMARK  11 active torsions:
REMARK  status: ('A' for Active; 'I' for Inactive)
REMARK    1  A    between atoms: C_1  and  C_2
REMARK    2  A    between atoms: C_2  and  C_3
REMARK    3  A    between atoms: C_2  and  C_4
REMARK    4  A    between atoms: C_2  and  N_5
REMARK    5  A    between atoms: C_6  and  C_8
REMARK    6  A    between atoms: C_8  and  N_9
REMARK    7  A    between atoms: N_13  and  C_16
REMARK    8  A    between atoms: C_16  and  C_17
REMARK    9  A    between atoms: N_19  and  C_20
REMARK   10  A    between atoms: C_20  and  C_21
REMARK   11  A    between atoms: C_20  and  C_28
REMARK                            x       y       z     vdW  Elec       q    Type
REMARK                         _______ _______ _______ _____ _____    ______ ____
ROOT
ATOM      1  C   UNL     1       8.206   0.731  -3.787  0.00  0.00    +0.180 C 
ENDROOT
BRANCH   1   6
ATOM      2  N   UNL     1       4.055  -0.110  -2.677  0.00  0.00    +0.386 N 
ATOM      3  C   UNL     1       4.801  -0.703  -1.593  0.00  0.00    -0.077 C 
ATOM      4  C   UNL     1       5.829   0.280  -0.999  0.00  0.00    -0.003 C 
ATOM      5  C   UNL     1       6.549   1.097  -2.090  0.00  0.00    +0.083 C 
ATOM      6  N   UNL     1       6.910   0.305  -3.241  0.00  0.00    -0.296 NA
ATOM      7  C   UNL     1       5.847   0.380  -4.274  0.00  0.00    +0.066 C 
ATOM      8  C   UNL     1       4.714  -0.481  -3.945  0.00  0.00    -0.063 C 
ATOM      9  H   UNL     1       4.048   0.894  -2.578  0.00  0.00    -0.081 HD
BRANCH   2  10
ATOM     10  C   UNL     1       2.677  -0.618  -2.667  0.00  0.00    +0.019 C 
BRANCH  10  12
ATOM     11  N   UNL     1       0.688  -0.476  -1.203  0.00  0.00    -0.312 N 
ATOM     12  C   UNL     1       1.972  -0.132  -1.427  0.00  0.00    +0.197 C 
ATOM     13  O   UNL     1       2.559   0.569  -0.630  0.00  0.00    -0.278 OA
ATOM     14  H   UNL     1       0.218  -1.037  -1.840  0.00  0.00    +0.149 HD
BRANCH  11  16
ATOM     15  C   UNL     1      -0.019   1.526   0.010  0.00  0.00    +0.031 C 
ATOM     16  C   UNL     1       0.002  -0.004   0.002  0.00  0.00    +0.026 C 
ATOM     17  C   UNL     1       0.742  -0.511   1.242  0.00  0.00    +0.031 C 
ATOM     18  C   UNL     1      -1.433  -0.534   0.013  0.00  0.00    +0.031 C 
ENDBRANCH  11  16
ENDBRANCH  10  12
ENDBRANCH   2  10
ENDBRANCH   1   6
BRANCH   1  19
ATOM     19  C   UNL     1       9.295   0.430  -2.789  0.00  0.00    +0.228 C 
ATOM     20  O   UNL     1       9.018  -0.087  -1.728  0.00  0.00    -0.274 OA
ATOM     21  N   UNL     1      10.575   0.737  -3.077  0.00  0.00    -0.303 N 
ATOM     22  H   UNL     1      10.796   1.151  -3.925  0.00  0.00    +0.150 HD
BRANCH  21  23
ATOM     23  C   UNL     1      11.634   0.445  -2.107  0.00  0.00    +0.140 C 
BRANCH  23  24
ATOM     24  C   UNL     1      12.797   1.374  -2.338  0.00  0.00    -0.022 A 
ATOM     25  C   UNL     1      13.183   1.690  -3.627  0.00  0.00    +0.008 A 
ATOM     26  C   UNL     1      14.250   2.542  -3.841  0.00  0.00    +0.038 A 
ATOM     27  C   UNL     1      14.932   3.080  -2.762  0.00  0.00    +0.123 A 
ATOM     28  C   UNL     1      14.545   2.762  -1.471  0.00  0.00    +0.038 A 
ATOM     29  C   UNL     1      13.475   1.914  -1.260  0.00  0.00    +0.008 A 
ATOM     30  F   UNL     1      15.976   3.913  -2.970  0.00  0.00    -0.205 F 
ENDBRANCH  23  24
BRANCH  23  31
ATOM     31  C   UNL     1      12.089  -0.982  -2.275  0.00  0.00    +0.014 A 
ATOM     32  C   UNL     1      12.407  -1.894  -1.323  0.00  0.00    +0.013 A 
ATOM     33  C   UNL     1      12.804  -3.159  -1.714  0.00  0.00    +0.008 A 
ATOM     34  C   UNL     1      12.863  -3.451  -3.036  0.00  0.00    +0.045 A 
ATOM     35  S   UNL     1      12.341  -1.912  -3.777  0.00  0.00    -0.099 S 
ENDBRANCH  23  31
ENDBRANCH  21  23
ENDBRANCH   1  19
TORSDOF 8
