REMARK  Name = ZINC02448475
REMARK  12 active torsions:
REMARK  status: ('A' for Active; 'I' for Inactive)
REMARK    1  A    between atoms: C_1  and  O_2
REMARK    2  A    between atoms: O_2  and  C_3
REMARK    3  A    between atoms: C_6  and  C_11
REMARK    4  A    between atoms: C_8  and  O_9
REMARK    5  A    between atoms: O_9  and  C_10
REMARK    6  A    between atoms: C_11  and  C_12
REMARK    7  A    between atoms: C_12  and  N_13
REMARK    8  A    between atoms: C_14  and  N_37
REMARK    9  A    between atoms: C_15  and  C_26
REMARK   10  A    between atoms: N_28  and  C_29
REMARK   11  A    between atoms: C_29  and  C_30
REMARK   12  A    between atoms: C_30  and  C_31
REMARK                            x       y       z     vdW  Elec       q    Type
REMARK                         _______ _______ _______ _____ _____    ______ ____
ROOT
ATOM      1  N   UNL     1      -4.284  -0.214  -0.711  0.00  0.00    -0.312 N 
ATOM      2  C   UNL     1      -3.163   0.456  -1.095  0.00  0.00    +0.112 A 
ATOM      3  C   UNL     1      -2.443   0.876   0.018  0.00  0.00    +0.103 A 
ATOM      4  C   UNL     1      -3.191   0.413   1.198  0.00  0.00    +0.122 A 
ATOM      5  C   UNL     1      -4.369  -0.277   0.665  0.00  0.00    +0.162 A 
ATOM      6  N   UNL     1      -5.242  -0.804   1.497  0.00  0.00    -0.226 NA
ATOM      7  C   UNL     1      -5.050  -0.701   2.819  0.00  0.00    +0.092 A 
ATOM      8  C   UNL     1      -5.978  -1.262   3.715  0.00  0.00    +0.030 A 
ATOM      9  C   UNL     1      -5.776  -1.151   5.056  0.00  0.00    +0.002 A 
ATOM     10  C   UNL     1      -4.658  -0.490   5.561  0.00  0.00    +0.002 A 
ATOM     11  C   UNL     1      -3.739   0.065   4.726  0.00  0.00    +0.030 A 
ATOM     12  C   UNL     1      -3.913  -0.028   3.332  0.00  0.00    +0.090 A 
ATOM     13  N   UNL     1      -3.015   0.515   2.501  0.00  0.00    -0.241 NA
ENDROOT
BRANCH   3  14
ATOM     14  C   UNL     1      -1.187   1.624   0.017  0.00  0.00    +0.250 C 
ATOM     15  O   UNL     1      -1.204   2.841   0.023  0.00  0.00    -0.270 OA
ATOM     16  N   UNL     1      -0.011   0.966   0.007  0.00  0.00    -0.311 N 
ATOM     17  H   UNL     1       0.002  -0.004   0.002  0.00  0.00    +0.149 HD
BRANCH  16  18
ATOM     18  C   UNL     1       1.248   1.716  -0.001  0.00  0.00    +0.109 C 
BRANCH  18  19
ATOM     19  C   UNL     1       2.424   0.737  -0.017  0.00  0.00    +0.049 C 
BRANCH  19  20
ATOM     20  C   UNL     1       3.719   1.508  -0.025  0.00  0.00    -0.072 C 
ATOM     21  C   UNL     1       4.302   1.727   1.109  0.00  0.00    -0.028 C 
ATOM     22  C   UNL     1       5.587   2.486   1.261  0.00  0.00    +0.027 C 
ATOM     23  C   UNL     1       6.305   2.582  -0.087  0.00  0.00    +0.004 C 
ATOM     24  C   UNL     1       5.300   3.069  -1.138  0.00  0.00    +0.005 C 
ATOM     25  C   UNL     1       4.254   1.970  -1.349  0.00  0.00    +0.030 C 
ENDBRANCH  19  20
ENDBRANCH  18  19
ENDBRANCH  16  18
ENDBRANCH   3  14
BRANCH   2  26
ATOM     26  N   UNL     1      -2.797   0.685  -2.395  0.00  0.00    -0.344 N 
ATOM     27  H   UNL     1      -1.981   1.172  -2.590  0.00  0.00    +0.144 HD
ATOM     28  H   UNL     1      -3.353   0.360  -3.120  0.00  0.00    +0.144 HD
ENDBRANCH   2  26
BRANCH   1  29
ATOM     29  C   UNL     1      -5.266  -0.791  -1.632  0.00  0.00    +0.130 C 
BRANCH  29  30
ATOM     30  C   UNL     1      -4.870  -2.231  -1.964  0.00  0.00    +0.057 C 
BRANCH  30  34
ATOM     31  C   UNL     1      -7.740  -3.916  -4.650  0.00  0.00    +0.161 A 
ATOM     32  C   UNL     1      -7.916  -4.032  -3.280  0.00  0.00    +0.049 A 
ATOM     33  C   UNL     1      -6.984  -3.491  -2.415  0.00  0.00    +0.007 A 
ATOM     34  C   UNL     1      -5.880  -2.824  -2.912  0.00  0.00    -0.042 A 
ATOM     35  C   UNL     1      -5.698  -2.704  -4.277  0.00  0.00    +0.053 A 
ATOM     36  C   UNL     1      -6.626  -3.248  -5.150  0.00  0.00    +0.162 A 
BRANCH  31  38
ATOM     37  C   UNL     1      -9.771  -5.122  -4.918  0.00  0.00    +0.277 C 
ATOM     38  O   UNL     1      -8.653  -4.452  -5.503  0.00  0.00    -0.491 OA
ENDBRANCH  31  38
BRANCH  36  39
ATOM     39  O   UNL     1      -6.448  -3.131  -6.494  0.00  0.00    -0.491 OA
ATOM     40  C   UNL     1      -5.282  -2.433  -6.935  0.00  0.00    +0.277 C 
ENDBRANCH  36  39
ENDBRANCH  30  34
ENDBRANCH  29  30
ENDBRANCH   1  29
TORSDOF 10
