REMARK  Name = ZINC35429165
REMARK  2 active torsions:
REMARK  status: ('A' for Active; 'I' for Inactive)
REMARK    1  A    between atoms: C_6  and  C_15
REMARK    2  A    between atoms: C_7  and  N_9
REMARK                            x       y       z     vdW  Elec       q    Type
REMARK                         _______ _______ _______ _____ _____    ______ ____
ROOT
ATOM      1  C   UNL     1       1.039   0.928   1.201  0.00  0.00    +0.101 A 
ATOM      2  C   UNL     1       1.479   1.919   0.426  0.00  0.00    +0.067 A 
ATOM      3  S   UNL     1       1.262   1.232  -1.208  0.00  0.00    -0.058 S 
ATOM      4  C   UNL     1       0.595  -0.340  -0.716  0.00  0.00    +0.179 A 
ATOM      5  N   UNL     1       0.578  -0.247   0.650  0.00  0.00    -0.294 N 
ATOM      6  C   UNL     1       0.056  -1.468   1.085  0.00  0.00    +0.080 A 
ATOM      7  C   UNL     1      -0.206  -2.212  -0.009  0.00  0.00    +0.145 A 
ATOM      8  N   UNL     1       0.134  -1.498  -1.096  0.00  0.00    -0.206 NA
ENDROOT
BRANCH   7   9
ATOM      9  N   UNL     1      -0.740  -3.510  -0.012  0.00  0.00    -0.312 N 
ATOM     10  C   UNL     1      -2.188  -3.695  -0.119  0.00  0.00    +0.117 C 
ATOM     11  C   UNL     1      -2.518  -4.385  -1.448  0.00  0.00    +0.088 C 
ATOM     12  S   UNL     1      -1.615  -5.962  -1.524  0.00  0.00    -0.158 S 
ATOM     13  C   UNL     1       0.106  -5.468  -1.212  0.00  0.00    +0.088 C 
ATOM     14  C   UNL     1       0.157  -4.662   0.086  0.00  0.00    +0.117 C 
ENDBRANCH   7   9
BRANCH   6  15
ATOM     15  C   UNL     1      -0.171  -1.880   2.517  0.00  0.00    +0.165 C 
ATOM     16 CL   UNL     1      -1.770  -1.260   3.073  0.00  0.00    -0.119 Cl
ENDBRANCH   6  15
TORSDOF 2
