REMARK  Name = ZINC55164629
REMARK  2 active torsions:
REMARK  status: ('A' for Active; 'I' for Inactive)
REMARK    1  A    between atoms: C_5  and  N_8
REMARK    2  A    between atoms: C_9  and  C_11
REMARK                            x       y       z     vdW  Elec       q    Type
REMARK                         _______ _______ _______ _____ _____    ______ ____
ROOT
ATOM      1  N   UNL     1       1.238  -2.080  -0.022  0.00  0.00    -0.277 N 
ATOM      2  C   UNL     1       0.156  -2.774   0.384  0.00  0.00    +0.287 C 
ATOM      3  O   UNL     1      -0.869  -2.188   0.671  0.00  0.00    -0.266 OA
ATOM      4  H   UNL     1       2.032  -2.551  -0.320  0.00  0.00    +0.155 HD
ENDROOT
BRANCH   1   9
ATOM      5  C   UNL     1       0.783   1.398  -1.132  0.00  0.00    +0.037 A 
ATOM      6  C   UNL     1       1.172   2.087   0.002  0.00  0.00    +0.021 A 
ATOM      7  C   UNL     1       1.583   1.397   1.129  0.00  0.00    +0.037 A 
ATOM      8  C   UNL     1       1.606   0.015   1.124  0.00  0.00    +0.065 A 
ATOM      9  C   UNL     1       1.215  -0.681  -0.014  0.00  0.00    +0.071 A 
ATOM     10  C   UNL     1       0.803   0.016  -1.143  0.00  0.00    +0.065 A 
ATOM     11 CL   UNL     1       0.314  -0.849  -2.567  0.00  0.00    -0.082 Cl
ATOM     12 CL   UNL     1       2.123  -0.851   2.537  0.00  0.00    -0.082 Cl
ATOM     13 BR   UNL     1       1.143   3.978   0.013  0.00  0.00    -0.050 Br
ENDBRANCH   1   9
BRANCH   2  14
ATOM     14  C   UNL     1       0.217  -4.248   0.480  0.00  0.00    +0.238 A 
ATOM     15  N   UNL     1      -0.791  -5.048   0.865  0.00  0.00    -0.190 NA
ATOM     16  C   UNL     1      -0.397  -6.300   0.837  0.00  0.00    +0.209 A 
ATOM     17  N   UNL     1       0.892  -6.325   0.427  0.00  0.00    -0.246 N 
ATOM     18  H   UNL     1       1.449  -7.112   0.311  0.00  0.00    +0.192 HD
ATOM     19  N   UNL     1       1.265  -4.991   0.198  0.00  0.00    -0.146 NA
ATOM     20  N   UNL     1      -1.165  -7.401   1.169  0.00  0.00    -0.328 N 
ATOM     21  H   UNL     1      -2.085  -7.282   1.454  0.00  0.00    +0.145 HD
ATOM     22  H   UNL     1      -0.784  -8.291   1.118  0.00  0.00    +0.145 HD
ENDBRANCH   2  14
TORSDOF 2
