REMARK  Name = ZINC39864182
REMARK  4 active torsions:
REMARK  status: ('A' for Active; 'I' for Inactive)
REMARK    1  A    between atoms: C_1  and  N_2
REMARK    2  A    between atoms: C_6  and  C_7
REMARK    3  A    between atoms: C_12  and  O_13
REMARK    4  A    between atoms: N_16  and  C_17
REMARK                            x       y       z     vdW  Elec       q    Type
REMARK                         _______ _______ _______ _____ _____    ______ ____
ROOT
ATOM      1  C   UNL     1       0.459   0.401  -0.067  0.00  0.00    +0.140 C 
ATOM      2  N   UNL     1       0.616  -1.049  -0.210  0.00  0.00    -0.249 N 
ATOM      3  C   UNL     1       0.648  -1.588  -1.417  0.00  0.00    +0.259 C 
ATOM      4  O   UNL     1       0.550  -0.907  -2.421  0.00  0.00    -0.269 OA
ATOM      5  C   UNL     1       0.807  -3.053  -1.491  0.00  0.00    +0.078 C 
ATOM      6  C   UNL     1       0.872  -3.858  -2.582  0.00  0.00    +0.032 C 
ATOM      7  S   UNL     1       0.894  -3.481   0.242  0.00  0.00    -0.049 S 
ATOM      8  C   UNL     1       0.734  -1.835   0.914  0.00  0.00    +0.168 C 
ATOM      9  N   UNL     1       0.728  -1.464   2.177  0.00  0.00    -0.224 NA
ENDROOT
BRANCH   9  10
ATOM     10  C   UNL     1       0.899  -2.393   3.162  0.00  0.00    +0.088 A 
ATOM     11  C   UNL     1       0.106  -3.548   3.210  0.00  0.00    +0.049 A 
ATOM     12  C   UNL     1       0.314  -4.459   4.222  0.00  0.00    +0.113 A 
ATOM     13  N   UNL     1       1.243  -4.256   5.138  0.00  0.00    -0.262 NA
ATOM     14  C   UNL     1       2.013  -3.182   5.131  0.00  0.00    +0.132 A 
ATOM     15  C   UNL     1       1.879  -2.221   4.152  0.00  0.00    +0.084 A 
ATOM     16 CL   UNL     1       2.901  -0.818   4.148  0.00  0.00    -0.080 Cl
ENDBRANCH   9  10
BRANCH   6  17
ATOM     17  C   UNL     1       1.221  -5.276  -2.428  0.00  0.00    +0.018 A 
ATOM     18  C   UNL     1       1.850  -5.723  -1.261  0.00  0.00    +0.011 A 
ATOM     19  C   UNL     1       2.174  -7.056  -1.124  0.00  0.00    +0.001 A 
ATOM     20  C   UNL     1       1.880  -7.955  -2.136  0.00  0.00    +0.004 A 
ATOM     21  C   UNL     1       1.259  -7.527  -3.294  0.00  0.00    +0.046 A 
ATOM     22  C   UNL     1       0.920  -6.192  -3.449  0.00  0.00    +0.124 A 
BRANCH  22  23
ATOM     23  O   UNL     1       0.305  -5.772  -4.583  0.00  0.00    -0.506 OA
ATOM     24  H   UNL     1       0.914  -5.497  -5.282  0.00  0.00    +0.292 HD
ENDBRANCH  22  23
ENDBRANCH   6  17
TORSDOF 3
