REMARK  Name = ZINC12316367
REMARK  6 active torsions:
REMARK  status: ('A' for Active; 'I' for Inactive)
REMARK    1  A    between atoms: C_4  and  C_7
REMARK    2  A    between atoms: C_7  and  C_13
REMARK    3  A    between atoms: C_13  and  N_57
REMARK    4  A    between atoms: C_14  and  C_15
REMARK    5  A    between atoms: C_14  and  N_57
REMARK    6  A    between atoms: C_16  and  C_23
REMARK                            x       y       z     vdW  Elec       q    Type
REMARK                         _______ _______ _______ _____ _____    ______ ____
ROOT
ATOM      1  C   UNL     1       0.633   4.556   0.035  0.00  0.00    -0.025 C 
ENDROOT
BRANCH   1   2
ATOM      2  C   UNL     1       1.551   3.360   0.028  0.00  0.00    +0.039 A 
ATOM      3  C   UNL     1       2.911   3.392   0.014  0.00  0.00    +0.146 A 
ATOM      4  N   UNL     1       3.357   2.110   0.014  0.00  0.00    -0.216 NA
ATOM      5  C   UNL     1       2.330   1.314   0.026  0.00  0.00    +0.178 A 
ATOM      6  N   UNL     1       1.161   2.034   0.036  0.00  0.00    -0.299 N 
ATOM      7  C   UNL     1      -0.013   1.312   0.049  0.00  0.00    +0.100 A 
ATOM      8  C   UNL     1       0.003  -0.019   0.052  0.00  0.00    +0.067 A 
ATOM      9  S   UNL     1       1.754  -0.368   0.035  0.00  0.00    -0.058 S 
BRANCH   3  10
ATOM     10  C   UNL     1       3.750   4.603   0.002  0.00  0.00    +0.267 C 
ATOM     11  O   UNL     1       3.231   5.703   0.004  0.00  0.00    -0.268 OA
ATOM     12  N   UNL     1       5.093   4.492  -0.011  0.00  0.00    -0.296 N 
ATOM     13  C   UNL     1       5.849   3.230  -0.009  0.00  0.00    +0.108 C 
ATOM     14  C   UNL     1       7.348   3.594  -0.003  0.00  0.00    +0.020 C 
ATOM     15  C   UNL     1       7.352   5.033   0.577  0.00  0.00    +0.020 C 
ATOM     16  C   UNL     1       6.049   5.614  -0.024  0.00  0.00    +0.108 C 
ENDBRANCH   3  10
ENDBRANCH   1   2
BRANCH   1  17
ATOM     17  N   UNL     1       0.354   4.943   1.431  0.00  0.00    +0.383 N 
ATOM     18  H   UNL     1      -0.094   4.157   1.917  0.00  0.00    -0.085 HD
ATOM     19  H   UNL     1       1.236   5.178   1.900  0.00  0.00    -0.085 HD
BRANCH  17  20
ATOM     20  C   UNL     1      -0.543   6.113   1.468  0.00  0.00    -0.070 C 
BRANCH  20  21
ATOM     21  C   UNL     1      -0.926   6.406   2.920  0.00  0.00    -0.015 C 
ATOM     22  C   UNL     1      -1.956   7.538   2.960  0.00  0.00    +0.038 C 
ATOM     23  C   UNL     1      -1.322   8.813   2.393  0.00  0.00    +0.160 C 
ATOM     24  O   UNL     1      -0.151   9.137   3.146  0.00  0.00    -0.380 OA
ATOM     25  C   UNL     1       0.865   8.134   3.106  0.00  0.00    +0.160 C 
ATOM     26  C   UNL     1       0.320   6.833   3.702  0.00  0.00    +0.038 C 
BRANCH  21  30
ATOM     27  C   UNL     1      -2.591   2.894   4.694  0.00  0.00    +0.000 A 
ATOM     28  C   UNL     1      -3.135   3.405   3.530  0.00  0.00    +0.000 A 
ATOM     29  C   UNL     1      -2.596   4.541   2.956  0.00  0.00    +0.004 A 
ATOM     30  C   UNL     1      -1.514   5.167   3.546  0.00  0.00    -0.043 A 
ATOM     31  C   UNL     1      -0.967   4.653   4.707  0.00  0.00    +0.004 A 
ATOM     32  C   UNL     1      -1.508   3.520   5.284  0.00  0.00    +0.000 A 
ENDBRANCH  21  30
ENDBRANCH  20  21
ENDBRANCH  17  20
ENDBRANCH   1  17
TORSDOF 6
