REMARK  Name = ZINC06301175
REMARK  10 active torsions:
REMARK  status: ('A' for Active; 'I' for Inactive)
REMARK    1  A    between atoms: C_1  and  C_2
REMARK    2  A    between atoms: C_4  and  C_36
REMARK    3  A    between atoms: C_9  and  C_14
REMARK    4  A    between atoms: C_14  and  C_16
REMARK    5  A    between atoms: C_14  and  N_67
REMARK    6  A    between atoms: N_20  and  C_21
REMARK    7  A    between atoms: C_21  and  C_22
REMARK    8  A    between atoms: C_25  and  O_28
REMARK    9  A    between atoms: O_28  and  C_29
REMARK   10  A    between atoms: C_32  and  C_35
REMARK                            x       y       z     vdW  Elec       q    Type
REMARK                         _______ _______ _______ _____ _____    ______ ____
ROOT
ATOM      1  C   UNL     1       2.462   1.480   2.196  0.00  0.00    +0.039 C 
ENDROOT
BRANCH   1  10
ATOM      2  C   UNL     1       6.327  -4.251  -0.603  0.00  0.00    +0.044 C 
ATOM      3  C   UNL     1       5.772  -3.490   0.573  0.00  0.00    -0.050 A 
ATOM      4  C   UNL     1       6.003  -3.950   1.862  0.00  0.00    +0.008 A 
ATOM      5  C   UNL     1       5.504  -3.271   2.952  0.00  0.00    -0.026 A 
ATOM      6  C   UNL     1       4.761  -2.110   2.761  0.00  0.00    +0.052 A 
ATOM      7  C   UNL     1       4.528  -1.646   1.453  0.00  0.00    -0.001 A 
ATOM      8  C   UNL     1       5.044  -2.353   0.361  0.00  0.00    +0.013 A 
ATOM      9  C   UNL     1       3.740  -0.427   1.262  0.00  0.00    +0.017 A 
ATOM     10  C   UNL     1       3.271   0.219   2.357  0.00  0.00    +0.011 A 
ATOM     11  C   UNL     1       3.533  -0.288   3.648  0.00  0.00    +0.251 A 
ATOM     12  O   UNL     1       3.097   0.305   4.619  0.00  0.00    -0.268 OA
ATOM     13  N   UNL     1       4.250  -1.410   3.833  0.00  0.00    -0.322 N 
ATOM     14  H   UNL     1       4.411  -1.731   4.734  0.00  0.00    +0.169 HD
ATOM     15  C   UNL     1       5.763  -3.782   4.346  0.00  0.00    +0.046 C 
ENDBRANCH   1  10
BRANCH   1  22
ATOM     16  C   UNL     1       4.507   2.733   2.523  0.00  0.00    -0.077 C 
ATOM     17  C   UNL     1       5.185   3.779   3.411  0.00  0.00    -0.015 C 
ATOM     18  C   UNL     1       4.441   5.111   3.283  0.00  0.00    -0.018 C 
ATOM     19  C   UNL     1       2.974   4.906   3.672  0.00  0.00    -0.015 C 
ATOM     20  C   UNL     1       2.360   3.828   2.776  0.00  0.00    -0.077 C 
ATOM     21  C   UNL     1       5.077   6.143   4.215  0.00  0.00    +0.007 C 
ATOM     22  N   UNL     1       3.106   2.566   2.964  0.00  0.00    +0.389 N 
ATOM     23  H   UNL     1       3.097   2.319   3.961  0.00  0.00    -0.080 HD
ENDBRANCH   1  22
BRANCH   1  24
ATOM     24  C   UNL     1       2.379   1.841   0.735  0.00  0.00    +0.143 A 
ATOM     25  N   UNL     1       3.351   2.306  -0.012  0.00  0.00    -0.115 NA
ATOM     26  N   UNL     1       2.885   2.494  -1.198  0.00  0.00    -0.023 NA
ATOM     27  N   UNL     1       1.643   2.156  -1.229  0.00  0.00    -0.044 NA
ATOM     28  N   UNL     1       1.295   1.745  -0.057  0.00  0.00    -0.226 N 
BRANCH  28  29
ATOM     29  C   UNL     1      -0.033   1.270   0.340  0.00  0.00    +0.182 C 
BRANCH  29  30
ATOM     30  C   UNL     1      -0.157  -0.198   0.020  0.00  0.00    -0.026 A 
ATOM     31  C   UNL     1      -0.534  -0.598  -1.248  0.00  0.00    +0.009 A 
ATOM     32  C   UNL     1      -0.643  -1.943  -1.546  0.00  0.00    +0.046 A 
ATOM     33  C   UNL     1      -0.385  -2.892  -0.567  0.00  0.00    +0.120 A 
ATOM     34  C   UNL     1      -0.012  -2.487   0.707  0.00  0.00    +0.046 A 
ATOM     35  C   UNL     1       0.101  -1.141   0.998  0.00  0.00    +0.009 A 
BRANCH  33  36
ATOM     36  O   UNL     1      -0.497  -4.215  -0.855  0.00  0.00    -0.495 OA
ATOM     37  C   UNL     1      -0.885  -4.558  -2.187  0.00  0.00    +0.277 C 
ENDBRANCH  33  36
ENDBRANCH  29  30
ENDBRANCH  28  29
ENDBRANCH   1  24
TORSDOF 6
