REMARK  Name = ZINC23398428
REMARK  5 active torsions:
REMARK  status: ('A' for Active; 'I' for Inactive)
REMARK    1  A    between atoms: N_7  and  C_11
REMARK    2  A    between atoms: C_11  and  C_12
REMARK    3  A    between atoms: C_12  and  N_13
REMARK    4  A    between atoms: C_17  and  C_19
REMARK    5  A    between atoms: C_22  and  C_24
REMARK                            x       y       z     vdW  Elec       q    Type
REMARK                         _______ _______ _______ _____ _____    ______ ____
ROOT
ATOM      1  N   UNL     1       1.413   1.933  -0.001  0.00  0.00    +0.386 N 
ATOM      2  C   UNL     1      -0.019   1.540   0.011  0.00  0.00    -0.078 C 
ATOM      3  C   UNL     1       0.002  -0.004   0.002  0.00  0.00    -0.020 C 
ATOM      4  C   UNL     1       1.364  -0.383  -0.615  0.00  0.00    -0.012 C 
ATOM      5  C   UNL     1       2.051   0.963  -0.928  0.00  0.00    -0.031 C 
ATOM      6  H   UNL     1       1.865   1.924   1.002  0.00  0.00    -0.081 HD
ENDROOT
BRANCH   5   7
ATOM      7  C   UNL     1       3.531   0.873  -0.658  0.00  0.00    -0.023 A 
ATOM      8  C   UNL     1       4.543   0.709  -1.549  0.00  0.00    +0.010 A 
ATOM      9  C   UNL     1       5.837   0.654  -1.093  0.00  0.00    +0.021 A 
ATOM     10  C   UNL     1       6.028   0.763   0.276  0.00  0.00    +0.074 A 
ATOM     11  S   UNL     1       4.354   0.947   0.866  0.00  0.00    -0.090 S 
BRANCH  10  12
ATOM     12  C   UNL     1       7.279   0.735   1.040  0.00  0.00    +0.248 C 
ATOM     13  O   UNL     1       8.341   0.599   0.462  0.00  0.00    -0.270 OA
ATOM     14  N   UNL     1       7.252   0.859   2.381  0.00  0.00    -0.325 N 
ATOM     15  H   UNL     1       8.191   0.838   2.954  0.00  0.00    +0.145 HD
ATOM     16  H   UNL     1       6.292   0.982   2.904  0.00  0.00    +0.145 HD
ENDBRANCH  10  12
ENDBRANCH   5   7
BRANCH   1  17
ATOM     17  C   UNL     1       1.577   3.311  -0.486  0.00  0.00    -0.056 C 
BRANCH  17  18
ATOM     18  C   UNL     1       1.026   4.287   0.556  0.00  0.00    +0.110 C 
BRANCH  18  25
ATOM     19  C   UNL     1       4.412   7.342   1.000  0.00  0.00    +0.002 A 
ATOM     20  C   UNL     1       4.139   8.544   0.368  0.00  0.00    +0.004 A 
ATOM     21  C   UNL     1       2.946   8.722  -0.304  0.00  0.00    +0.048 A 
ATOM     22  C   UNL     1       2.017   7.694  -0.348  0.00  0.00    +0.157 A 
ATOM     23  C   UNL     1       2.291   6.486   0.292  0.00  0.00    +0.090 A 
ATOM     24  C   UNL     1       3.492   6.313   0.961  0.00  0.00    +0.030 A 
ATOM     25  N   UNL     1       1.189   5.660   0.072  0.00  0.00    -0.276 N 
ATOM     26  C   UNL     1       0.299   6.357  -0.661  0.00  0.00    +0.421 A 
ATOM     27  O   UNL     1      -0.782   5.944  -1.034  0.00  0.00    -0.223 OA
ATOM     28  O   UNL     1       0.791   7.580  -0.917  0.00  0.00    -0.407 OA
ENDBRANCH  18  25
ENDBRANCH  17  18
ENDBRANCH   1  17
TORSDOF 5
