REMARK  Name = ZINC52584486
REMARK  8 active torsions:
REMARK  status: ('A' for Active; 'I' for Inactive)
REMARK    1  A    between atoms: C_1  and  C_2
REMARK    2  A    between atoms: C_2  and  C_3
REMARK    3  A    between atoms: C_3  and  C_4
REMARK    4  A    between atoms: C_8  and  C_32
REMARK    5  A    between atoms: N_13  and  C_14
REMARK    6  A    between atoms: C_14  and  C_15
REMARK    7  A    between atoms: C_18  and  C_21
REMARK    8  A    between atoms: C_26  and  C_27
REMARK                            x       y       z     vdW  Elec       q    Type
REMARK                         _______ _______ _______ _____ _____    ______ ____
ROOT
ATOM      1  C   UNL     1      -3.575  -3.431  -2.212  0.00  0.00    -0.030 A 
ATOM      2  C   UNL     1      -2.683  -3.253  -3.255  0.00  0.00    +0.006 A 
ATOM      3  C   UNL     1      -2.535  -4.235  -4.214  0.00  0.00    +0.009 A 
ATOM      4  C   UNL     1      -3.285  -5.407  -4.130  0.00  0.00    -0.017 A 
ATOM      5  C   UNL     1      -4.182  -5.580  -3.076  0.00  0.00    +0.009 A 
ATOM      6  C   UNL     1      -4.318  -4.594  -2.120  0.00  0.00    +0.006 A 
ENDROOT
BRANCH   4   7
ATOM      7  C   UNL     1      -3.130  -6.464  -5.156  0.00  0.00    -0.007 A 
ATOM      8  C   UNL     1      -3.190  -6.141  -6.509  0.00  0.00    +0.009 A 
ATOM      9  C   UNL     1      -3.045  -7.129  -7.462  0.00  0.00    +0.001 A 
ATOM     10  C   UNL     1      -2.840  -8.445  -7.082  0.00  0.00    +0.001 A 
ATOM     11  C   UNL     1      -2.778  -8.784  -5.746  0.00  0.00    +0.012 A 
ATOM     12  C   UNL     1      -2.917  -7.798  -4.770  0.00  0.00    +0.030 A 
BRANCH  12  13
ATOM     13  C   UNL     1      -2.845  -8.155  -3.337  0.00  0.00    +0.207 A 
ATOM     14  N   UNL     1      -2.971  -7.325  -2.300  0.00  0.00    -0.106 NA
ATOM     15  N   UNL     1      -2.847  -8.027  -1.225  0.00  0.00    -0.021 NA
ATOM     16  N   UNL     1      -2.650  -9.258  -1.542  0.00  0.00    -0.021 NA
ATOM     17  N   UNL     1      -2.649  -9.373  -2.826  0.00  0.00    -0.106 NA
ENDBRANCH  12  13
ENDBRANCH   4   7
BRANCH   1  18
ATOM     18  C   UNL     1      -3.732  -2.355  -1.168  0.00  0.00    +0.143 C 
BRANCH  18  27
ATOM     19  C   UNL     1      -1.413  -2.063   0.004  0.00  0.00    +0.160 C 
ATOM     20  N   UNL     1      -0.866  -2.570   1.270  0.00  0.00    -0.323 N 
ATOM     21  C   UNL     1      -1.868  -3.339   1.873  0.00  0.00    +0.070 A 
ATOM     22  C   UNL     1      -1.878  -4.041   3.073  0.00  0.00    -0.025 A 
ATOM     23  C   UNL     1      -3.029  -4.730   3.429  0.00  0.00    +0.023 A 
ATOM     24  C   UNL     1      -4.121  -4.697   2.586  0.00  0.00    +0.084 A 
ATOM     25  N   UNL     1      -4.085  -4.023   1.452  0.00  0.00    -0.348 N 
ATOM     26  C   UNL     1      -3.007  -3.349   1.070  0.00  0.00    +0.122 A 
ATOM     27  N   UNL     1      -2.781  -2.588  -0.079  0.00  0.00    -0.292 N 
ATOM     28  C   UNL     1      -0.665  -4.054   3.967  0.00  0.00    +0.046 C 
ATOM     29  H   UNL     1       0.022  -2.403   1.621  0.00  0.00    +0.148 HD
ATOM     30  H   UNL     1      -4.870  -4.021   0.881  0.00  0.00    +0.167 HD
BRANCH  19  31
ATOM     31  C   UNL     1      -1.433  -0.534   0.013  0.00  0.00    +0.042 C 
BRANCH  31  33
ATOM     32  C   UNL     1      -0.019   1.526   0.010  0.00  0.00    +0.004 C 
ATOM     33  C   UNL     1       0.002  -0.004   0.002  0.00  0.00    +0.000 C 
ENDBRANCH  31  33
ENDBRANCH  19  31
ENDBRANCH  18  27
ENDBRANCH   1  18
TORSDOF 6
