REMARK  Name = ZINC66360249
REMARK  7 active torsions:
REMARK  status: ('A' for Active; 'I' for Inactive)
REMARK    1  A    between atoms: C_1  and  C_2
REMARK    2  A    between atoms: C_2  and  C_4
REMARK    3  A    between atoms: C_2  and  N_21
REMARK    4  A    between atoms: C_4  and  C_5
REMARK    5  A    between atoms: N_10  and  C_13
REMARK    6  A    between atoms: C_18  and  C_19
REMARK    7  A    between atoms: C_22  and  C_24
REMARK                            x       y       z     vdW  Elec       q    Type
REMARK                         _______ _______ _______ _____ _____    ______ ____
ROOT
ATOM      1  C   UNL     1      -1.416  -2.035  -0.119  0.00  0.00    +0.217 C 
ATOM      2  O   UNL     1      -0.359  -2.623  -0.213  0.00  0.00    -0.276 OA
ATOM      3  N   UNL     1      -2.574  -2.724  -0.133  0.00  0.00    -0.298 N 
ATOM      4  C   UNL     1      -3.862  -2.023  -0.027  0.00  0.00    +0.126 C 
ATOM      5  C   UNL     1      -4.734  -2.416  -1.226  0.00  0.00    +0.124 C 
ATOM      6  N   UNL     1      -4.732  -3.880  -1.349  0.00  0.00    -0.326 N 
ATOM      7  C   UNL     1      -3.444  -4.581  -1.455  0.00  0.00    +0.124 C 
ATOM      8  C   UNL     1      -2.573  -4.188  -0.262  0.00  0.00    +0.126 C 
ENDROOT
BRANCH   6   9
ATOM      9  C   UNL     1      -5.927  -4.591  -1.363  0.00  0.00    +0.047 A 
ATOM     10  C   UNL     1      -6.569  -4.852  -2.567  0.00  0.00    +0.024 A 
ATOM     11  C   UNL     1      -7.755  -5.558  -2.579  0.00  0.00    +0.002 A 
ATOM     12  C   UNL     1      -8.315  -6.010  -1.394  0.00  0.00    +0.001 A 
ATOM     13  C   UNL     1      -7.693  -5.760  -0.191  0.00  0.00    +0.021 A 
ATOM     14  C   UNL     1      -6.488  -5.052  -0.162  0.00  0.00    +0.073 A 
BRANCH  14  15
ATOM     15  C   UNL     1      -5.833  -4.795   1.085  0.00  0.00    +0.101 C 
ATOM     16  N   UNL     1      -5.313  -4.591   2.074  0.00  0.00    -0.191 NA
ENDBRANCH  14  15
ENDBRANCH   6   9
BRANCH   1  17
ATOM     17  C   UNL     1      -1.433  -0.534   0.013  0.00  0.00    +0.118 C 
BRANCH  17  19
ATOM     18  C   UNL     1      -0.019   1.526   0.010  0.00  0.00    +0.028 C 
ATOM     19  C   UNL     1       0.002  -0.004   0.002  0.00  0.00    +0.079 C 
BRANCH  19  20
ATOM     20  N   UNL     1       0.711  -0.489   1.189  0.00  0.00    -0.312 N 
ATOM     21  C   UNL     1       2.054  -0.600   1.174  0.00  0.00    +0.216 C 
ATOM     22  O   UNL     1       2.676  -0.297   0.177  0.00  0.00    -0.276 OA
ATOM     23  H   UNL     1       0.213  -0.731   1.986  0.00  0.00    +0.149 HD
BRANCH  21  24
ATOM     24  C   UNL     1       2.783  -1.099   2.395  0.00  0.00    +0.075 C 
ATOM     25  C   UNL     1       2.502  -0.165   3.574  0.00  0.00    +0.013 C 
ATOM     26  C   UNL     1       3.242  -0.672   4.813  0.00  0.00    +0.001 C 
ATOM     27  C   UNL     1       4.746  -0.702   4.533  0.00  0.00    +0.000 C 
ATOM     28  C   UNL     1       5.026  -1.635   3.354  0.00  0.00    +0.001 C 
ATOM     29  C   UNL     1       4.287  -1.129   2.114  0.00  0.00    +0.013 C 
ENDBRANCH  21  24
ENDBRANCH  19  20
ENDBRANCH  17  19
ENDBRANCH   1  17
TORSDOF 6
