REMARK  Name = ZINC36805145
REMARK  5 active torsions:
REMARK  status: ('A' for Active; 'I' for Inactive)
REMARK    1  A    between atoms: C_3  and  O_12
REMARK    2  A    between atoms: O_12  and  C_13
REMARK    3  A    between atoms: C_13  and  C_14
REMARK    4  A    between atoms: C_14  and  C_15
REMARK    5  A    between atoms: C_17  and  C_20
REMARK                            x       y       z     vdW  Elec       q    Type
REMARK                         _______ _______ _______ _____ _____    ______ ____
ROOT
ATOM      1  C   UNL     1      -0.017   1.401   0.010  0.00  0.00    +0.012 A 
ATOM      2  C   UNL     1       1.155   2.092   0.002  0.00  0.00    +0.046 A 
ATOM      3  C   UNL     1       2.383   1.424  -0.013  0.00  0.00    +0.121 A 
ATOM      4  C   UNL     1       2.438   0.059  -0.021  0.00  0.00    +0.054 A 
ATOM      5  C   UNL     1       1.246  -0.684  -0.013  0.00  0.00    -0.014 A 
ATOM      6  C   UNL     1       0.002  -0.004   0.002  0.00  0.00    -0.017 A 
ATOM      7  C   UNL     1      -1.190  -0.749   0.009  0.00  0.00    +0.023 A 
ATOM      8  C   UNL     1      -1.134  -2.109   0.001  0.00  0.00    +0.018 A 
ATOM      9  C   UNL     1       0.090  -2.778  -0.015  0.00  0.00    +0.016 A 
ATOM     10  C   UNL     1       1.263  -2.090  -0.022  0.00  0.00    +0.010 A 
ATOM     11 BR   UNL     1      -2.741  -3.107   0.011  0.00  0.00    -0.050 Br
ENDROOT
BRANCH   3  12
ATOM     12  O   UNL     1       3.537   2.141  -0.022  0.00  0.00    -0.492 OA
BRANCH  12  13
ATOM     13  C   UNL     1       3.415   3.565  -0.013  0.00  0.00    +0.236 C 
BRANCH  13  14
ATOM     14  C   UNL     1       4.809   4.196  -0.024  0.00  0.00    +0.104 C 
BRANCH  14  15
ATOM     15  C   UNL     1       4.681   5.697  -0.015  0.00  0.00    +0.082 A 
ATOM     16  N   UNL     1       4.628   6.503   1.016  0.00  0.00    -0.248 NA
ATOM     17  C   UNL     1       4.514   7.808   0.862  0.00  0.00    +0.063 A 
ATOM     18  C   UNL     1       4.455   8.274  -0.412  0.00  0.00    +0.071 A 
ATOM     19  S   UNL     1       4.580   6.746  -1.328  0.00  0.00    -0.080 S 
BRANCH  17  20
ATOM     20  C   UNL     1       4.452   8.738   2.045  0.00  0.00    +0.164 C 
ATOM     21 CL   UNL     1       6.120   9.255   2.492  0.00  0.00    -0.119 Cl
ENDBRANCH  17  20
ENDBRANCH  14  15
ENDBRANCH  13  14
ENDBRANCH  12  13
ENDBRANCH   3  12
TORSDOF 5
