REMARK  Name = ZINC37938587
REMARK  3 active torsions:
REMARK  status: ('A' for Active; 'I' for Inactive)
REMARK    1  A    between atoms: C_9  and  C_11
REMARK    2  A    between atoms: C_9  and  N_13
REMARK    3  A    between atoms: N_13  and  C_14
REMARK                            x       y       z     vdW  Elec       q    Type
REMARK                         _______ _______ _______ _____ _____    ______ ____
ROOT
ATOM      1  C   UNL     1      -0.075   1.297  -0.167  0.00  0.00    +0.000 A 
ATOM      2  C   UNL     1       1.104   2.008  -0.293  0.00  0.00    +0.000 A 
ATOM      3  C   UNL     1       2.310   1.338  -0.300  0.00  0.00    +0.004 A 
ATOM      4  C   UNL     1       2.350  -0.046  -0.180  0.00  0.00    -0.041 A 
ATOM      5  C   UNL     1       1.176  -0.753  -0.049  0.00  0.00    -0.044 A 
ATOM      6  C   UNL     1      -0.038  -0.076  -0.046  0.00  0.00    +0.004 A 
ATOM      7  C   UNL     1       1.144  -2.251   0.101  0.00  0.00    +0.038 C 
ATOM      8  C   UNL     1       2.469  -2.864  -0.347  0.00  0.00    +0.046 C 
ATOM      9  C   UNL     1       3.609  -2.128   0.366  0.00  0.00    +0.124 C 
ATOM     10  C   UNL     1       3.700  -0.713  -0.204  0.00  0.00    +0.076 C 
ENDROOT
BRANCH   9  11
ATOM     11  C   UNL     1       3.332  -2.064   1.810  0.00  0.00    +0.089 C 
ATOM     12  N   UNL     1       3.117  -2.014   2.925  0.00  0.00    -0.194 NA
ENDBRANCH   9  11
BRANCH   9  13
ATOM     13  N   UNL     1       4.872  -2.834   0.137  0.00  0.00    -0.325 N 
ATOM     14  H   UNL     1       4.888  -3.635  -0.409  0.00  0.00    +0.148 HD
BRANCH  13  15
ATOM     15  C   UNL     1       6.055  -2.352   0.704  0.00  0.00    +0.042 A 
ATOM     16  C   UNL     1       6.018  -1.278   1.583  0.00  0.00    +0.024 A 
ATOM     17  C   UNL     1       7.188  -0.805   2.143  0.00  0.00    +0.002 A 
ATOM     18  C   UNL     1       8.397  -1.399   1.829  0.00  0.00    +0.001 A 
ATOM     19  C   UNL     1       8.438  -2.469   0.955  0.00  0.00    +0.017 A 
ATOM     20  C   UNL     1       7.270  -2.951   0.395  0.00  0.00    +0.039 A 
ATOM     21 BR   UNL     1       7.326  -4.419  -0.796  0.00  0.00    -0.048 Br
ENDBRANCH  13  15
ENDBRANCH   9  13
TORSDOF 3
