REMARK  Name = ZINC56734073
REMARK  5 active torsions:
REMARK  status: ('A' for Active; 'I' for Inactive)
REMARK    1  A    between atoms: C_1  and  C_2
REMARK    2  A    between atoms: C_2  and  C_3
REMARK    3  A    between atoms: N_15  and  C_16
REMARK    4  A    between atoms: C_21  and  C_22
REMARK    5  A    between atoms: C_22  and  N_23
REMARK                            x       y       z     vdW  Elec       q    Type
REMARK                         _______ _______ _______ _____ _____    ______ ____
ROOT
ATOM      1  C   UNL     1       0.884  -0.844  -1.655  0.00  0.00    +0.108 C 
ATOM      2  C   UNL     1       1.006  -2.366  -1.617  0.00  0.00    -0.017 A 
ATOM      3  C   UNL     1       0.005  -3.225  -2.070  0.00  0.00    +0.013 A 
ATOM      4  C   UNL     1       0.181  -4.564  -2.002  0.00  0.00    +0.046 A 
ATOM      5  S   UNL     1       1.809  -4.686  -1.277  0.00  0.00    -0.101 S 
ATOM      6  C   UNL     1       2.133  -2.949  -1.123  0.00  0.00    -0.004 A 
ATOM      7  C   UNL     1       3.353  -2.276  -0.584  0.00  0.00    +0.062 C 
ATOM      8  C   UNL     1       3.014  -0.808  -0.284  0.00  0.00    +0.115 C 
ATOM      9  N   UNL     1       2.216  -0.279  -1.401  0.00  0.00    -0.278 N 
ATOM     10  C   UNL     1       2.700   0.707  -2.182  0.00  0.00    +0.307 C 
ATOM     11  O   UNL     1       2.074   1.073  -3.158  0.00  0.00    -0.252 OA
ATOM     12  N   UNL     1       3.878   1.288  -1.881  0.00  0.00    -0.269 N 
ATOM     13  H   UNL     1       4.410   0.952  -1.143  0.00  0.00    +0.156 HD
ENDROOT
BRANCH  12  14
ATOM     14  C   UNL     1       4.335   2.376  -2.634  0.00  0.00    +0.040 A 
ATOM     15  C   UNL     1       3.449   3.095  -3.425  0.00  0.00    +0.024 A 
ATOM     16  C   UNL     1       3.902   4.169  -4.166  0.00  0.00    +0.002 A 
ATOM     17  C   UNL     1       5.237   4.527  -4.122  0.00  0.00    +0.000 A 
ATOM     18  C   UNL     1       6.122   3.813  -3.335  0.00  0.00    +0.007 A 
ATOM     19  C   UNL     1       5.673   2.742  -2.587  0.00  0.00    -0.005 A 
BRANCH  19  20
ATOM     20  C   UNL     1       6.637   1.968  -1.725  0.00  0.00    +0.182 C 
BRANCH  20  21
ATOM     21  N   UNL     1       7.127   0.803  -2.466  0.00  0.00    -0.248 N 
ATOM     22  C   UNL     1       8.411   0.477  -2.699  0.00  0.00    +0.219 A 
ATOM     23  N   UNL     1       8.429  -0.631  -3.393  0.00  0.00    -0.223 NA
ATOM     24  C   UNL     1       7.182  -1.042  -3.621  0.00  0.00    +0.245 A 
ATOM     25  N   UNL     1       6.350  -0.200  -3.069  0.00  0.00    -0.158 NA
ENDBRANCH  20  21
ENDBRANCH  19  20
ENDBRANCH  12  14
BRANCH   1  27
ATOM     26  C   UNL     1      -0.289   1.137  -0.687  0.00  0.00    +0.006 C 
ATOM     27  C   UNL     1      -0.092  -0.376  -0.574  0.00  0.00    +0.024 C 
ENDBRANCH   1  27
TORSDOF 4
