REMARK  Name = ZINC20724017
REMARK  3 active torsions:
REMARK  status: ('A' for Active; 'I' for Inactive)
REMARK    1  A    between atoms: C_5  and  C_7
REMARK    2  A    between atoms: C_7  and  N_8
REMARK    3  A    between atoms: C_19  and  O_27
REMARK                            x       y       z     vdW  Elec       q    Type
REMARK                         _______ _______ _______ _____ _____    ______ ____
ROOT
ATOM      1  N   UNL     1       1.488  -2.679   1.333  0.00  0.00    -0.266 N 
ATOM      2  C   UNL     1       2.753  -2.918   1.840  0.00  0.00    +0.041 A 
ATOM      3  C   UNL     1       3.998  -2.757   1.230  0.00  0.00    +0.024 A 
ATOM      4  C   UNL     1       5.118  -3.076   1.980  0.00  0.00    +0.002 A 
ATOM      5  C   UNL     1       5.022  -3.534   3.278  0.00  0.00    +0.000 A 
ATOM      6  C   UNL     1       3.788  -3.700   3.898  0.00  0.00    +0.007 A 
ATOM      7  C   UNL     1       2.669  -3.384   3.159  0.00  0.00    -0.006 A 
ATOM      8  C   UNL     1       1.213  -3.433   3.490  0.00  0.00    +0.112 C 
ATOM      9  C   UNL     1       0.521  -2.948   2.236  0.00  0.00    +0.236 C 
ATOM     10  O   UNL     1      -0.674  -2.827   2.072  0.00  0.00    -0.274 OA
ATOM     11  C   UNL     1       0.768  -4.855   3.831  0.00  0.00    +0.121 C 
ATOM     12  C   UNL     1       1.084  -5.203   5.257  0.00  0.00    +0.191 C 
ATOM     13  N   UNL     1       1.085  -4.335   6.225  0.00  0.00    -0.198 NA
ATOM     14  C   UNL     1       0.835  -3.023   5.950  0.00  0.00    +0.156 A 
ATOM     15  C   UNL     1       0.884  -2.534   4.649  0.00  0.00    +0.036 A 
ATOM     16  C   UNL     1       0.590  -1.185   4.693  0.00  0.00    +0.141 A 
ATOM     17  N   UNL     1       0.384  -0.844   5.944  0.00  0.00    -0.180 NA
ATOM     18  N   UNL     1       0.541  -1.980   6.755  0.00  0.00    -0.260 N 
ATOM     19  H   UNL     1       0.454  -2.010   7.721  0.00  0.00    +0.191 HD
ENDROOT
BRANCH  12  20
ATOM     20  O   UNL     1       1.383  -6.485   5.550  0.00  0.00    -0.495 OA
ATOM     21  H   UNL     1       1.576  -6.640   6.485  0.00  0.00    +0.293 HD
ENDBRANCH  12  20
BRANCH   1  22
ATOM     22  C   UNL     1       1.228  -2.186  -0.022  0.00  0.00    +0.151 C 
BRANCH  22  27
ATOM     23  C   UNL     1      -0.017   1.378   0.010  0.00  0.00    +0.000 A 
ATOM     24  C   UNL     1       1.171   2.087   0.002  0.00  0.00    +0.003 A 
ATOM     25  C   UNL     1       2.377   1.414  -0.013  0.00  0.00    +0.038 A 
ATOM     26  C   UNL     1       2.397   0.029  -0.021  0.00  0.00    +0.128 A 
ATOM     27  C   UNL     1       1.208  -0.679  -0.013  0.00  0.00    +0.005 A 
ATOM     28  C   UNL     1       0.002  -0.004   0.002  0.00  0.00    +0.008 A 
ATOM     29  F   UNL     1       3.577  -0.630  -0.036  0.00  0.00    -0.205 F 
ENDBRANCH  22  27
ENDBRANCH   1  22
TORSDOF 3
