REMARK  Name = ZINC15946891
REMARK  7 active torsions:
REMARK  status: ('A' for Active; 'I' for Inactive)
REMARK    1  A    between atoms: C_1  and  C_2
REMARK    2  A    between atoms: C_9  and  N_21
REMARK    3  A    between atoms: C_10  and  C_11
REMARK    4  A    between atoms: N_13  and  C_14
REMARK    5  A    between atoms: C_22  and  C_24
REMARK    6  A    between atoms: C_24  and  N_61
REMARK    7  A    between atoms: C_29  and  C_31
REMARK                            x       y       z     vdW  Elec       q    Type
REMARK                         _______ _______ _______ _____ _____    ______ ____
ROOT
ATOM      1  C   UNL     1      -1.673   3.314  -3.136  0.00  0.00    +0.008 C 
ATOM      2  C   UNL     1      -1.124   2.810  -1.800  0.00  0.00    -0.009 C 
ATOM      3  C   UNL     1      -0.649   1.362  -1.954  0.00  0.00    +0.008 C 
ATOM      4  C   UNL     1       0.122   0.932  -0.705  0.00  0.00    +0.037 C 
ATOM      5  C   UNL     1      -0.729   1.224   0.525  0.00  0.00    -0.023 A 
ATOM      6  C   UNL     1      -1.769   2.087   0.460  0.00  0.00    -0.004 A 
ATOM      7  S   UNL     1      -2.446   2.100   2.096  0.00  0.00    -0.077 S 
ATOM      8  C   UNL     1      -1.369   0.975   2.854  0.00  0.00    +0.084 A 
ATOM      9  C   UNL     1      -0.511   0.616   1.824  0.00  0.00    +0.069 A 
ATOM     10  C   UNL     1      -2.231   2.858  -0.738  0.00  0.00    +0.046 C 
ENDROOT
BRANCH   9  11
ATOM     11  C   UNL     1       0.578  -0.342   2.041  0.00  0.00    +0.251 C 
ATOM     12  O   UNL     1       0.386  -1.531   1.871  0.00  0.00    -0.270 OA
ATOM     13  N   UNL     1       1.792   0.096   2.429  0.00  0.00    -0.279 N 
ATOM     14  H   UNL     1       1.963   1.048   2.508  0.00  0.00    +0.155 HD
BRANCH  13  15
ATOM     15  C   UNL     1       2.808  -0.823   2.716  0.00  0.00    +0.069 A 
ATOM     16  C   UNL     1       2.897  -2.009   2.000  0.00  0.00    +0.026 A 
ATOM     17  C   UNL     1       3.901  -2.914   2.286  0.00  0.00    +0.002 A 
ATOM     18  C   UNL     1       4.818  -2.640   3.284  0.00  0.00    +0.003 A 
ATOM     19  C   UNL     1       4.734  -1.461   4.001  0.00  0.00    +0.040 A 
ATOM     20  C   UNL     1       3.735  -0.548   3.717  0.00  0.00    +0.144 A 
ATOM     21  F   UNL     1       3.655   0.607   4.413  0.00  0.00    -0.204 F 
ENDBRANCH  13  15
ENDBRANCH   9  11
BRANCH   8  22
ATOM     22  N   UNL     1      -1.365   0.539   4.170  0.00  0.00    -0.281 N 
ATOM     23  C   UNL     1      -2.287   1.004   5.037  0.00  0.00    +0.201 C 
ATOM     24  O   UNL     1      -3.120   1.803   4.665  0.00  0.00    -0.278 OA
ATOM     25  H   UNL     1      -0.699  -0.100   4.468  0.00  0.00    +0.155 HD
BRANCH  23  26
ATOM     26  C   UNL     1      -2.282   0.531   6.468  0.00  0.00    +0.019 C 
BRANCH  26  33
ATOM     27  C   UNL     1      -4.679   0.642   6.788  0.00  0.00    -0.078 C 
ATOM     28  C   UNL     1      -5.799   1.438   7.463  0.00  0.00    -0.019 C 
ATOM     29  C   UNL     1      -5.644   1.339   8.983  0.00  0.00    -0.003 C 
ATOM     30  C   UNL     1      -4.261   1.860   9.382  0.00  0.00    -0.016 C 
ATOM     31  C   UNL     1      -3.186   1.052   8.652  0.00  0.00    -0.071 C 
ATOM     32  C   UNL     1      -1.803   1.583   9.033  0.00  0.00    -0.013 C 
ATOM     33  N   UNL     1      -3.376   1.208   7.194  0.00  0.00    +0.387 N 
ATOM     34  H   UNL     1      -3.361   2.208   6.962  0.00  0.00    -0.081 HD
ENDBRANCH  26  33
ENDBRANCH  23  26
ENDBRANCH   8  22
TORSDOF 5
