REMARK  Name = ZINC21161915
REMARK  2 active torsions:
REMARK  status: ('A' for Active; 'I' for Inactive)
REMARK    1  A    between atoms: C_5  and  N_8
REMARK    2  A    between atoms: C_9  and  C_11
REMARK                            x       y       z     vdW  Elec       q    Type
REMARK                         _______ _______ _______ _____ _____    ______ ____
ROOT
ATOM      1  C   UNL     1      -2.478   7.545  -0.077  0.00  0.00    +0.078 C 
ATOM      2  C   UNL     1      -1.827   7.095   1.234  0.00  0.00    +0.032 C 
ATOM      3  C   UNL     1      -1.551   5.591   1.170  0.00  0.00    +0.108 C 
ATOM      4  N   UNL     1      -0.662   5.303   0.036  0.00  0.00    -0.308 N 
ATOM      5  C   UNL     1      -1.286   5.684  -1.237  0.00  0.00    +0.108 C 
ATOM      6  C   UNL     1      -1.554   7.190  -1.245  0.00  0.00    +0.032 C 
ATOM      7  C   UNL     1      -0.288   3.970   0.026  0.00  0.00    +0.184 A 
ATOM      8  N   UNL     1       0.912   3.455   0.012  0.00  0.00    -0.139 NA
ATOM      9  N   UNL     1       1.110   2.077   0.003  0.00  0.00    -0.169 N 
ATOM     10  C   UNL     1       2.302   1.414  -0.013  0.00  0.00    +0.279 A 
ATOM     11  O   UNL     1       3.348   2.045  -0.018  0.00  0.00    -0.265 OA
ATOM     12  C   UNL     1       2.332   0.013  -0.025  0.00  0.00    +0.040 A 
ATOM     13  C   UNL     1       1.151  -0.685  -0.015  0.00  0.00    +0.053 A 
ATOM     14  N   UNL     1       0.002  -0.004   0.002  0.00  0.00    -0.226 NA
ATOM     15  C   UNL     1      -0.016   1.303   0.009  0.00  0.00    +0.201 A 
ATOM     16  S   UNL     1      -1.319   2.513   0.035  0.00  0.00    -0.013 S 
ATOM     17  C   UNL     1       1.090  -2.188  -0.017  0.00  0.00    +0.056 C 
ATOM     18  C   UNL     1       2.427  -2.777  -0.462  0.00  0.00    +0.006 C 
ATOM     19  C   UNL     1       3.541  -2.131   0.370  0.00  0.00    +0.005 C 
ATOM     20  C   UNL     1       3.674  -0.669  -0.052  0.00  0.00    +0.042 C 
ENDROOT
BRANCH   1  22
ATOM     21  N   UNL     1      -3.261   9.658  -1.098  0.00  0.00    -0.312 N 
ATOM     22  C   UNL     1      -2.697   9.036  -0.044  0.00  0.00    +0.216 C 
ATOM     23  O   UNL     1      -2.366   9.676   0.932  0.00  0.00    -0.276 OA
ATOM     24  H   UNL     1      -3.562   9.077  -1.982  0.00  0.00    +0.149 HD
BRANCH  21  29
ATOM     25  C   UNL     1      -5.441  13.795  -0.835  0.00  0.00    +0.000 C 
ATOM     26  C   UNL     1      -5.089  13.489  -2.303  0.00  0.00    +0.000 C 
ATOM     27  C   UNL     1      -3.636  13.146  -2.488  0.00  0.00    +0.002 C 
ATOM     28  C   UNL     1      -3.482  11.613  -2.430  0.00  0.00    +0.022 C 
ATOM     29  C   UNL     1      -3.475  11.107  -1.065  0.00  0.00    +0.073 C 
ATOM     30  C   UNL     1      -4.795  11.401  -0.324  0.00  0.00    +0.022 C 
ATOM     31  C   UNL     1      -4.766  12.827   0.156  0.00  0.00    +0.002 C 
ENDBRANCH  21  29
ENDBRANCH   1  22
TORSDOF 2
