REMARK  Name = ZINC20759430
REMARK  5 active torsions:
REMARK  status: ('A' for Active; 'I' for Inactive)
REMARK    1  A    between atoms: C_1  and  C_2
REMARK    2  A    between atoms: C_2  and  C_4
REMARK    3  A    between atoms: C_2  and  N_21
REMARK    4  A    between atoms: C_22  and  C_24
REMARK    5  A    between atoms: C_24  and  C_25
REMARK                            x       y       z     vdW  Elec       q    Type
REMARK                         _______ _______ _______ _____ _____    ______ ____
ROOT
ATOM      1  C   UNL     1       0.836  -0.462   1.171  0.00  0.00    +0.236 C 
ATOM      2  O   UNL     1       0.368  -1.228   1.986  0.00  0.00    -0.274 OA
ATOM      3  N   UNL     1       2.100  -0.017   1.312  0.00  0.00    -0.300 N 
ATOM      4  C   UNL     1       2.642   1.000   0.401  0.00  0.00    +0.110 C 
ATOM      5  C   UNL     1       3.949   0.475  -0.203  0.00  0.00    +0.047 C 
ATOM      6  C   UNL     1       4.899   0.067   0.924  0.00  0.00    +0.064 C 
ATOM      7  C   UNL     1       4.267  -1.049   1.756  0.00  0.00    +0.047 C 
ATOM      8  C   UNL     1       2.961  -0.537   2.383  0.00  0.00    +0.110 C 
ATOM      9  C   UNL     1       6.203  -0.411   0.339  0.00  0.00    +0.057 A 
ATOM     10  C   UNL     1       7.329   0.339   0.327  0.00  0.00    +0.039 A 
ATOM     11  N   UNL     1       8.298  -0.402  -0.269  0.00  0.00    -0.349 N 
ATOM     12  H   UNL     1       9.218  -0.134  -0.422  0.00  0.00    +0.166 HD
ATOM     13  C   UNL     1       7.738  -1.587  -0.608  0.00  0.00    +0.171 A 
ATOM     14  N   UNL     1       6.482  -1.580  -0.240  0.00  0.00    -0.348 N 
ATOM     15  C   UNL     1       7.404   1.734   0.893  0.00  0.00    +0.070 C 
ATOM     16  C   UNL     1       5.968   2.245   1.081  0.00  0.00    +0.088 C 
ATOM     17  N   UNL     1       5.171   1.230   1.784  0.00  0.00    -0.305 NA
ATOM     18  H   UNL     1       4.314   1.625   2.139  0.00  0.00    +0.123 HD
ATOM     19  H   UNL     1       5.855  -2.309  -0.366  0.00  0.00    +0.166 HD
ENDROOT
BRANCH   1  21
ATOM     20  C   UNL     1      -0.623   1.354   0.320  0.00  0.00    +0.038 C 
ATOM     21  C   UNL     1       0.003  -0.005   0.001  0.00  0.00    +0.156 C 
BRANCH  21  22
ATOM     22  N   UNL     1      -1.058  -0.983  -0.254  0.00  0.00    -0.304 N 
ATOM     23  C   UNL     1      -1.597  -1.087  -1.485  0.00  0.00    +0.218 C 
ATOM     24  O   UNL     1      -1.203  -0.372  -2.382  0.00  0.00    -0.275 OA
ATOM     25  H   UNL     1      -1.373  -1.555   0.463  0.00  0.00    +0.149 HD
BRANCH  23  26
ATOM     26  C   UNL     1      -2.688  -2.093  -1.747  0.00  0.00    +0.130 C 
BRANCH  26  27
ATOM     27  C   UNL     1      -3.113  -2.008  -3.191  0.00  0.00    -0.039 A 
ATOM     28  C   UNL     1      -4.129  -1.146  -3.562  0.00  0.00    +0.005 A 
ATOM     29  C   UNL     1      -4.519  -1.067  -4.885  0.00  0.00    +0.020 A 
ATOM     30  C   UNL     1      -3.894  -1.851  -5.838  0.00  0.00    +0.041 A 
ATOM     31  C   UNL     1      -2.878  -2.713  -5.466  0.00  0.00    +0.020 A 
ATOM     32  C   UNL     1      -2.484  -2.787  -4.144  0.00  0.00    +0.005 A 
ATOM     33 CL   UNL     1      -4.384  -1.753  -7.501  0.00  0.00    -0.084 Cl
ENDBRANCH  26  27
ENDBRANCH  23  26
ENDBRANCH  21  22
ENDBRANCH   1  21
TORSDOF 4
