REMARK  Name = ZINC39315595
REMARK  7 active torsions:
REMARK  status: ('A' for Active; 'I' for Inactive)
REMARK    1  A    between atoms: C_4  and  C_7
REMARK    2  A    between atoms: C_9  and  C_14
REMARK    3  A    between atoms: C_10  and  O_13
REMARK    4  A    between atoms: C_14  and  C_16
REMARK    5  A    between atoms: C_14  and  C_23
REMARK    6  A    between atoms: C_23  and  C_24
REMARK    7  A    between atoms: C_23  and  C_26
REMARK                            x       y       z     vdW  Elec       q    Type
REMARK                         _______ _______ _______ _____ _____    ______ ____
ROOT
ATOM      1  C   UNL     1       3.864  -0.959  -0.038  0.00  0.00    +0.160 C 
ATOM      2  C   UNL     1       4.000  -1.455  -1.467  0.00  0.00    +0.031 C 
ATOM      3  C   UNL     1       4.011  -2.789  -1.344  0.00  0.00    +0.232 C 
ATOM      4  N   UNL     1       3.900  -3.151  -0.043  0.00  0.00    -0.140 NA
ATOM      5  N   UNL     1       3.816  -2.203   0.748  0.00  0.00    -0.294 N 
ATOM      6  H   UNL     1       3.733  -2.266   1.712  0.00  0.00    +0.184 HD
ENDROOT
BRANCH   1  10
ATOM      7  C   UNL     1       0.255   1.274   0.444  0.00  0.00    +0.000 A 
ATOM      8  C   UNL     1       1.477   1.919   0.486  0.00  0.00    +0.000 A 
ATOM      9  C   UNL     1       2.645   1.196   0.330  0.00  0.00    +0.006 A 
ATOM     10  C   UNL     1       2.591  -0.171   0.133  0.00  0.00    -0.019 A 
ATOM     11  C   UNL     1       1.369  -0.816   0.092  0.00  0.00    +0.006 A 
ATOM     12  C   UNL     1       0.201  -0.093   0.246  0.00  0.00    +0.000 A 
ENDBRANCH   1  10
BRANCH   3  13
ATOM     13  O   UNL     1       4.118  -3.660  -2.382  0.00  0.00    -0.491 OA
ATOM     14  H   UNL     1       4.109  -4.590  -2.118  0.00  0.00    +0.294 HD
ENDBRANCH   3  13
BRANCH   2  15
ATOM     15  C   UNL     1       4.100  -0.637  -2.728  0.00  0.00    +0.083 C 
BRANCH  15  16
ATOM     16  C   UNL     1       5.495  -0.083  -2.860  0.00  0.00    -0.038 A 
ATOM     17  C   UNL     1       6.577  -0.942  -2.919  0.00  0.00    +0.006 A 
ATOM     18  C   UNL     1       7.857  -0.434  -3.039  0.00  0.00    +0.020 A 
ATOM     19  C   UNL     1       8.055   0.934  -3.100  0.00  0.00    +0.041 A 
ATOM     20  C   UNL     1       6.972   1.792  -3.040  0.00  0.00    +0.020 A 
ATOM     21  C   UNL     1       5.692   1.284  -2.926  0.00  0.00    +0.006 A 
ATOM     22 CL   UNL     1       9.662   1.572  -3.250  0.00  0.00    -0.084 Cl
ENDBRANCH  15  16
BRANCH  15  23
ATOM     23  C   UNL     1       3.787  -1.523  -3.936  0.00  0.00    +0.205 C 
BRANCH  23  24
ATOM     24  C   UNL     1       2.425  -2.064  -3.808  0.00  0.00    +0.082 C 
ATOM     25  N   UNL     1       1.373  -2.482  -3.710  0.00  0.00    -0.195 NA
ENDBRANCH  23  24
BRANCH  23  26
ATOM     26  C   UNL     1       3.884  -0.724  -5.169  0.00  0.00    +0.082 C 
ATOM     27  N   UNL     1       3.959  -0.108  -6.120  0.00  0.00    -0.195 NA
ENDBRANCH  23  26
ENDBRANCH  15  23
ENDBRANCH   2  15
TORSDOF 7
