REMARK  Name = ZINC38545964
REMARK  5 active torsions:
REMARK  status: ('A' for Active; 'I' for Inactive)
REMARK    1  A    between atoms: C_5  and  C_7
REMARK    2  A    between atoms: C_7  and  C_9
REMARK    3  A    between atoms: C_7  and  N_26
REMARK    4  A    between atoms: C_13  and  N_14
REMARK    5  A    between atoms: C_15  and  C_17
REMARK                            x       y       z     vdW  Elec       q    Type
REMARK                         _______ _______ _______ _____ _____    ______ ____
ROOT
ATOM      1  C   UNL     1       1.340  -2.999  -1.325  0.00  0.00    -0.025 A 
ATOM      2  C   UNL     1       0.262  -3.094  -2.205  0.00  0.00    -0.033 A 
ATOM      3  C   UNL     1       0.444  -3.862  -3.312  0.00  0.00    -0.005 A 
ATOM      4  S   UNL     1       2.106  -4.458  -3.148  0.00  0.00    -0.078 S 
ATOM      5  C   UNL     1       2.500  -3.652  -1.603  0.00  0.00    +0.074 A 
ATOM      6  C   UNL     1      -0.538  -4.134  -4.405  0.00  0.00    +0.043 C 
ATOM      7  C   UNL     1      -1.932  -3.709  -3.918  0.00  0.00    +0.005 C 
ATOM      8  C   UNL     1      -1.830  -2.314  -3.295  0.00  0.00    +0.005 C 
ATOM      9  C   UNL     1      -1.070  -2.386  -1.970  0.00  0.00    +0.036 C 
ENDROOT
BRANCH   5  10
ATOM     10  N   UNL     1       3.688  -3.687  -0.870  0.00  0.00    -0.273 N 
ATOM     11  C   UNL     1       4.707  -4.469  -1.275  0.00  0.00    +0.284 C 
ATOM     12  O   UNL     1       4.593  -5.146  -2.281  0.00  0.00    -0.266 OA
ATOM     13  H   UNL     1       3.779  -3.148  -0.068  0.00  0.00    +0.156 HD
BRANCH  11  14
ATOM     14  C   UNL     1       5.955  -4.506  -0.506  0.00  0.00    +0.189 A 
ATOM     15  C   UNL     1       7.062  -5.246  -0.807  0.00  0.00    +0.054 A 
ATOM     16  C   UNL     1       8.012  -4.976   0.191  0.00  0.00    +0.042 A 
ATOM     17  C   UNL     1       7.450  -4.094   1.047  0.00  0.00    +0.196 A 
ATOM     18  O   UNL     1       6.212  -3.809   0.621  0.00  0.00    -0.458 OA
ENDBRANCH  11  14
ENDBRANCH   5  10
BRANCH   1  19
ATOM     19  C   UNL     1       1.223  -2.168  -0.073  0.00  0.00    -0.003 C 
BRANCH  19  24
ATOM     20  C   UNL     1      -0.037   1.324  -0.759  0.00  0.00    +0.000 A 
ATOM     21  C   UNL     1       1.129   1.974  -1.117  0.00  0.00    +0.001 A 
ATOM     22  C   UNL     1       2.326   1.284  -1.139  0.00  0.00    +0.020 A 
ATOM     23  C   UNL     1       2.357  -0.057  -0.800  0.00  0.00    +0.043 A 
ATOM     24  C   UNL     1       1.190  -0.707  -0.441  0.00  0.00    -0.038 A 
ATOM     25  C   UNL     1      -0.007  -0.015  -0.421  0.00  0.00    +0.004 A 
ATOM     26 CL   UNL     1       3.861  -0.925  -0.827  0.00  0.00    -0.083 Cl
ENDBRANCH  19  24
BRANCH  19  27
ATOM     27  N   UNL     1      -0.014  -2.522   0.635  0.00  0.00    +0.387 N 
ATOM     28  C   UNL     1      -0.052  -1.827   1.927  0.00  0.00    -0.078 C 
ATOM     29  C   UNL     1      -1.376  -2.128   2.634  0.00  0.00    -0.019 C 
ATOM     30  C   UNL     1      -1.494  -3.638   2.862  0.00  0.00    -0.004 C 
ATOM     31  C   UNL     1      -1.378  -4.358   1.515  0.00  0.00    -0.019 C 
ATOM     32  C   UNL     1      -0.055  -3.974   0.850  0.00  0.00    -0.078 C 
ATOM     33  H   UNL     1      -0.810  -2.243   0.082  0.00  0.00    -0.080 HD
ENDBRANCH  19  27
ENDBRANCH   1  19
TORSDOF 5
