REMARK  Name = ZINC49028845
REMARK  4 active torsions:
REMARK  status: ('A' for Active; 'I' for Inactive)
REMARK    1  A    between atoms: C_3  and  O_21
REMARK    2  A    between atoms: C_6  and  C_7
REMARK    3  A    between atoms: N_15  and  C_16
REMARK    4  A    between atoms: C_16  and  C_17
REMARK                            x       y       z     vdW  Elec       q    Type
REMARK                         _______ _______ _______ _____ _____    ______ ____
ROOT
ATOM      1  C   UNL     1      -1.293  -0.774   0.011  0.00  0.00    +0.108 C 
ATOM      2  C   UNL     1      -1.598  -1.273   1.439  0.00  0.00    +0.029 C 
ATOM      3  C   UNL     1      -2.195  -2.684   1.194  0.00  0.00    +0.021 C 
ATOM      4  C   UNL     1      -1.367  -3.165  -0.024  0.00  0.00    +0.110 C 
ATOM      5  N   UNL     1      -1.177  -1.958  -0.853  0.00  0.00    -0.279 N 
ATOM      6  C   UNL     1      -0.938  -1.942  -2.180  0.00  0.00    +0.303 C 
ATOM      7  O   UNL     1      -0.799  -0.882  -2.760  0.00  0.00    -0.253 OA
ATOM      8  N   UNL     1      -0.854  -3.100  -2.863  0.00  0.00    -0.291 N 
ATOM      9  H   UNL     1      -0.965  -3.946  -2.401  0.00  0.00    +0.151 HD
ENDROOT
BRANCH   1  15
ATOM     10  C   UNL     1      -0.017   1.378   0.010  0.00  0.00    +0.009 A 
ATOM     11  C   UNL     1       1.169   2.087   0.002  0.00  0.00    +0.046 A 
ATOM     12  C   UNL     1       2.380   1.409  -0.013  0.00  0.00    +0.117 A 
ATOM     13  C   UNL     1       2.396   0.022  -0.021  0.00  0.00    +0.046 A 
ATOM     14  C   UNL     1       1.207  -0.681  -0.013  0.00  0.00    +0.009 A 
ATOM     15  C   UNL     1       0.002  -0.004   0.002  0.00  0.00    -0.027 A 
BRANCH  12  16
ATOM     16  O   UNL     1       3.548   2.104  -0.021  0.00  0.00    -0.507 OA
ATOM     17  H   UNL     1       3.895   2.300   0.860  0.00  0.00    +0.292 HD
ENDBRANCH  12  16
ENDBRANCH   1  15
BRANCH   8  18
ATOM     18  C   UNL     1      -0.594  -3.083  -4.305  0.00  0.00    +0.218 C 
BRANCH  18  19
ATOM     19  C   UNL     1      -0.547  -4.518  -4.832  0.00  0.00    +0.405 C 
ATOM     20  F   UNL     1      -1.773  -5.146  -4.587  0.00  0.00    -0.169 F 
ATOM     21  F   UNL     1      -0.299  -4.502  -6.209  0.00  0.00    -0.169 F 
ATOM     22  F   UNL     1       0.474  -5.220  -4.183  0.00  0.00    -0.169 F 
ENDBRANCH  18  19
ENDBRANCH   8  18
TORSDOF 4
