REMARK  Name = ZINC08741188
REMARK  6 active torsions:
REMARK  status: ('A' for Active; 'I' for Inactive)
REMARK    1  A    between atoms: C_1  and  C_2
REMARK    2  A    between atoms: C_4  and  C_16
REMARK    3  A    between atoms: C_5  and  C_15
REMARK    4  A    between atoms: N_6  and  C_7
REMARK    5  A    between atoms: N_17  and  N_18
REMARK    6  A    between atoms: C_22  and  N_25
REMARK                            x       y       z     vdW  Elec       q    Type
REMARK                         _______ _______ _______ _____ _____    ______ ____
ROOT
ATOM      1  C   UNL     1      -7.310  10.987   0.101  0.00  0.00    +0.064 C 
ATOM      2  C   UNL     1      -6.495   9.720   0.089  0.00  0.00    +0.022 A 
ATOM      3  C   UNL     1      -7.013   8.481   0.078  0.00  0.00    +0.032 A 
ATOM      4  C   UNL     1      -5.876   7.550   0.074  0.00  0.00    +0.016 A 
ATOM      5  C   UNL     1      -4.680   8.415   0.073  0.00  0.00    +0.030 A 
ATOM      6  N   UNL     1      -5.116   9.675   0.082  0.00  0.00    -0.315 N 
ATOM      7  C   UNL     1      -3.243   7.962   0.063  0.00  0.00    +0.064 C 
ENDROOT
BRANCH   6   8
ATOM      8  C   UNL     1      -4.286  10.801   0.084  0.00  0.00    +0.082 A 
ATOM      9  C   UNL     1      -3.874  11.365  -1.117  0.00  0.00    +0.030 A 
ATOM     10  C   UNL     1      -3.059  12.479  -1.112  0.00  0.00    +0.017 A 
ATOM     11  C   UNL     1      -2.642  13.029   0.088  0.00  0.00    +0.021 A 
ATOM     12  C   UNL     1      -3.045  12.468   1.287  0.00  0.00    +0.055 A 
ATOM     13  C   UNL     1      -3.866  11.355   1.290  0.00  0.00    +0.148 A 
ATOM     14  F   UNL     1      -4.259  10.808   2.460  0.00  0.00    -0.203 F 
ATOM     15 BR   UNL     1      -1.520  14.551   0.088  0.00  0.00    -0.050 Br
ENDBRANCH   6   8
BRANCH   4  16
ATOM     16  C   UNL     1      -5.917   6.161   0.066  0.00  0.00    +0.140 C 
ATOM     17  N   UNL     1      -4.775   5.455   0.056  0.00  0.00    -0.189 NA
BRANCH  17  18
ATOM     18  N   UNL     1      -4.814   4.166   0.049  0.00  0.00    -0.221 N 
ATOM     19  C   UNL     1      -3.642   3.442   0.039  0.00  0.00    +0.138 A 
ATOM     20  C   UNL     1      -3.690   2.045   0.031  0.00  0.00    +0.047 A 
ATOM     21  C   UNL     1      -2.504   1.332   0.021  0.00  0.00    +0.037 A 
ATOM     22  C   UNL     1      -1.308   2.036   0.019  0.00  0.00    +0.144 A 
ATOM     23  C   UNL     1      -1.334   3.422   0.033  0.00  0.00    +0.145 A 
ATOM     24  N   UNL     1      -2.475   4.077   0.037  0.00  0.00    -0.237 NA
ATOM     25  H   UNL     1      -5.668   3.706   0.051  0.00  0.00    +0.176 HD
BRANCH  22  26
ATOM     26  N   UNL     1      -0.016   1.313   0.009  0.00  0.00    +0.058 N 
ATOM     27  O   UNL     1       0.002  -0.004   0.002  0.00  0.00    -0.126 OA
ATOM     28  O   UNL     1       1.116   1.987   0.002  0.00  0.00    -0.126 OA
ENDBRANCH  22  26
ENDBRANCH  17  18
ENDBRANCH   4  16
TORSDOF 4
