REMARK  Name = ZINC39470537
REMARK  4 active torsions:
REMARK  status: ('A' for Active; 'I' for Inactive)
REMARK    1  A    between atoms: C_10  and  S_14
REMARK    2  A    between atoms: S_14  and  C_15
REMARK    3  A    between atoms: C_15  and  C_16
REMARK    4  A    between atoms: C_29  and  C_31
REMARK                            x       y       z     vdW  Elec       q    Type
REMARK                         _______ _______ _______ _____ _____    ______ ____
ROOT
ATOM      1  C   UNL     1       7.849   1.060  -2.088  0.00  0.00    +0.230 C 
ATOM      2  O   UNL     1       7.407   0.959  -3.213  0.00  0.00    -0.274 OA
ATOM      3  N   UNL     1       8.990   1.743  -1.872  0.00  0.00    -0.257 N 
ATOM      4  C   UNL     1       9.515   1.862  -0.577  0.00  0.00    +0.058 A 
ATOM      5  C   UNL     1      10.097   0.774   0.052  0.00  0.00    +0.025 A 
ATOM      6  C   UNL     1      10.631   0.917   1.320  0.00  0.00    +0.002 A 
ATOM      7  C   UNL     1      10.587   2.142   1.961  0.00  0.00    +0.002 A 
ATOM      8  C   UNL     1      10.000   3.231   1.343  0.00  0.00    +0.025 A 
ATOM      9  C   UNL     1       9.454   3.093   0.077  0.00  0.00    +0.055 A 
ATOM     10  N   UNL     1       8.806   4.166  -0.545  0.00  0.00    -0.284 N 
ATOM     11  C   UNL     1       9.090   4.489  -1.826  0.00  0.00    +0.219 C 
ATOM     12  O   UNL     1       8.463   5.367  -2.379  0.00  0.00    -0.275 OA
ATOM     13  C   UNL     1      10.182   3.767  -2.570  0.00  0.00    +0.128 C 
ATOM     14  C   UNL     1       9.707   2.369  -2.984  0.00  0.00    +0.194 C 
ATOM     15  H   UNL     1       8.147   4.681  -0.054  0.00  0.00    +0.155 HD
ENDROOT
BRANCH  14  16
ATOM     16  C   UNL     1      10.915   1.507  -3.360  0.00  0.00    +0.409 C 
ATOM     17  F   UNL     1      10.478   0.234  -3.742  0.00  0.00    -0.169 F 
ATOM     18  F   UNL     1      11.601   2.104  -4.423  0.00  0.00    -0.169 F 
ATOM     19  F   UNL     1      11.769   1.396  -2.257  0.00  0.00    -0.169 F 
ENDBRANCH  14  16
BRANCH   1  20
ATOM     20  C   UNL     1       7.122   0.421  -0.933  0.00  0.00    +0.169 C 
BRANCH  20  21
ATOM     21  S   UNL     1       5.634  -0.418  -1.544  0.00  0.00    -0.102 S 
BRANCH  21  31
ATOM     22  C   UNL     1      -0.016   1.360   0.009  0.00  0.00    +0.002 A 
ATOM     23  C   UNL     1       1.168   2.085   0.002  0.00  0.00    +0.002 A 
ATOM     24  C   UNL     1       2.384   1.438  -0.013  0.00  0.00    +0.028 A 
ATOM     25  C   UNL     1       2.427   0.049  -0.021  0.00  0.00    +0.073 A 
ATOM     26  C   UNL     1       1.225  -0.686  -0.013  0.00  0.00    +0.091 A 
ATOM     27  C   UNL     1       0.002  -0.004   0.002  0.00  0.00    +0.030 A 
ATOM     28  N   UNL     1       1.554  -1.992  -0.024  0.00  0.00    -0.209 NA
ATOM     29  C   UNL     1       2.864  -2.127  -0.037  0.00  0.00    +0.253 A 
ATOM     30  N   UNL     1       3.437  -0.878  -0.036  0.00  0.00    -0.274 N 
ATOM     31  C   UNL     1       4.884  -1.124  -0.052  0.00  0.00    +0.290 C 
ATOM     32  N   UNL     1       4.990  -2.592  -0.061  0.00  0.00    -0.147 NA
ATOM     33  N   UNL     1       3.853  -3.067  -0.052  0.00  0.00    -0.112 NA
ENDBRANCH  21  31
ENDBRANCH  20  21
ENDBRANCH   1  20
TORSDOF 4
