REMARK  Name = ZINC08974614
REMARK  6 active torsions:
REMARK  status: ('A' for Active; 'I' for Inactive)
REMARK    1  A    between atoms: C_1  and  C_2
REMARK    2  A    between atoms: C_2  and  C_3
REMARK    3  A    between atoms: C_3  and  C_4
REMARK    4  A    between atoms: C_4  and  N_42
REMARK    5  A    between atoms: C_10  and  S_22
REMARK    6  A    between atoms: N_11  and  C_15
REMARK                            x       y       z     vdW  Elec       q    Type
REMARK                         _______ _______ _______ _____ _____    ______ ____
ROOT
ATOM      1  C   UNL     1      -5.789   0.358   2.252  0.00  0.00    -0.032 C 
ATOM      2  C   UNL     1      -4.976   0.161   1.000  0.00  0.00    +0.041 A 
ATOM      3  C   UNL     1      -5.498  -0.636  -0.041  0.00  0.00    +0.277 A 
ATOM      4  O   UNL     1      -6.593  -1.166   0.084  0.00  0.00    -0.265 OA
ATOM      5  N   UNL     1      -4.791  -0.811  -1.167  0.00  0.00    -0.185 NA
ATOM      6  C   UNL     1      -3.613  -0.243  -1.318  0.00  0.00    +0.175 A 
ATOM      7  N   UNL     1      -3.071   0.528  -0.334  0.00  0.00    -0.277 N 
ATOM      8  C   UNL     1      -3.754   0.735   0.844  0.00  0.00    +0.110 A 
ATOM      9  N   UNL     1      -3.170   1.507   1.816  0.00  0.00    -0.346 N 
ATOM     10  C   UNL     1      -4.140   2.025   2.785  0.00  0.00    +0.028 C 
ATOM     11  H   UNL     1      -2.428   1.004   2.280  0.00  0.00    +0.145 HD
ATOM     12  N   UNL     1      -4.914   0.886   3.314  0.00  0.00    +0.393 N 
ATOM     13  H   UNL     1      -4.267   0.148   3.615  0.00  0.00    -0.079 HD
ENDROOT
BRANCH   7  14
ATOM     14  C   UNL     1      -1.813   1.117  -0.523  0.00  0.00    +0.050 A 
ATOM     15  C   UNL     1      -0.683   0.320  -0.647  0.00  0.00    +0.028 A 
ATOM     16  C   UNL     1       0.554   0.902  -0.838  0.00  0.00    +0.022 A 
ATOM     17  C   UNL     1       0.669   2.280  -0.902  0.00  0.00    +0.041 A 
ATOM     18  C   UNL     1      -0.455   3.077  -0.773  0.00  0.00    +0.022 A 
ATOM     19  C   UNL     1      -1.694   2.499  -0.582  0.00  0.00    +0.028 A 
ATOM     20 CL   UNL     1       2.226   3.010  -1.143  0.00  0.00    -0.084 Cl
ENDBRANCH   7  14
BRANCH   6  21
ATOM     21  S   UNL     1      -2.720  -0.489  -2.817  0.00  0.00    -0.105 S 
ATOM     22  H   UNL     1      -1.990  -1.647  -2.479  0.00  0.00    +0.110 HD
ENDBRANCH   6  21
BRANCH  12  23
ATOM     23  C   UNL     1      -5.727   1.318   4.476  0.00  0.00    -0.076 C 
BRANCH  23  24
ATOM     24  C   UNL     1      -6.528   2.572   4.120  0.00  0.00    -0.019 C 
BRANCH  24  26
ATOM     25  C   UNL     1      -8.255   4.187   4.927  0.00  0.00    +0.004 C 
ATOM     26  C   UNL     1      -7.454   2.933   5.283  0.00  0.00    -0.005 C 
ENDBRANCH  24  26
ENDBRANCH  23  24
ENDBRANCH  12  23
TORSDOF 5
