REMARK  Name = ZINC35727197
REMARK  14 active torsions:
REMARK  status: ('A' for Active; 'I' for Inactive)
REMARK    1  A    between atoms: C_1  and  C_2
REMARK    2  A    between atoms: C_2  and  C_3
REMARK    3  A    between atoms: C_3  and  C_4
REMARK    4  A    between atoms: C_4  and  C_5
REMARK    5  A    between atoms: C_5  and  C_6
REMARK    6  A    between atoms: C_6  and  N_7
REMARK    7  A    between atoms: C_8  and  C_10
REMARK    8  A    between atoms: C_10  and  S_11
REMARK    9  A    between atoms: S_11  and  C_12
REMARK   10  A    between atoms: C_23  and  C_26
REMARK   11  A    between atoms: N_29  and  C_30
REMARK   12  A    between atoms: C_30  and  C_31
REMARK   13  A    between atoms: C_30  and  C_32
REMARK   14  A    between atoms: C_30  and  C_33
REMARK                            x       y       z     vdW  Elec       q    Type
REMARK                         _______ _______ _______ _____ _____    ______ ____
ROOT
ATOM      1  C   UNL     1       3.701  -8.284   7.146  0.00  0.00    +0.192 A 
ATOM      2  N   UNL     1       4.038  -9.562   7.246  0.00  0.00    -0.207 NA
ATOM      3  C   UNL     1       4.676 -10.013   8.322  0.00  0.00    +0.127 A 
ATOM      4  C   UNL     1       4.987  -9.120   9.349  0.00  0.00    +0.083 A 
ATOM      5  C   UNL     1       4.617  -7.795   9.206  0.00  0.00    +0.135 A 
ATOM      6  N   UNL     1       3.988  -7.413   8.103  0.00  0.00    -0.210 NA
ATOM      7 CL   UNL     1       4.979  -6.643  10.454  0.00  0.00    -0.062 Cl
ATOM      8  N   UNL     1       5.026 -11.349   8.422  0.00  0.00    -0.312 N 
ATOM      9  C   UNL     1       4.713 -12.288   7.336  0.00  0.00    +0.125 C 
ATOM     10  C   UNL     1       3.904 -13.455   7.914  0.00  0.00    +0.128 C 
ATOM     11  N   UNL     1       4.595 -13.960   9.109  0.00  0.00    -0.280 N 
ATOM     12  C   UNL     1       4.908 -13.021  10.196  0.00  0.00    +0.092 C 
ATOM     13  C   UNL     1       5.722 -11.852   9.614  0.00  0.00    +0.128 C 
ATOM     14  C   UNL     1       5.728 -13.735  11.272  0.00  0.00    +0.030 C 
ATOM     15  C   UNL     1       4.936 -15.260   9.207  0.00  0.00    +0.303 C 
ATOM     16  O   UNL     1       5.414 -15.687  10.240  0.00  0.00    -0.253 OA
ATOM     17  N   UNL     1       4.747 -16.087   8.159  0.00  0.00    -0.294 N 
ATOM     18  H   UNL     1       4.300 -15.764   7.362  0.00  0.00    +0.151 HD
ENDROOT
BRANCH  17  19
ATOM     19  C   UNL     1       5.217 -17.473   8.226  0.00  0.00    +0.028 C 
ATOM     20  C   UNL     1       4.531 -18.189   9.391  0.00  0.00    +0.031 C 
ATOM     21  C   UNL     1       4.880 -18.189   6.917  0.00  0.00    +0.031 C 
ATOM     22  C   UNL     1       6.732 -17.487   8.440  0.00  0.00    +0.031 C 
ENDBRANCH  17  19
BRANCH   1  23
ATOM     23  S   UNL     1       2.858  -7.728   5.703  0.00  0.00    -0.077 S 
BRANCH  23  24
ATOM     24  C   UNL     1       2.613  -5.954   5.993  0.00  0.00    +0.173 C 
BRANCH  24  26
ATOM     25  N   UNL     1       1.600  -4.031   4.812  0.00  0.00    -0.315 N 
ATOM     26  C   UNL     1       1.892  -5.347   4.817  0.00  0.00    +0.223 C 
ATOM     27  O   UNL     1       1.575  -6.043   3.876  0.00  0.00    -0.275 OA
ATOM     28  H   UNL     1       1.854  -3.475   5.565  0.00  0.00    +0.149 HD
BRANCH  25  29
ATOM     29  C   UNL     1       0.899  -3.441   3.669  0.00  0.00    +0.104 C 
BRANCH  29  30
ATOM     30  C   UNL     1       0.693  -1.945   3.914  0.00  0.00    +0.019 C 
BRANCH  30  31
ATOM     31  C   UNL     1      -0.039  -1.329   2.720  0.00  0.00    +0.002 C 
BRANCH  31  32
ATOM     32  C   UNL     1      -0.246   0.167   2.965  0.00  0.00    -0.000 C 
BRANCH  32  34
ATOM     33  C   UNL     1      -1.184   2.279   2.017  0.00  0.00    +0.004 C 
ATOM     34  C   UNL     1      -0.977   0.783   1.771  0.00  0.00    -0.003 C 
ENDBRANCH  32  34
ENDBRANCH  31  32
ENDBRANCH  30  31
ENDBRANCH  29  30
ENDBRANCH  25  29
ENDBRANCH  24  26
ENDBRANCH  23  24
ENDBRANCH   1  23
TORSDOF 9
