REMARK  Name = ZINC21866114
REMARK  12 active torsions:
REMARK  status: ('A' for Active; 'I' for Inactive)
REMARK    1  A    between atoms: C_1  and  C_2
REMARK    2  A    between atoms: C_2  and  C_3
REMARK    3  A    between atoms: C_2  and  C_4
REMARK    4  A    between atoms: C_4  and  C_5
REMARK    5  A    between atoms: C_5  and  N_6
REMARK    6  A    between atoms: C_7  and  C_9
REMARK    7  A    between atoms: C_9  and  C_35
REMARK    8  A    between atoms: C_15  and  O_33
REMARK    9  A    between atoms: C_18  and  N_29
REMARK   10  A    between atoms: N_22  and  C_23
REMARK   11  A    between atoms: C_30  and  C_32
REMARK   12  A    between atoms: O_33  and  C_34
REMARK                            x       y       z     vdW  Elec       q    Type
REMARK                         _______ _______ _______ _____ _____    ______ ____
ROOT
ATOM      1  C   UNL     1       1.603  -4.709   2.066  0.00  0.00    +0.129 C 
ATOM      2  C   UNL     1       2.767  -4.875   1.090  0.00  0.00    +0.157 C 
ATOM      3  N   UNL     1       2.328  -4.484  -0.257  0.00  0.00    -0.332 N 
ATOM      4  C   UNL     1       3.046  -3.957  -1.282  0.00  0.00    +0.052 A 
ATOM      5  C   UNL     1       4.393  -3.607  -1.387  0.00  0.00    +0.030 A 
ATOM      6  C   UNL     1       4.821  -3.087  -2.594  0.00  0.00    +0.047 A 
ATOM      7  C   UNL     1       3.962  -2.911  -3.673  0.00  0.00    +0.121 A 
ATOM      8  C   UNL     1       2.619  -3.247  -3.599  0.00  0.00    +0.057 A 
ATOM      9  C   UNL     1       2.168  -3.774  -2.383  0.00  0.00    +0.025 A 
ATOM     10  C   UNL     1       0.852  -4.226  -1.953  0.00  0.00    +0.072 A 
ATOM     11  C   UNL     1       0.992  -4.641  -0.656  0.00  0.00    +0.127 A 
ATOM     12  C   UNL     1      -0.013  -5.167   0.272  0.00  0.00    +0.266 C 
ATOM     13  O   UNL     1      -1.130  -5.476  -0.101  0.00  0.00    -0.268 OA
ATOM     14  N   UNL     1       0.364  -5.293   1.565  0.00  0.00    -0.278 N 
ATOM     15  C   UNL     1       1.967  -5.385   3.389  0.00  0.00    +0.043 C 
ENDROOT
BRANCH  14  16
ATOM     16  C   UNL     1      -0.495  -6.038   2.489  0.00  0.00    +0.078 C 
ATOM     17  C   UNL     1      -0.752  -7.438   1.929  0.00  0.00    +0.022 C 
ATOM     18  C   UNL     1      -1.650  -8.216   2.894  0.00  0.00    +0.002 C 
ATOM     19  C   UNL     1      -2.981  -7.480   3.057  0.00  0.00    +0.000 C 
ATOM     20  C   UNL     1      -2.724  -6.079   3.616  0.00  0.00    +0.002 C 
ATOM     21  C   UNL     1      -1.827  -5.301   2.652  0.00  0.00    +0.022 C 
ENDBRANCH  14  16
BRANCH  10  22
ATOM     22  N   UNL     1      -0.316  -4.234  -2.711  0.00  0.00    -0.283 N 
ATOM     23  C   UNL     1      -0.252  -4.395  -4.047  0.00  0.00    +0.214 C 
ATOM     24  O   UNL     1       0.815  -4.616  -4.580  0.00  0.00    -0.276 OA
ATOM     25  C   UNL     1      -1.505  -4.301  -4.879  0.00  0.00    +0.109 C 
ATOM     26  H   UNL     1      -1.292  -4.108  -2.218  0.00  0.00    +0.155 HD
ENDBRANCH  10  22
BRANCH   1  28
ATOM     27  N   UNL     1       0.617  -2.520   1.471  0.00  0.00    -0.313 N 
ATOM     28  C   UNL     1       1.383  -3.239   2.316  0.00  0.00    +0.238 C 
ATOM     29  O   UNL     1       1.894  -2.704   3.276  0.00  0.00    -0.273 OA
ATOM     30  H   UNL     1       0.154  -3.005   0.600  0.00  0.00    +0.149 HD
BRANCH  27  31
ATOM     31  C   UNL     1       0.403  -1.091   1.714  0.00  0.00    +0.104 C 
BRANCH  31  32
ATOM     32  C   UNL     1      -0.496  -0.516   0.617  0.00  0.00    +0.022 C 
BRANCH  32  34
ATOM     33  C   UNL     1      -1.514   1.577  -0.291  0.00  0.00    +0.007 C 
ATOM     34  C   UNL     1      -0.720   0.976   0.871  0.00  0.00    -0.016 C 
ATOM     35  C   UNL     1      -1.502   1.160   2.172  0.00  0.00    +0.007 C 
ENDBRANCH  32  34
ENDBRANCH  31  32
ENDBRANCH  27  31
ENDBRANCH   1  28
BRANCH   7  36
ATOM     36  O   UNL     1       4.452  -2.394  -4.832  0.00  0.00    -0.495 OA
ATOM     37  C   UNL     1       5.842  -2.064  -4.858  0.00  0.00    +0.277 C 
ENDBRANCH   7  36
TORSDOF 7
