REMARK  Name = ZINC28082783
REMARK  7 active torsions:
REMARK  status: ('A' for Active; 'I' for Inactive)
REMARK    1  A    between atoms: C_1  and  C_2
REMARK    2  A    between atoms: C_2  and  C_4
REMARK    3  A    between atoms: C_2  and  N_12
REMARK    4  A    between atoms: C_13  and  C_15
REMARK    5  A    between atoms: C_16  and  C_17
REMARK    6  A    between atoms: C_20  and  N_23
REMARK    7  A    between atoms: C_24  and  C_26
REMARK                            x       y       z     vdW  Elec       q    Type
REMARK                         _______ _______ _______ _____ _____    ______ ____
ROOT
ATOM      1  N   UNL     1      -1.553  -2.109   0.242  0.00  0.00    -0.305 N 
ATOM      2  C   UNL     1      -1.700  -0.769   0.244  0.00  0.00    +0.237 C 
ATOM      3  O   UNL     1      -2.792  -0.277   0.027  0.00  0.00    -0.271 OA
ATOM      4  H   UNL     1      -0.566  -2.554   0.438  0.00  0.00    +0.150 HD
ENDROOT
BRANCH   1   6
ATOM      5  C   UNL     1      -2.939  -3.069  -1.529  0.00  0.00    +0.033 C 
ATOM      6  C   UNL     1      -2.707  -2.972  -0.020  0.00  0.00    +0.102 C 
BRANCH   6   7
ATOM      7  C   UNL     1      -2.442  -4.348   0.536  0.00  0.00    -0.009 A 
ATOM      8  C   UNL     1      -1.144  -4.809   0.651  0.00  0.00    +0.008 A 
ATOM      9  C   UNL     1      -0.900  -6.068   1.167  0.00  0.00    +0.020 A 
ATOM     10  C   UNL     1      -1.956  -6.872   1.557  0.00  0.00    +0.042 A 
ATOM     11  C   UNL     1      -3.256  -6.414   1.437  0.00  0.00    +0.040 A 
ATOM     12  C   UNL     1      -3.499  -5.151   0.926  0.00  0.00    +0.047 A 
ATOM     13 CL   UNL     1      -5.130  -4.575   0.775  0.00  0.00    -0.083 Cl
ATOM     14 CL   UNL     1      -1.650  -8.456   2.199  0.00  0.00    -0.083 Cl
ENDBRANCH   6   7
ENDBRANCH   1   6
BRANCH   2  15
ATOM     15  C   UNL     1      -0.548   0.092   0.506  0.00  0.00    +0.068 C 
ATOM     16  C   UNL     1      -0.695   1.434   0.507  0.00  0.00    +0.013 C 
BRANCH  16  17
ATOM     17  C   UNL     1       0.463   2.300   0.770  0.00  0.00    -0.025 A 
ATOM     18  C   UNL     1       1.718   1.736   1.026  0.00  0.00    +0.010 A 
ATOM     19  C   UNL     1       2.801   2.551   1.267  0.00  0.00    +0.024 A 
ATOM     20  C   UNL     1       2.647   3.934   1.268  0.00  0.00    +0.033 A 
ATOM     21  C   UNL     1       1.399   4.500   1.020  0.00  0.00    +0.024 A 
ATOM     22  C   UNL     1       0.312   3.692   0.772  0.00  0.00    +0.010 A 
BRANCH  20  23
ATOM     23  N   UNL     1       3.745   4.756   1.518  0.00  0.00    -0.286 N 
ATOM     24  C   UNL     1       3.585   5.904   2.206  0.00  0.00    +0.214 C 
ATOM     25  O   UNL     1       2.475   6.265   2.533  0.00  0.00    -0.276 OA
ATOM     26  C   UNL     1       4.786   6.740   2.567  0.00  0.00    +0.109 C 
ATOM     27  H   UNL     1       4.742   4.467   1.154  0.00  0.00    +0.155 HD
ENDBRANCH  20  23
ENDBRANCH  16  17
ENDBRANCH   2  15
TORSDOF 5
