REMARK  Name = ZINC06545675
REMARK  10 active torsions:
REMARK  status: ('A' for Active; 'I' for Inactive)
REMARK    1  A    between atoms: C_1  and  C_2
REMARK    2  A    between atoms: C_4  and  C_31
REMARK    3  A    between atoms: C_5  and  N_9
REMARK    4  A    between atoms: C_6  and  C_8
REMARK    5  A    between atoms: C_11  and  C_12
REMARK    6  A    between atoms: C_11  and  N_63
REMARK    7  A    between atoms: N_21  and  C_22
REMARK    8  A    between atoms: C_23  and  C_30
REMARK    9  A    between atoms: C_25  and  C_29
REMARK   10  A    between atoms: C_27  and  C_28
REMARK                            x       y       z     vdW  Elec       q    Type
REMARK                         _______ _______ _______ _____ _____    ______ ____
ROOT
ATOM      1  N   UNL     1       7.441   0.280   0.975  0.00  0.00    -0.327 N 
ATOM      2  C   UNL     1       6.903  -0.405  -0.091  0.00  0.00    +0.180 C 
ATOM      3  N   UNL     1       6.676  -1.760   0.005  0.00  0.00    -0.327 N 
ATOM      4  H   UNL     1       8.136  -0.130   1.514  0.00  0.00    +0.169 HD
ATOM      5  H   UNL     1       5.904  -2.154  -0.430  0.00  0.00    +0.169 HD
ATOM      6  N   UNL     1       6.561   0.200  -1.235  0.00  0.00    -0.353 N 
ATOM      7  H   UNL     1       5.860  -0.228  -1.852  0.00  0.00    +0.163 HD
ENDROOT
BRANCH   1  12
ATOM      8  C   UNL     1       5.597   5.499   2.214  0.00  0.00    +0.044 C 
ATOM      9  C   UNL     1       6.087   4.113   1.885  0.00  0.00    -0.050 A 
ATOM     10  C   UNL     1       5.244   3.028   2.041  0.00  0.00    +0.008 A 
ATOM     11  C   UNL     1       5.690   1.756   1.740  0.00  0.00    -0.027 A 
ATOM     12  C   UNL     1       6.986   1.567   1.280  0.00  0.00    +0.048 A 
ATOM     13  C   UNL     1       7.832   2.658   1.129  0.00  0.00    -0.027 A 
ATOM     14  C   UNL     1       7.379   3.928   1.426  0.00  0.00    +0.008 A 
ATOM     15  C   UNL     1       9.242   2.457   0.636  0.00  0.00    +0.046 C 
ATOM     16  C   UNL     1       4.770   0.574   1.911  0.00  0.00    +0.046 C 
ENDBRANCH   1  12
BRANCH   3  17
ATOM     17  C   UNL     1       7.559  -2.567   0.730  0.00  0.00    +0.048 A 
ATOM     18  C   UNL     1       8.363  -3.487   0.069  0.00  0.00    -0.027 A 
ATOM     19  C   UNL     1       9.237  -4.279   0.788  0.00  0.00    +0.008 A 
ATOM     20  C   UNL     1       9.304  -4.165   2.164  0.00  0.00    -0.050 A 
ATOM     21  C   UNL     1       8.501  -3.254   2.825  0.00  0.00    +0.008 A 
ATOM     22  C   UNL     1       7.629  -2.455   2.112  0.00  0.00    -0.027 A 
ATOM     23  C   UNL     1       6.754  -1.462   2.834  0.00  0.00    +0.046 C 
ATOM     24  C   UNL     1      10.255  -5.035   2.945  0.00  0.00    +0.044 C 
ATOM     25  C   UNL     1       8.286  -3.616  -1.430  0.00  0.00    +0.046 C 
ENDBRANCH   3  17
BRANCH   6  26
ATOM     26  C   UNL     1       7.203   1.504  -1.617  0.00  0.00    +0.151 C 
BRANCH  26  27
ATOM     27  C   UNL     1       7.497   1.457  -3.094  0.00  0.00    -0.025 A 
ATOM     28  C   UNL     1       6.505   1.770  -4.005  0.00  0.00    +0.009 A 
ATOM     29  C   UNL     1       6.770   1.727  -5.362  0.00  0.00    +0.050 A 
ATOM     30  C   UNL     1       8.030   1.370  -5.811  0.00  0.00    +0.166 A 
ATOM     31  C   UNL     1       9.030   1.055  -4.893  0.00  0.00    +0.167 A 
ATOM     32  C   UNL     1       8.757   1.099  -3.536  0.00  0.00    +0.055 A 
ATOM     33  O   UNL     1      10.168   0.740  -5.578  0.00  0.00    -0.453 OA
ATOM     34  C   UNL     1       9.973   1.260  -6.907  0.00  0.00    +0.466 C 
ATOM     35  O   UNL     1       8.542   1.252  -7.071  0.00  0.00    -0.453 OA
ENDBRANCH  26  27
ENDBRANCH   6  26
TORSDOF 4
