REMARK  Name = ZINC41096910
REMARK  10 active torsions:
REMARK  status: ('A' for Active; 'I' for Inactive)
REMARK    1  A    between atoms: C_1  and  C_2
REMARK    2  A    between atoms: C_8  and  N_10
REMARK    3  A    between atoms: N_10  and  S_11
REMARK    4  A    between atoms: S_11  and  C_14
REMARK    5  A    between atoms: C_17  and  O_20
REMARK    6  A    between atoms: O_20  and  C_21
REMARK    7  A    between atoms: C_24  and  S_27
REMARK    8  A    between atoms: S_27  and  N_30
REMARK    9  A    between atoms: N_30  and  C_31
REMARK   10  A    between atoms: C_37  and  C_39
REMARK                            x       y       z     vdW  Elec       q    Type
REMARK                         _______ _______ _______ _____ _____    ______ ____
ROOT
ATOM      1  O   UNL     1       3.454  -4.580   5.752  0.00  0.00    -0.456 OA
ENDROOT
BRANCH   1   5
ATOM      2  C   UNL     1       2.526  -1.636   3.015  0.00  0.00    +0.105 A 
ATOM      3  C   UNL     1       3.618  -2.456   2.802  0.00  0.00    +0.032 A 
ATOM      4  C   UNL     1       3.932  -3.443   3.717  0.00  0.00    +0.048 A 
ATOM      5  C   UNL     1       3.149  -3.610   4.851  0.00  0.00    +0.129 A 
ATOM      6  C   UNL     1       2.053  -2.785   5.061  0.00  0.00    +0.048 A 
ATOM      7  C   UNL     1       1.747  -1.797   4.146  0.00  0.00    +0.032 A 
BRANCH   2   8
ATOM      8  S   UNL     1       2.129  -0.379   1.846  0.00  0.00    +0.059 S 
ATOM      9  O   UNL     1       0.745  -0.099   2.004  0.00  0.00    -0.153 OA
ATOM     10  O   UNL     1       2.687  -0.788   0.604  0.00  0.00    -0.153 OA
BRANCH   8  11
ATOM     11  N   UNL     1       2.944   0.989   2.303  0.00  0.00    -0.187 NA
ATOM     12  H   UNL     1       2.451   1.774   2.587  0.00  0.00    +0.148 HD
BRANCH  11  19
ATOM     13  C   UNL     1       4.349   2.753   0.485  0.00  0.00    +0.009 C 
ATOM     14  C   UNL     1       4.889   2.408   1.875  0.00  0.00    +0.005 C 
ATOM     15  C   UNL     1       4.381   3.434   2.889  0.00  0.00    +0.005 C 
ATOM     16  C   UNL     1       4.921   3.089   4.278  0.00  0.00    +0.000 C 
ATOM     17  C   UNL     1       4.440   1.693   4.680  0.00  0.00    +0.002 C 
ATOM     18  C   UNL     1       4.949   0.667   3.666  0.00  0.00    +0.020 C 
ATOM     19  C   UNL     1       4.408   1.012   2.276  0.00  0.00    +0.079 C 
ENDBRANCH  11  19
ENDBRANCH   8  11
ENDBRANCH   2   8
ENDBRANCH   1   5
BRANCH   1  20
ATOM     20  C   UNL     1       4.541  -5.358   5.508  0.00  0.00    +0.129 A 
ATOM     21  C   UNL     1       5.788  -4.980   5.984  0.00  0.00    +0.048 A 
ATOM     22  C   UNL     1       6.891  -5.773   5.734  0.00  0.00    +0.032 A 
ATOM     23  C   UNL     1       6.753  -6.943   5.009  0.00  0.00    +0.105 A 
ATOM     24  C   UNL     1       5.511  -7.322   4.533  0.00  0.00    +0.032 A 
ATOM     25  C   UNL     1       4.404  -6.535   4.786  0.00  0.00    +0.048 A 
BRANCH  23  26
ATOM     26  S   UNL     1       8.162  -7.952   4.692  0.00  0.00    +0.059 S 
ATOM     27  O   UNL     1       7.864  -8.712   3.529  0.00  0.00    -0.153 OA
ATOM     28  O   UNL     1       9.298  -7.102   4.776  0.00  0.00    -0.153 OA
BRANCH  26  29
ATOM     29  N   UNL     1       8.284  -9.030   5.943  0.00  0.00    -0.187 NA
ATOM     30  H   UNL     1       9.047  -8.996   6.541  0.00  0.00    +0.148 HD
BRANCH  29  31
ATOM     31  C   UNL     1       7.239 -10.037   6.147  0.00  0.00    +0.079 C 
ATOM     32  C   UNL     1       6.227  -9.521   7.171  0.00  0.00    +0.020 C 
ATOM     33  C   UNL     1       6.939  -9.249   8.498  0.00  0.00    +0.002 C 
ATOM     34  C   UNL     1       7.571 -10.543   9.013  0.00  0.00    +0.000 C 
ATOM     35  C   UNL     1       8.583 -11.059   7.988  0.00  0.00    +0.005 C 
ATOM     36  C   UNL     1       7.872 -11.332   6.661  0.00  0.00    +0.005 C 
ATOM     37  C   UNL     1       8.884 -11.847   5.636  0.00  0.00    +0.009 C 
ENDBRANCH  29  31
ENDBRANCH  26  29
ENDBRANCH  23  26
ENDBRANCH   1  20
TORSDOF 8
