REMARK  Name = ZINC22181135
REMARK  8 active torsions:
REMARK  status: ('A' for Active; 'I' for Inactive)
REMARK    1  A    between atoms: C_1  and  C_2
REMARK    2  A    between atoms: C_2  and  C_4
REMARK    3  A    between atoms: C_2  and  S_16
REMARK    4  A    between atoms: N_6  and  C_7
REMARK    5  A    between atoms: S_16  and  C_17
REMARK    6  A    between atoms: N_22  and  C_23
REMARK    7  A    between atoms: C_26  and  O_29
REMARK    8  A    between atoms: O_29  and  C_30
REMARK                            x       y       z     vdW  Elec       q    Type
REMARK                         _______ _______ _______ _____ _____    ______ ____
ROOT
ATOM      1  C   UNL     1      -6.466   2.115   0.376  0.00  0.00    +0.161 A 
ATOM      2  N   UNL     1      -6.563   3.375  -0.001  0.00  0.00    -0.133 NA
ATOM      3  N   UNL     1      -7.783   4.011   0.044  0.00  0.00    -0.125 NA
ATOM      4  C   UNL     1      -8.848   3.357   0.465  0.00  0.00    +0.187 A 
ATOM      5  S   UNL     1      -8.156   1.750   0.824  0.00  0.00    -0.024 S 
ATOM      6  N   UNL     1     -10.160   3.799   0.590  0.00  0.00    -0.292 N 
ATOM      7  H   UNL     1     -10.920   3.145   1.041  0.00  0.00    +0.154 HD
ENDROOT
BRANCH   6   8
ATOM      8  C   UNL     1     -10.514   5.077   0.142  0.00  0.00    +0.033 A 
ATOM      9  C   UNL     1     -11.614   5.725   0.689  0.00  0.00    +0.027 A 
ATOM     10  C   UNL     1     -11.959   6.988   0.250  0.00  0.00    +0.048 A 
ATOM     11  C   UNL     1     -11.214   7.605  -0.745  0.00  0.00    +0.130 A 
ATOM     12  C   UNL     1     -10.119   6.956  -1.295  0.00  0.00    +0.048 A 
ATOM     13  C   UNL     1      -9.769   5.695  -0.853  0.00  0.00    +0.027 A 
BRANCH  11  14
ATOM     14  O   UNL     1     -11.558   8.847  -1.180  0.00  0.00    -0.406 OA
BRANCH  14  15
ATOM     15  C   UNL     1     -12.697   9.456  -0.569  0.00  0.00    +0.575 C 
ATOM     16  F   UNL     1     -12.474   9.588   0.806  0.00  0.00    -0.133 F 
ATOM     17  F   UNL     1     -12.907  10.720  -1.131  0.00  0.00    -0.133 F 
ATOM     18  F   UNL     1     -13.825   8.657  -0.784  0.00  0.00    -0.133 F 
ENDBRANCH  14  15
ENDBRANCH  11  14
ENDBRANCH   6   8
BRANCH   1  19
ATOM     19  S   UNL     1      -5.048   1.069   0.420  0.00  0.00    -0.084 S 
BRANCH  19  21
ATOM     20  C   UNL     1      -3.965   2.500  -1.645  0.00  0.00    +0.029 C 
ATOM     21  C   UNL     1      -3.704   2.126  -0.184  0.00  0.00    +0.136 C 
BRANCH  21  22
ATOM     22  C   UNL     1      -2.396   1.384  -0.082  0.00  0.00    +0.230 C 
ATOM     23  O   UNL     1      -2.385   0.171  -0.091  0.00  0.00    -0.274 OA
ATOM     24  N   UNL     1      -1.240   2.068   0.021  0.00  0.00    -0.282 N 
ATOM     25  H   UNL     1      -1.255   3.163   0.122  0.00  0.00    +0.155 HD
BRANCH  24  26
ATOM     26  C   UNL     1      -0.017   1.383  -0.001  0.00  0.00    +0.072 A 
ATOM     27  C   UNL     1       0.075   0.144  -0.620  0.00  0.00    +0.029 A 
ATOM     28  C   UNL     1       1.282  -0.527  -0.647  0.00  0.00    +0.043 A 
ATOM     29  C   UNL     1       2.402   0.034  -0.057  0.00  0.00    +0.161 A 
ATOM     30  C   UNL     1       2.315   1.271   0.562  0.00  0.00    +0.195 A 
ATOM     31  C   UNL     1       1.107   1.947   0.591  0.00  0.00    +0.182 A 
ATOM     32  F   UNL     1       1.021   3.153   1.194  0.00  0.00    -0.200 F 
ATOM     33  F   UNL     1       3.409   1.817   1.137  0.00  0.00    -0.199 F 
ATOM     34  F   UNL     1       3.581  -0.625  -0.085  0.00  0.00    -0.202 F 
ENDBRANCH  24  26
ENDBRANCH  21  22
ENDBRANCH  19  21
ENDBRANCH   1  19
TORSDOF 7
