REMARK  Name = ZINC41585189
REMARK  8 active torsions:
REMARK  status: ('A' for Active; 'I' for Inactive)
REMARK    1  A    between atoms: C_1  and  C_2
REMARK    2  A    between atoms: C_2  and  O_3
REMARK    3  A    between atoms: O_3  and  C_4
REMARK    4  A    between atoms: C_13  and  C_15
REMARK    5  A    between atoms: C_24  and  O_39
REMARK    6  A    between atoms: C_25  and  C_26
REMARK    7  A    between atoms: C_26  and  N_27
REMARK    8  A    between atoms: N_30  and  C_33
REMARK                            x       y       z     vdW  Elec       q    Type
REMARK                         _______ _______ _______ _____ _____    ______ ____
ROOT
ATOM      1  C   UNL     1       3.633  -3.800  -5.726  0.00  0.00    +0.006 A 
ATOM      2  C   UNL     1       2.946  -4.422  -6.755  0.00  0.00    +0.101 A 
ATOM      3  C   UNL     1       3.650  -4.873  -7.881  0.00  0.00    +0.338 A 
ATOM      4  O   UNL     1       3.039  -5.420  -8.782  0.00  0.00    -0.245 OA
ATOM      5  O   UNL     1       4.979  -4.720  -7.994  0.00  0.00    -0.422 OA
ATOM      6  C   UNL     1       5.714  -4.123  -7.031  0.00  0.00    +0.148 A 
ATOM      7  C   UNL     1       5.090  -3.635  -5.871  0.00  0.00    +0.026 A 
ATOM      8  C   UNL     1       5.846  -3.013  -4.876  0.00  0.00    +0.016 A 
ATOM      9  C   UNL     1       7.195  -2.873  -5.036  0.00  0.00    +0.046 A 
ATOM     10  C   UNL     1       7.821  -3.349  -6.185  0.00  0.00    +0.125 A 
ATOM     11  C   UNL     1       7.086  -3.980  -7.177  0.00  0.00    +0.051 A 
ENDROOT
BRANCH   1  21
ATOM     12  C   UNL     1       0.799  -1.700  -1.326  0.00  0.00    +0.163 A 
ATOM     13  C   UNL     1       0.258  -2.549  -0.376  0.00  0.00    +0.049 A 
ATOM     14  C   UNL     1       0.339  -3.925  -0.533  0.00  0.00    +0.004 A 
ATOM     15  C   UNL     1       0.964  -4.466  -1.620  0.00  0.00    +0.012 A 
ATOM     16  C   UNL     1       1.542  -3.627  -2.583  0.00  0.00    +0.022 A 
ATOM     17  C   UNL     1       1.430  -2.232  -2.448  0.00  0.00    +0.180 A 
ATOM     18  O   UNL     1       1.919  -1.413  -3.412  0.00  0.00    -0.418 OA
ATOM     19  C   UNL     1       2.949  -1.885  -4.150  0.00  0.00    +0.345 A 
ATOM     20  O   UNL     1       3.863  -1.158  -4.493  0.00  0.00    -0.245 OA
ATOM     21  C   UNL     1       2.927  -3.311  -4.526  0.00  0.00    +0.068 A 
ATOM     22  C   UNL     1       2.226  -4.175  -3.700  0.00  0.00    +0.027 A 
BRANCH  12  23
ATOM     23  O   UNL     1       0.709  -0.353  -1.168  0.00  0.00    -0.489 OA
BRANCH  23  25
ATOM     24  C   UNL     1       0.045   1.649   0.011  0.00  0.00    +0.048 C 
ATOM     25  C   UNL     1       0.048   0.119   0.008  0.00  0.00    +0.226 C 
ENDBRANCH  23  25
ENDBRANCH  12  23
ENDBRANCH   1  21
BRANCH  10  26
ATOM     26  O   UNL     1       9.163  -3.204  -6.331  0.00  0.00    -0.506 OA
ATOM     27  H   UNL     1       9.679  -3.943  -5.981  0.00  0.00    +0.292 HD
ENDBRANCH  10  26
BRANCH  11  28
ATOM     28  C   UNL     1       7.772  -4.491  -8.417  0.00  0.00    +0.127 C 
BRANCH  28  29
ATOM     29  N   UNL     1       7.802  -3.430  -9.433  0.00  0.00    -0.295 NA
ATOM     30  C   UNL     1       6.445  -3.098  -9.887  0.00  0.00    +0.103 C 
ATOM     31  C   UNL     1       6.503  -1.871 -10.804  0.00  0.00    +0.120 C 
ATOM     32  N   UNL     1       7.471  -2.137 -11.879  0.00  0.00    -0.327 N 
ATOM     33  C   UNL     1       8.814  -2.608 -11.506  0.00  0.00    +0.120 C 
ATOM     34  C   UNL     1       8.665  -3.805 -10.561  0.00  0.00    +0.103 C 
BRANCH  32  35
ATOM     35  C   UNL     1       7.125  -1.949 -13.219  0.00  0.00    +0.030 A 
ATOM     36  C   UNL     1       5.820  -1.614 -13.560  0.00  0.00    +0.023 A 
ATOM     37  C   UNL     1       5.481  -1.428 -14.886  0.00  0.00    +0.002 A 
ATOM     38  C   UNL     1       6.438  -1.575 -15.873  0.00  0.00    +0.000 A 
ATOM     39  C   UNL     1       7.737  -1.908 -15.537  0.00  0.00    +0.002 A 
ATOM     40  C   UNL     1       8.085  -2.090 -14.213  0.00  0.00    +0.023 A 
ENDBRANCH  32  35
ENDBRANCH  28  29
ENDBRANCH  11  28
TORSDOF 7
