REMARK  Name = ZINC12196315
REMARK  11 active torsions:
REMARK  status: ('A' for Active; 'I' for Inactive)
REMARK    1  A    between atoms: C_1  and  C_2
REMARK    2  A    between atoms: C_3  and  C_4
REMARK    3  A    between atoms: C_4  and  N_5
REMARK    4  A    between atoms: C_8  and  C_12
REMARK    5  A    between atoms: C_8  and  C_21
REMARK    6  A    between atoms: C_12  and  C_13
REMARK    7  A    between atoms: C_13  and  C_14
REMARK    8  A    between atoms: C_14  and  C_15
REMARK    9  A    between atoms: C_26  and  C_27
REMARK   10  A    between atoms: C_26  and  N_67
REMARK   11  A    between atoms: C_32  and  O_33
REMARK                            x       y       z     vdW  Elec       q    Type
REMARK                         _______ _______ _______ _____ _____    ______ ____
ROOT
ATOM      1  N   UNL     1      -0.196  -3.877  -5.924  0.00  0.00    -0.212 N 
ATOM      2  C   UNL     1      -1.268  -3.885  -5.107  0.00  0.00    +0.248 C 
ATOM      3  O   UNL     1      -1.819  -4.854  -4.632  0.00  0.00    -0.273 OA
ATOM      4  C   UNL     1      -1.640  -2.429  -4.907  0.00  0.00    +0.115 C 
ATOM      5  N   UNL     1      -0.640  -1.702  -5.709  0.00  0.00    -0.285 N 
ATOM      6  C   UNL     1       0.158  -2.633  -6.263  0.00  0.00    +0.310 C 
ATOM      7  O   UNL     1       1.095  -2.371  -6.992  0.00  0.00    -0.252 OA
ATOM      8  H   UNL     1      -0.571  -0.741  -5.815  0.00  0.00    +0.151 HD
ENDROOT
BRANCH   4   9
ATOM      9  C   UNL     1      -1.528  -2.044  -3.430  0.00  0.00    +0.018 C 
ATOM     10  C   UNL     1      -0.124  -2.377  -2.919  0.00  0.00    -0.013 C 
ATOM     11  C   UNL     1       0.000  -1.934  -1.459  0.00  0.00    -0.078 C 
ATOM     12  C   UNL     1      -1.604  -0.151  -1.804  0.00  0.00    -0.078 C 
ATOM     13  C   UNL     1      -1.776  -0.541  -3.273  0.00  0.00    -0.013 C 
ATOM     14  N   UNL     1      -0.225  -0.475  -1.380  0.00  0.00    +0.382 N 
ATOM     15  H   UNL     1       0.436  -0.002  -2.006  0.00  0.00    -0.081 HD
BRANCH  14  16
ATOM     16  C   UNL     1       0.002  -0.004   0.002  0.00  0.00    -0.039 C 
BRANCH  16  17
ATOM     17  C   UNL     1      -0.018   1.503   0.010  0.00  0.00    -0.022 A 
ATOM     18  C   UNL     1       1.168   2.210   0.003  0.00  0.00    +0.005 A 
ATOM     19  C   UNL     1       1.150   3.593   0.010  0.00  0.00    +0.000 A 
ATOM     20  C   UNL     1      -0.055   4.271   0.025  0.00  0.00    +0.004 A 
ATOM     21  C   UNL     1      -1.244   3.568   0.033  0.00  0.00    +0.045 A 
ATOM     22  C   UNL     1      -1.229   2.180   0.020  0.00  0.00    +0.118 A 
BRANCH  22  23
ATOM     23  O   UNL     1      -2.397   1.487   0.021  0.00  0.00    -0.507 OA
ATOM     24  H   UNL     1      -2.731   1.281   0.905  0.00  0.00    +0.292 HD
ENDBRANCH  22  23
ENDBRANCH  16  17
ENDBRANCH  14  16
ENDBRANCH   4   9
BRANCH   1  25
ATOM     25  C   UNL     1       0.498  -5.084  -6.383  0.00  0.00    +0.206 C 
BRANCH  25  28
ATOM     26  C   UNL     1       3.496  -6.038  -3.726  0.00  0.00    +0.106 C 
ATOM     27  C   UNL     1       2.424  -5.697  -4.675  0.00  0.00    -0.104 C 
ATOM     28  C   UNL     1       1.569  -5.425  -5.433  0.00  0.00    -0.083 C 
ENDBRANCH  25  28
ENDBRANCH   1  25
BRANCH   4  29
ATOM     29  C   UNL     1      -3.051  -2.154  -5.428  0.00  0.00    +0.036 C 
BRANCH  29  30
ATOM     30  C   UNL     1      -3.135  -2.547  -6.904  0.00  0.00    +0.007 C 
BRANCH  30  31
ATOM     31  C   UNL     1      -4.547  -2.272  -7.426  0.00  0.00    +0.035 C 
BRANCH  31  32
ATOM     32  C   UNL     1      -4.630  -2.659  -8.880  0.00  0.00    -0.047 A 
ATOM     33  C   UNL     1      -4.342  -1.729  -9.861  0.00  0.00    +0.003 A 
ATOM     34  C   UNL     1      -4.413  -2.086 -11.194  0.00  0.00    +0.000 A 
ATOM     35  C   UNL     1      -4.782  -3.370 -11.547  0.00  0.00    +0.000 A 
ATOM     36  C   UNL     1      -5.076  -4.299 -10.567  0.00  0.00    +0.000 A 
ATOM     37  C   UNL     1      -5.000  -3.944  -9.233  0.00  0.00    +0.003 A 
ENDBRANCH  31  32
ENDBRANCH  30  31
ENDBRANCH  29  30
ENDBRANCH   4  29
TORSDOF 10
