REMARK  Name = ZINC04196523
REMARK  4 active torsions:
REMARK  status: ('A' for Active; 'I' for Inactive)
REMARK    1  A    between atoms: N_8  and  C_9
REMARK    2  A    between atoms: C_9  and  C_10
REMARK    3  A    between atoms: C_17  and  C_20
REMARK    4  A    between atoms: C_20  and  N_21
REMARK                            x       y       z     vdW  Elec       q    Type
REMARK                         _______ _______ _______ _____ _____    ______ ____
ROOT
ATOM      1  C   UNL     1       0.278  -5.052  -0.040  0.00  0.00    -0.013 C 
ATOM      2  C   UNL     1      -0.045  -4.769  -1.508  0.00  0.00    +0.012 C 
ATOM      3  C   UNL     1      -1.147  -5.720  -1.980  0.00  0.00    -0.010 C 
ATOM      4  C   UNL     1      -2.402  -5.508  -1.132  0.00  0.00    +0.007 C 
ATOM      5  C   UNL     1      -2.079  -5.790   0.337  0.00  0.00    -0.010 C 
ATOM      6  C   UNL     1      -0.978  -4.840   0.809  0.00  0.00    +0.012 C 
ATOM      7  C   UNL     1      -1.602  -7.237   0.485  0.00  0.00    +0.012 C 
ATOM      8  C   UNL     1      -0.347  -7.449  -0.364  0.00  0.00    -0.013 C 
ATOM      9  C   UNL     1      -0.670  -7.166  -1.832  0.00  0.00    +0.012 C 
ATOM     10  C   UNL     1       0.755  -6.498   0.108  0.00  0.00    +0.017 C 
ENDROOT
BRANCH   1  11
ATOM     11  C   UNL     1       1.379  -4.101   0.433  0.00  0.00    +0.112 C 
BRANCH  11  19
ATOM     12  C   UNL     1      -0.019   1.539   0.011  0.00  0.00    +0.020 C 
ATOM     13  C   UNL     1       1.488   1.907  -0.002  0.00  0.00    +0.020 C 
ATOM     14  C   UNL     1       2.092   0.776   0.868  0.00  0.00    +0.109 C 
ATOM     15  N   UNL     1       1.313  -0.426   0.518  0.00  0.00    -0.286 N 
ATOM     16  C   UNL     1       0.002  -0.004   0.002  0.00  0.00    +0.109 C 
ATOM     17  C   UNL     1       1.733  -1.700   0.648  0.00  0.00    +0.302 C 
ATOM     18  O   UNL     1       2.842  -1.932   1.087  0.00  0.00    -0.253 OA
ATOM     19  N   UNL     1       0.923  -2.716   0.291  0.00  0.00    -0.299 N 
ATOM     20  H   UNL     1       0.038  -2.531  -0.059  0.00  0.00    +0.150 HD
ENDBRANCH  11  19
ENDBRANCH   1  11
BRANCH   8  21
ATOM     21  C   UNL     1       0.130  -8.896  -0.216  0.00  0.00    +0.112 C 
BRANCH  21  22
ATOM     22  N   UNL     1      -0.925  -9.806  -0.668  0.00  0.00    -0.299 N 
ATOM     23  C   UNL     1      -0.727 -11.139  -0.629  0.00  0.00    +0.302 C 
ATOM     24  O   UNL     1       0.327 -11.585  -0.218  0.00  0.00    -0.253 OA
ATOM     25  N   UNL     1      -1.698 -11.976  -1.045  0.00  0.00    -0.286 N 
ATOM     26  C   UNL     1      -3.011 -11.574  -1.568  0.00  0.00    +0.109 C 
ATOM     27  C   UNL     1      -3.792 -12.865  -1.890  0.00  0.00    +0.020 C 
ATOM     28  C   UNL     1      -3.090 -13.926  -1.002  0.00  0.00    +0.020 C 
ATOM     29  C   UNL     1      -1.615 -13.448  -1.056  0.00  0.00    +0.109 C 
ATOM     30  H   UNL     1      -1.766  -9.450  -0.995  0.00  0.00    +0.150 HD
ENDBRANCH  21  22
ENDBRANCH   8  21
TORSDOF 4
