REMARK  Name = ZINC39237525
REMARK  8 active torsions:
REMARK  status: ('A' for Active; 'I' for Inactive)
REMARK    1  A    between atoms: C_1  and  C_2
REMARK    2  A    between atoms: C_3  and  C_23
REMARK    3  A    between atoms: C_5  and  C_7
REMARK    4  A    between atoms: C_15  and  C_16
REMARK    5  A    between atoms: C_18  and  N_22
REMARK    6  A    between atoms: C_19  and  C_20
REMARK    7  A    between atoms: C_23  and  S_24
REMARK    8  A    between atoms: S_24  and  C_25
REMARK                            x       y       z     vdW  Elec       q    Type
REMARK                         _______ _______ _______ _____ _____    ______ ____
ROOT
ATOM      1  C   UNL     1       1.043  -4.062  -0.027  0.00  0.00    +0.085 C 
ATOM      2  C   UNL     1       1.033  -4.613  -1.442  0.00  0.00    +0.108 C 
ATOM      3  C   UNL     1      -0.480  -4.735  -1.827  0.00  0.00    +0.286 C 
ATOM      4  N   UNL     1      -0.309  -4.814  -3.279  0.00  0.00    -0.230 N 
ATOM      5  N   UNL     1       0.721  -3.876  -3.548  0.00  0.00    -0.193 NA
ATOM      6  C   UNL     1       1.527  -3.714  -2.535  0.00  0.00    +0.043 C 
ATOM      7  C   UNL     1       2.720  -2.795  -2.466  0.00  0.00    +0.063 C 
ATOM      8  O   UNL     1      -0.957  -5.865  -1.125  0.00  0.00    -0.455 OA
ATOM      9  C   UNL     1      -0.759  -5.787   0.220  0.00  0.00    +0.194 C 
ATOM     10  C   UNL     1       0.141  -4.969   0.790  0.00  0.00    +0.094 C 
ATOM     11  H   UNL     1      -0.787  -5.375  -3.909  0.00  0.00    +0.172 HD
ENDROOT
BRANCH   1  16
ATOM     12  C   UNL     1      -0.020   1.502   0.077  0.00  0.00    +0.052 C 
ATOM     13  C   UNL     1       0.001  -0.005   0.034  0.00  0.00    -0.009 A 
ATOM     14  C   UNL     1      -1.038  -0.871  -0.053  0.00  0.00    -0.027 A 
ATOM     15  C   UNL     1      -0.778  -2.228  -0.079  0.00  0.00    +0.016 A 
ATOM     16  C   UNL     1       0.507  -2.653  -0.016  0.00  0.00    -0.001 A 
ATOM     17  S   UNL     1       1.402  -1.111   0.076  0.00  0.00    -0.097 S 
BRANCH  14  18
ATOM     18  C   UNL     1      -2.454  -0.362  -0.121  0.00  0.00    +0.110 C 
BRANCH  18  19
ATOM     19  S   UNL     1      -2.923  -0.105  -1.854  0.00  0.00    -0.120 S 
BRANCH  19  20
ATOM     20  C   UNL     1      -4.582   0.482  -1.765  0.00  0.00    +0.008 A 
ATOM     21  C   UNL     1      -5.197   0.645  -0.530  0.00  0.00    +0.016 A 
ATOM     22  C   UNL     1      -6.497   1.105  -0.464  0.00  0.00    +0.021 A 
ATOM     23  C   UNL     1      -7.187   1.405  -1.625  0.00  0.00    +0.041 A 
ATOM     24  C   UNL     1      -6.577   1.244  -2.857  0.00  0.00    +0.021 A 
ATOM     25  C   UNL     1      -5.275   0.789  -2.930  0.00  0.00    +0.016 A 
ATOM     26 CL   UNL     1      -8.822   1.983  -1.538  0.00  0.00    -0.084 Cl
ENDBRANCH  19  20
ENDBRANCH  18  19
ENDBRANCH  14  18
ENDBRANCH   1  16
BRANCH   9  27
ATOM     27  N   UNL     1      -1.502  -6.601   1.038  0.00  0.00    -0.329 N 
ATOM     28  H   UNL     1      -2.149  -7.213   0.655  0.00  0.00    +0.145 HD
ATOM     29  H   UNL     1      -1.379  -6.564   2.000  0.00  0.00    +0.145 HD
ENDBRANCH   9  27
BRANCH  10  30
ATOM     30  C   UNL     1       0.239  -4.938   2.218  0.00  0.00    +0.100 C 
ATOM     31  N   UNL     1       0.317  -4.912   3.351  0.00  0.00    -0.191 NA
ENDBRANCH  10  30
TORSDOF 6
