REMARK  Name = ZINC08918159
REMARK  5 active torsions:
REMARK  status: ('A' for Active; 'I' for Inactive)
REMARK    1  A    between atoms: C_1  and  C_2
REMARK    2  A    between atoms: C_12  and  N_67
REMARK    3  A    between atoms: C_17  and  C_18
REMARK    4  A    between atoms: C_17  and  N_67
REMARK    5  A    between atoms: C_30  and  C_37
REMARK                            x       y       z     vdW  Elec       q    Type
REMARK                         _______ _______ _______ _____ _____    ______ ____
ROOT
ATOM      1  N   UNL     1      -0.284  -2.006  -1.379  0.00  0.00    +0.385 N 
ATOM      2  H   UNL     1       0.578  -2.390  -0.976  0.00  0.00    -0.085 HD
ATOM      3  H   UNL     1      -1.085  -2.277  -0.795  0.00  0.00    -0.085 HD
ENDROOT
BRANCH   1  15
ATOM      4  C   UNL     1      -2.858  -9.599  -3.279  0.00  0.00    +0.044 C 
ATOM      5  C   UNL     1      -2.723  -8.157  -2.862  0.00  0.00    -0.050 A 
ATOM      6  C   UNL     1      -3.595  -7.648  -1.914  0.00  0.00    +0.005 A 
ATOM      7  C   UNL     1      -3.533  -6.335  -1.482  0.00  0.00    +0.026 A 
ATOM      8  C   UNL     1      -2.544  -5.532  -2.046  0.00  0.00    +0.047 A 
ATOM      9  C   UNL     1      -1.653  -6.058  -3.017  0.00  0.00    +0.003 A 
ATOM     10  C   UNL     1      -1.739  -7.389  -3.435  0.00  0.00    +0.013 A 
ATOM     11  C   UNL     1      -0.770  -4.968  -3.381  0.00  0.00    -0.021 A 
ATOM     12  C   UNL     1      -1.150  -3.892  -2.654  0.00  0.00    +0.006 A 
ATOM     13  N   UNL     1      -2.208  -4.223  -1.853  0.00  0.00    -0.359 N 
ATOM     14  H   UNL     1      -2.654  -3.616  -1.242  0.00  0.00    +0.166 HD
ATOM     15  C   UNL     1      -0.469  -2.546  -2.739  0.00  0.00    -0.024 C 
ATOM     16  C   UNL     1       0.897  -2.726  -3.411  0.00  0.00    -0.009 C 
ATOM     17  C   UNL     1       0.724  -3.520  -4.709  0.00  0.00    +0.003 C 
ATOM     18  C   UNL     1       0.366  -4.972  -4.372  0.00  0.00    +0.037 C 
ENDBRANCH   1  15
BRANCH   1  19
ATOM     19  C   UNL     1      -0.189  -0.534  -1.420  0.00  0.00    -0.067 C 
BRANCH  19  20
ATOM     20  C   UNL     1       0.002  -0.004   0.002  0.00  0.00    +0.087 C 
ATOM     21  C   UNL     1      -0.019   1.554   0.011  0.00  0.00    +0.042 C 
ATOM     22  C   UNL     1      -0.645   1.971   1.343  0.00  0.00    +0.016 C 
ATOM     23  C   UNL     1      -0.300   3.421   1.668  0.00  0.00    +0.021 C 
ATOM     24  C   UNL     1      -0.944   3.845   2.969  0.00  0.00    -0.073 C 
ATOM     25  C   UNL     1      -1.840   3.083   3.545  0.00  0.00    +0.008 C 
ATOM     26  C   UNL     1      -0.525   5.160   3.590  0.00  0.00    +0.030 C 
ATOM     27  C   UNL     1       1.004   5.198   3.674  0.00  0.00    +0.005 C 
ATOM     28  C   UNL     1       1.601   4.930   2.291  0.00  0.00    +0.007 C 
ATOM     29  C   UNL     1       1.224   3.523   1.831  0.00  0.00    -0.022 C 
ATOM     30  C   UNL     1       1.861   3.220   0.475  0.00  0.00    +0.052 C 
ATOM     31  C   UNL     1       1.496   1.835  -0.002  0.00  0.00    +0.181 C 
ATOM     32  O   UNL     1       2.046   0.776   0.833  0.00  0.00    -0.461 OA
ATOM     33  C   UNL     1       1.381  -0.360   0.524  0.00  0.00    +0.309 C 
ATOM     34  O   UNL     1       1.817  -1.480   0.644  0.00  0.00    -0.251 OA
ATOM     35  C   UNL     1       1.701   2.500   2.864  0.00  0.00    +0.012 C 
ENDBRANCH  19  20
ENDBRANCH   1  19
TORSDOF 3
