REMARK  Name = ZINC02519922
REMARK  7 active torsions:
REMARK  status: ('A' for Active; 'I' for Inactive)
REMARK    1  A    between atoms: C_4  and  C_7
REMARK    2  A    between atoms: C_7  and  O_9
REMARK    3  A    between atoms: O_9  and  C_10
REMARK    4  A    between atoms: C_19  and  C_20
REMARK    5  A    between atoms: N_21  and  N_22
REMARK    6  A    between atoms: C_23  and  C_25
REMARK    7  A    between atoms: C_34  and  O_35
REMARK                            x       y       z     vdW  Elec       q    Type
REMARK                         _______ _______ _______ _____ _____    ______ ____
ROOT
ATOM      1  C   UNL     1       1.306   3.311  -0.100  0.00  0.00    +0.141 A 
ATOM      2  C   UNL     1       2.525   3.985  -0.168  0.00  0.00    +0.047 A 
ATOM      3  C   UNL     1       3.712   3.325  -0.115  0.00  0.00    +0.012 A 
ATOM      4  C   UNL     1       3.752   1.925   0.015  0.00  0.00    -0.017 A 
ATOM      5  C   UNL     1       4.973   1.233   0.068  0.00  0.00    +0.008 A 
ATOM      6  C   UNL     1       4.974  -0.123   0.194  0.00  0.00    +0.001 A 
ATOM      7  C   UNL     1       3.780  -0.837   0.269  0.00  0.00    +0.001 A 
ATOM      8  C   UNL     1       2.578  -0.197   0.219  0.00  0.00    +0.009 A 
ATOM      9  C   UNL     1       2.540   1.196   0.091  0.00  0.00    -0.006 A 
ATOM     10  C   UNL     1       1.273   1.923   0.034  0.00  0.00    +0.045 A 
ENDROOT
BRANCH  10  11
ATOM     11  C   UNL     1      -0.008   1.206   0.110  0.00  0.00    +0.142 C 
ATOM     12  N   UNL     1      -1.124   1.872   0.147  0.00  0.00    -0.187 NA
BRANCH  12  13
ATOM     13  N   UNL     1      -2.338   1.195   0.320  0.00  0.00    -0.203 N 
ATOM     14  C   UNL     1      -3.502   1.871   0.254  0.00  0.00    +0.267 C 
ATOM     15  O   UNL     1      -3.505   3.049  -0.048  0.00  0.00    -0.268 OA
ATOM     16  H   UNL     1      -2.340   0.239   0.488  0.00  0.00    +0.178 HD
BRANCH  14  17
ATOM     17  C   UNL     1      -4.773   1.182   0.549  0.00  0.00    +0.080 A 
ATOM     18  C   UNL     1      -4.764  -0.161   0.894  0.00  0.00    +0.025 A 
ATOM     19  C   UNL     1      -5.975  -0.810   1.173  0.00  0.00    -0.017 A 
ATOM     20  C   UNL     1      -6.004  -2.171   1.526  0.00  0.00    +0.008 A 
ATOM     21  C   UNL     1      -7.194  -2.774   1.792  0.00  0.00    +0.001 A 
ATOM     22  C   UNL     1      -8.390  -2.061   1.720  0.00  0.00    +0.001 A 
ATOM     23  C   UNL     1      -8.402  -0.743   1.381  0.00  0.00    +0.008 A 
ATOM     24  C   UNL     1      -7.193  -0.085   1.099  0.00  0.00    -0.014 A 
ATOM     25  C   UNL     1      -7.174   1.275   0.748  0.00  0.00    +0.054 A 
ATOM     26  C   UNL     1      -5.988   1.895   0.484  0.00  0.00    +0.130 A 
BRANCH  26  27
ATOM     27  O   UNL     1      -5.978   3.211   0.151  0.00  0.00    -0.506 OA
ATOM     28  H   UNL     1      -6.056   3.376  -0.799  0.00  0.00    +0.292 HD
ENDBRANCH  26  27
ENDBRANCH  14  17
ENDBRANCH  12  13
ENDBRANCH  10  11
BRANCH   1  29
ATOM     29  O   UNL     1       0.144   4.011  -0.161  0.00  0.00    -0.422 OA
BRANCH  29  30
ATOM     30  C   UNL     1      -0.386   4.419   1.008  0.00  0.00    +0.344 C 
ATOM     31  O   UNL     1       0.115   4.067   2.058  0.00  0.00    -0.245 OA
BRANCH  30  35
ATOM     32  C   UNL     1      -3.809   6.933   1.025  0.00  0.00    +0.000 A 
ATOM     33  C   UNL     1      -3.183   6.613   2.217  0.00  0.00    +0.001 A 
ATOM     34  C   UNL     1      -2.071   5.797   2.219  0.00  0.00    +0.015 A 
ATOM     35  C   UNL     1      -1.577   5.293   1.014  0.00  0.00    +0.059 A 
ATOM     36  C   UNL     1      -2.210   5.624  -0.186  0.00  0.00    +0.015 A 
ATOM     37  C   UNL     1      -3.325   6.436  -0.172  0.00  0.00    +0.001 A 
ENDBRANCH  30  35
ENDBRANCH  29  30
ENDBRANCH   1  29
TORSDOF 7
