REMARK  Name = ZINC23429828
REMARK  9 active torsions:
REMARK  status: ('A' for Active; 'I' for Inactive)
REMARK    1  A    between atoms: C_1  and  C_2
REMARK    2  A    between atoms: C_2  and  C_3
REMARK    3  A    between atoms: C_8  and  O_9
REMARK    4  A    between atoms: O_9  and  C_10
REMARK    5  A    between atoms: C_10  and  C_11
REMARK    6  A    between atoms: C_11  and  N_12
REMARK    7  A    between atoms: N_12  and  C_13
REMARK    8  A    between atoms: N_12  and  C_14
REMARK    9  A    between atoms: C_23  and  O_25
REMARK                            x       y       z     vdW  Elec       q    Type
REMARK                         _______ _______ _______ _____ _____    ______ ____
ROOT
ATOM      1  C   UNL     1      -0.001   5.345   0.012  0.00  0.00    -0.008 C 
ATOM      2  C   UNL     1      -0.538   3.929   0.008  0.00  0.00    -0.055 A 
ATOM      3  C   UNL     1      -1.839   3.463   0.094  0.00  0.00    +0.002 A 
ATOM      4  C   UNL     1      -2.096   2.106   0.066  0.00  0.00    +0.000 A 
ATOM      5  C   UNL     1      -1.049   1.209  -0.038  0.00  0.00    +0.000 A 
ATOM      6  C   UNL     1       0.249   1.671  -0.123  0.00  0.00    +0.004 A 
ATOM      7  C   UNL     1       0.509   3.032  -0.101  0.00  0.00    -0.037 A 
ATOM      8  C   UNL     1       1.815   3.785  -0.179  0.00  0.00    +0.017 C 
ATOM      9  C   UNL     1       1.437   5.234  -0.540  0.00  0.00    +0.116 C 
ATOM     10  C   UNL     1       2.707   3.193  -1.267  0.00  0.00    -0.005 C 
ATOM     11  C   UNL     1       4.035   3.954  -1.304  0.00  0.00    -0.082 C 
ATOM     12  N   UNL     1       4.685   3.868   0.011  0.00  0.00    +0.379 N 
ATOM     13  C   UNL     1       3.863   4.496   1.053  0.00  0.00    -0.082 C 
ATOM     14  C   UNL     1       2.530   3.753   1.169  0.00  0.00    -0.005 C 
ATOM     15  H   UNL     1       4.839   2.812   0.275  0.00  0.00    -0.086 HD
ATOM     16  H   UNL     1       5.656   4.383  -0.027  0.00  0.00    -0.086 HD
ENDROOT
BRANCH   1  17
ATOM     17  N   UNL     1       0.017   5.881   1.379  0.00  0.00    +0.386 N 
ATOM     18  C   UNL     1      -1.290   5.714   2.029  0.00  0.00    -0.095 C 
ATOM     19  H   UNL     1       0.757   5.308   1.957  0.00  0.00    -0.081 HD
BRANCH  17  20
ATOM     20  C   UNL     1       0.432   7.290   1.386  0.00  0.00    -0.037 C 
BRANCH  20  21
ATOM     21  C   UNL     1       0.561   7.777   2.831  0.00  0.00    +0.210 C 
BRANCH  21  22
ATOM     22  O   UNL     1       1.619   7.068   3.480  0.00  0.00    -0.494 OA
BRANCH  22  28
ATOM     23  C   UNL     1       2.881   6.734   5.469  0.00  0.00    -0.006 A 
ATOM     24  C   UNL     1       3.131   7.055   6.789  0.00  0.00    +0.007 A 
ATOM     25  C   UNL     1       2.373   8.023   7.422  0.00  0.00    +0.000 A 
ATOM     26  C   UNL     1       1.363   8.672   6.735  0.00  0.00    +0.004 A 
ATOM     27  C   UNL     1       1.112   8.358   5.414  0.00  0.00    +0.046 A 
ATOM     28  C   UNL     1       1.868   7.383   4.778  0.00  0.00    +0.124 A 
BRANCH  23  30
ATOM     29  C   UNL     1       4.855   6.347   4.019  0.00  0.00    +0.009 C 
ATOM     30  C   UNL     1       3.708   5.679   4.780  0.00  0.00    +0.035 C 
ENDBRANCH  23  30
ENDBRANCH  22  28
ENDBRANCH  21  22
ENDBRANCH  20  21
ENDBRANCH  17  20
ENDBRANCH   1  17
BRANCH   9  31
ATOM     31  O   UNL     1       1.455   5.427  -1.956  0.00  0.00    -0.392 OA
ATOM     32  H   UNL     1       2.406   5.378  -2.505  0.00  0.00    +0.210 HD
ENDBRANCH   9  31
TORSDOF 7
