REMARK  Name = ZINC11865357
REMARK  8 active torsions:
REMARK  status: ('A' for Active; 'I' for Inactive)
REMARK    1  A    between atoms: C_1  and  O_2
REMARK    2  A    between atoms: O_2  and  C_3
REMARK    3  A    between atoms: C_6  and  C_11
REMARK    4  A    between atoms: C_8  and  O_9
REMARK    5  A    between atoms: O_9  and  C_10
REMARK    6  A    between atoms: C_16  and  O_38
REMARK    7  A    between atoms: C_17  and  C_22
REMARK    8  A    between atoms: C_22  and  N_65
REMARK                            x       y       z     vdW  Elec       q    Type
REMARK                         _______ _______ _______ _____ _____    ______ ____
ROOT
ATOM      1  C   UNL     1      -4.501  -2.851  -3.120  0.00  0.00    +0.067 A 
ATOM      2  C   UNL     1      -4.560  -3.402  -1.868  0.00  0.00    +0.027 A 
ATOM      3  C   UNL     1      -4.532  -2.543  -0.740  0.00  0.00    +0.019 A 
ATOM      4  C   UNL     1      -4.609  -3.077   0.555  0.00  0.00    +0.015 A 
ATOM      5  C   UNL     1      -4.582  -2.247   1.637  0.00  0.00    +0.046 A 
ATOM      6  C   UNL     1      -4.480  -0.868   1.466  0.00  0.00    +0.122 A 
ATOM      7  C   UNL     1      -4.403  -0.322   0.195  0.00  0.00    +0.020 A 
ATOM      8  C   UNL     1      -4.434  -1.151  -0.918  0.00  0.00    +0.144 A 
ATOM      9  O   UNL     1      -4.366  -0.618  -2.157  0.00  0.00    -0.421 OA
ATOM     10  C   UNL     1      -4.394  -1.396  -3.252  0.00  0.00    +0.345 A 
ATOM     11  O   UNL     1      -4.331  -0.890  -4.358  0.00  0.00    -0.245 OA
ENDROOT
BRANCH   1  15
ATOM     12  C   UNL     1      -4.585  -5.335  -6.574  0.00  0.00    +0.162 A 
ATOM     13  C   UNL     1      -3.710  -5.619  -5.537  0.00  0.00    +0.050 A 
ATOM     14  C   UNL     1      -3.680  -4.815  -4.416  0.00  0.00    +0.012 A 
ATOM     15  C   UNL     1      -4.532  -3.715  -4.324  0.00  0.00    -0.007 A 
ATOM     16  C   UNL     1      -5.416  -3.432  -5.364  0.00  0.00    +0.058 A 
ATOM     17  C   UNL     1      -5.439  -4.238  -6.488  0.00  0.00    +0.162 A 
BRANCH  12  19
ATOM     18  C   UNL     1      -3.711  -7.239  -7.699  0.00  0.00    +0.277 C 
ATOM     19  O   UNL     1      -4.612  -6.130  -7.677  0.00  0.00    -0.491 OA
ENDBRANCH  12  19
BRANCH  17  20
ATOM     20  O   UNL     1      -6.297  -3.962  -7.506  0.00  0.00    -0.491 OA
ATOM     21  C   UNL     1      -7.143  -2.821  -7.350  0.00  0.00    +0.277 C 
ENDBRANCH  17  20
ENDBRANCH   1  15
BRANCH   6  22
ATOM     22  O   UNL     1      -4.455  -0.054   2.552  0.00  0.00    -0.506 OA
ATOM     23  H   UNL     1      -5.329   0.244   2.840  0.00  0.00    +0.292 HD
ENDBRANCH   6  22
BRANCH   7  24
ATOM     24  C   UNL     1      -4.292   1.171   0.021  0.00  0.00    -0.036 C 
BRANCH  24  38
ATOM     25  C   UNL     1      -2.203   1.140   1.240  0.00  0.00    -0.073 C 
ATOM     26  C   UNL     1      -0.748   1.589   1.253  0.00  0.00    -0.007 C 
ATOM     27  C   UNL     1      -0.013   1.086   0.008  0.00  0.00    +0.011 C 
ATOM     28  C   UNL     1      -0.773   1.603  -1.219  0.00  0.00    +0.020 C 
ATOM     29  C   UNL     1      -2.194   1.016  -1.180  0.00  0.00    -0.069 C 
ATOM     30  C   UNL     1      -0.901   3.107  -1.127  0.00  0.00    +0.023 A 
ATOM     31  C   UNL     1      -1.021   3.795  -2.293  0.00  0.00    +0.022 A 
ATOM     32  C   UNL     1      -1.206   5.182  -2.285  0.00  0.00    +0.007 A 
ATOM     33  C   UNL     1      -1.283   5.829  -1.086  0.00  0.00    +0.070 A 
ATOM     34  C   UNL     1      -1.152   5.090   0.099  0.00  0.00    +0.251 A 
ATOM     35  O   UNL     1      -1.265   5.651   1.177  0.00  0.00    -0.268 OA
ATOM     36  N   UNL     1      -0.901   3.757   0.061  0.00  0.00    -0.312 N 
ATOM     37  C   UNL     1      -0.621   3.100   1.338  0.00  0.00    +0.126 C 
ATOM     38  N   UNL     1      -2.875   1.587   0.004  0.00  0.00    +0.383 N 
ATOM     39  H   UNL     1      -2.829   2.612  -0.048  0.00  0.00    -0.081 HD
ENDBRANCH  24  38
ENDBRANCH   7  24
TORSDOF 6
