REMARK  Name = ZINC32902985
REMARK  10 active torsions:
REMARK  status: ('A' for Active; 'I' for Inactive)
REMARK    1  A    between atoms: C_1  and  C_2
REMARK    2  A    between atoms: C_4  and  N_12
REMARK    3  A    between atoms: N_12  and  C_13
REMARK    4  A    between atoms: C_13  and  C_14
REMARK    5  A    between atoms: C_19  and  C_20
REMARK    6  A    between atoms: C_20  and  S_21
REMARK    7  A    between atoms: S_21  and  N_24
REMARK    8  A    between atoms: N_24  and  C_25
REMARK    9  A    between atoms: C_25  and  C_26
REMARK   10  A    between atoms: C_25  and  C_27
REMARK                            x       y       z     vdW  Elec       q    Type
REMARK                         _______ _______ _______ _____ _____    ______ ____
ROOT
ATOM      1  C   UNL     1       0.675   3.892   2.613  0.00  0.00    +0.137 C 
ENDROOT
BRANCH   1   2
ATOM      2  C   UNL     1       0.345   2.584   3.284  0.00  0.00    -0.026 A 
ATOM      3  C   UNL     1       0.895   2.280   4.515  0.00  0.00    +0.005 A 
ATOM      4  C   UNL     1       0.592   1.080   5.131  0.00  0.00    +0.000 A 
ATOM      5  C   UNL     1      -0.263   0.184   4.515  0.00  0.00    +0.000 A 
ATOM      6  C   UNL     1      -0.817   0.490   3.287  0.00  0.00    +0.005 A 
ATOM      7  C   UNL     1      -0.509   1.688   2.668  0.00  0.00    -0.020 A 
BRANCH   7   8
ATOM      8  C   UNL     1      -1.110   2.020   1.327  0.00  0.00    +0.220 C 
BRANCH   8   9
ATOM      9  S   UNL     1      -0.017   1.417   0.010  0.00  0.00    +0.034 S 
ATOM     10  O   UNL     1       0.002  -0.004   0.002  0.00  0.00    -0.158 OA
ATOM     11  O   UNL     1       1.195   2.158   0.002  0.00  0.00    -0.158 OA
BRANCH   9  12
ATOM     12  N   UNL     1      -0.778   1.837  -1.400  0.00  0.00    -0.192 NA
ATOM     13  H   UNL     1      -1.287   1.059  -1.988  0.00  0.00    +0.148 HD
BRANCH  12  14
ATOM     14  C   UNL     1      -0.958   3.250  -1.742  0.00  0.00    +0.070 C 
ATOM     15  C   UNL     1      -0.836   3.428  -3.257  0.00  0.00    +0.025 C 
ATOM     16  C   UNL     1      -2.343   3.712  -1.284  0.00  0.00    +0.025 C 
ENDBRANCH  12  14
ENDBRANCH   9  12
ENDBRANCH   8   9
ENDBRANCH   7   8
ENDBRANCH   1   2
BRANCH   1  17
ATOM     17  N   UNL     1      -0.419   4.842   2.829  0.00  0.00    -0.339 N 
ATOM     18  H   UNL     1      -1.303   4.540   3.410  0.00  0.00    +0.146 HD
BRANCH  17  22
ATOM     19  C   UNL     1       2.021   8.239   0.257  0.00  0.00    +0.063 C 
ATOM     20  C   UNL     1       0.814   7.814   1.053  0.00  0.00    +0.015 A 
ATOM     21  C   UNL     1       0.766   6.527   1.572  0.00  0.00    +0.044 A 
ATOM     22  C   UNL     1      -0.340   6.122   2.302  0.00  0.00    +0.038 A 
ATOM     23  C   UNL     1      -1.384   7.058   2.497  0.00  0.00    +0.019 A 
ATOM     24  C   UNL     1      -2.533   6.727   3.229  0.00  0.00    +0.012 A 
ATOM     25  C   UNL     1      -3.516   7.656   3.395  0.00  0.00    +0.001 A 
ATOM     26  C   UNL     1      -3.393   8.930   2.848  0.00  0.00    +0.002 A 
ATOM     27  C   UNL     1      -2.291   9.284   2.132  0.00  0.00    +0.026 A 
ATOM     28  C   UNL     1      -1.256   8.352   1.939  0.00  0.00    +0.048 A 
ATOM     29  N   UNL     1      -0.161   8.674   1.241  0.00  0.00    -0.358 N 
ATOM     30  H   UNL     1      -0.089   9.687   0.819  0.00  0.00    +0.166 HD
ENDBRANCH  17  22
ENDBRANCH   1  17
TORSDOF 7
