REMARK  Name = ZINC66642887
REMARK  6 active torsions:
REMARK  status: ('A' for Active; 'I' for Inactive)
REMARK    1  A    between atoms: C_1  and  C_2
REMARK    2  A    between atoms: C_2  and  C_4
REMARK    3  A    between atoms: C_2  and  N_17
REMARK    4  A    between atoms: C_4  and  C_5
REMARK    5  A    between atoms: N_11  and  C_14
REMARK    6  A    between atoms: C_18  and  C_20
REMARK                            x       y       z     vdW  Elec       q    Type
REMARK                         _______ _______ _______ _____ _____    ______ ____
ROOT
ATOM      1  C   UNL     1       0.742  -0.511   1.242  0.00  0.00    +0.118 C 
ENDROOT
BRANCH   1   2
ATOM      2  C   UNL     1       0.657  -2.014   1.298  0.00  0.00    +0.217 C 
ATOM      3  O   UNL     1       0.062  -2.621   0.432  0.00  0.00    -0.276 OA
ATOM      4  N   UNL     1       1.241  -2.685   2.311  0.00  0.00    -0.303 N 
ATOM      5  C   UNL     1       1.952  -1.920   3.354  0.00  0.00    +0.106 C 
ATOM      6  C   UNL     1       1.662  -2.491   4.754  0.00  0.00    +0.000 C 
ATOM      7  C   UNL     1       0.203  -2.883   4.845  0.00  0.00    -0.077 C 
ATOM      8  N   UNL     1       0.061  -4.296   4.503  0.00  0.00    +0.383 N 
ATOM      9  C   UNL     1      -0.111  -4.560   3.126  0.00  0.00    -0.059 C 
ATOM     10  C   UNL     1       1.143  -4.130   2.339  0.00  0.00    +0.089 C 
ATOM     11  H   UNL     1       0.885  -4.785   4.820  0.00  0.00    -0.081 HD
BRANCH   8  12
ATOM     12  C   UNL     1      -1.098  -4.834   5.227  0.00  0.00    -0.069 C 
ATOM     13  C   UNL     1      -0.891  -6.114   6.040  0.00  0.00    -0.017 C 
ATOM     14  C   UNL     1      -1.067  -4.773   6.755  0.00  0.00    -0.017 C 
ENDBRANCH   8  12
ENDBRANCH   1   2
BRANCH   1  16
ATOM     15  C   UNL     1      -0.019   1.526   0.010  0.00  0.00    +0.028 C 
ATOM     16  C   UNL     1       0.002  -0.004   0.002  0.00  0.00    +0.079 C 
BRANCH  16  17
ATOM     17  N   UNL     1       0.688  -0.476  -1.203  0.00  0.00    -0.312 N 
ATOM     18  C   UNL     1       0.006  -0.608  -2.358  0.00  0.00    +0.216 C 
ATOM     19  O   UNL     1      -1.175  -0.336  -2.400  0.00  0.00    -0.276 OA
ATOM     20  H   UNL     1       1.632  -0.695  -1.170  0.00  0.00    +0.149 HD
BRANCH  18  21
ATOM     21  C   UNL     1       0.712  -1.094  -3.598  0.00  0.00    +0.075 C 
ATOM     22  C   UNL     1       1.849  -0.133  -3.948  0.00  0.00    +0.013 C 
ATOM     23  C   UNL     1       2.565  -0.626  -5.207  0.00  0.00    +0.001 C 
ATOM     24  C   UNL     1       1.572  -0.685  -6.369  0.00  0.00    +0.000 C 
ATOM     25  C   UNL     1       0.434  -1.646  -6.019  0.00  0.00    +0.001 C 
ATOM     26  C   UNL     1      -0.282  -1.153  -4.761  0.00  0.00    +0.013 C 
ENDBRANCH  18  21
ENDBRANCH  16  17
ENDBRANCH   1  16
TORSDOF 5
