REMARK  Name = ZINC40675986
REMARK  7 active torsions:
REMARK  status: ('A' for Active; 'I' for Inactive)
REMARK    1  A    between atoms: C_1  and  C_2
REMARK    2  A    between atoms: C_2  and  C_4
REMARK    3  A    between atoms: C_2  and  N_11
REMARK    4  A    between atoms: N_11  and  C_12
REMARK    5  A    between atoms: C_12  and  C_13
REMARK    6  A    between atoms: C_13  and  C_14
REMARK    7  A    between atoms: C_17  and  N_20
REMARK                            x       y       z     vdW  Elec       q    Type
REMARK                         _______ _______ _______ _____ _____    ______ ____
ROOT
ATOM      1  N   UNL     1       0.690  -0.478  -1.207  0.00  0.00    -0.309 NA
ATOM      2  H   UNL     1       0.337  -1.379  -1.493  0.00  0.00    +0.123 HD
ENDROOT
BRANCH   1   4
ATOM      3  C   UNL     1      -0.019   1.526   0.010  0.00  0.00    +0.029 C 
ATOM      4  C   UNL     1       0.002  -0.004   0.002  0.00  0.00    +0.081 C 
BRANCH   4   5
ATOM      5  C   UNL     1      -1.412  -0.526   0.013  0.00  0.00    -0.031 A 
ATOM      6  C   UNL     1      -2.141  -0.569  -1.161  0.00  0.00    +0.006 A 
ATOM      7  C   UNL     1      -3.438  -1.047  -1.151  0.00  0.00    +0.014 A 
ATOM      8  C   UNL     1      -4.006  -1.483   0.032  0.00  0.00    +0.013 A 
ATOM      9  C   UNL     1      -3.276  -1.440   1.206  0.00  0.00    +0.014 A 
ATOM     10  C   UNL     1      -1.977  -0.966   1.195  0.00  0.00    +0.006 A 
ATOM     11  I   UNL     1      -5.971  -2.207   0.047  0.00  0.00    -0.044 I 
ENDBRANCH   4   5
ENDBRANCH   1   4
BRANCH   1  12
ATOM     12  C   UNL     1       2.144  -0.522  -1.002  0.00  0.00    +0.086 C 
BRANCH  12  13
ATOM     13  C   UNL     1       2.824  -1.019  -2.279  0.00  0.00    +0.050 C 
BRANCH  13  14
ATOM     14  C   UNL     1       4.315  -1.064  -2.069  0.00  0.00    -0.046 A 
ATOM     15  C   UNL     1       5.088   0.045  -2.359  0.00  0.00    +0.006 A 
ATOM     16  C   UNL     1       6.456   0.003  -2.166  0.00  0.00    +0.033 A 
ATOM     17  C   UNL     1       7.052  -1.147  -1.684  0.00  0.00    +0.126 A 
ATOM     18  C   UNL     1       6.279  -2.256  -1.393  0.00  0.00    +0.033 A 
ATOM     19  C   UNL     1       4.910  -2.213  -1.582  0.00  0.00    +0.006 A 
BRANCH  17  20
ATOM     20  N   UNL     1       8.517  -1.192  -1.478  0.00  0.00    +0.056 N 
ATOM     21  O   UNL     1       9.193  -0.223  -1.733  0.00  0.00    -0.126 OA
ATOM     22  O   UNL     1       9.038  -2.198  -1.056  0.00  0.00    -0.126 OA
ENDBRANCH  17  20
ENDBRANCH  13  14
ENDBRANCH  12  13
ENDBRANCH   1  12
TORSDOF 6
