REMARK  Name = ZINC10960709
REMARK  10 active torsions:
REMARK  status: ('A' for Active; 'I' for Inactive)
REMARK    1  A    between atoms: C_1  and  C_2
REMARK    2  A    between atoms: C_3  and  N_15
REMARK    3  A    between atoms: N_6  and  C_9
REMARK    4  A    between atoms: N_7  and  C_8
REMARK    5  A    between atoms: C_16  and  C_18
REMARK    6  A    between atoms: C_18  and  C_20
REMARK    7  A    between atoms: C_18  and  O_21
REMARK    8  A    between atoms: O_21  and  C_22
REMARK    9  A    between atoms: C_22  and  C_24
REMARK   10  A    between atoms: C_29  and  N_30
REMARK                            x       y       z     vdW  Elec       q    Type
REMARK                         _______ _______ _______ _____ _____    ______ ____
ROOT
ATOM      1  N   UNL     1      -4.248  -1.091   1.270  0.00  0.00    -0.277 N 
ATOM      2  C   UNL     1      -4.495  -2.209   0.561  0.00  0.00    +0.258 C 
ATOM      3  O   UNL     1      -3.603  -3.004   0.351  0.00  0.00    -0.271 OA
ATOM      4  H   UNL     1      -4.941  -0.421   1.378  0.00  0.00    +0.155 HD
ENDROOT
BRANCH   1   7
ATOM      5  C   UNL     1      -2.422   1.313   0.719  0.00  0.00    +0.067 C 
ATOM      6  C   UNL     1      -2.151   0.150   1.640  0.00  0.00    +0.059 A 
ATOM      7  C   UNL     1      -2.982  -0.894   1.857  0.00  0.00    +0.121 A 
ATOM      8  C   UNL     1      -2.323  -1.779   2.818  0.00  0.00    +0.293 A 
ATOM      9  O   UNL     1      -2.764  -2.824   3.262  0.00  0.00    -0.264 OA
ATOM     10  N   UNL     1      -1.132  -1.220   3.114  0.00  0.00    -0.216 N 
ATOM     11  N   UNL     1      -1.019  -0.028   2.390  0.00  0.00    -0.282 N 
ATOM     12  C   UNL     1       0.128   0.883   2.427  0.00  0.00    +0.171 C 
BRANCH  10  13
ATOM     13  C   UNL     1      -0.176  -1.741   3.992  0.00  0.00    +0.067 A 
ATOM     14  C   UNL     1       1.152  -1.841   3.596  0.00  0.00    +0.028 A 
ATOM     15  C   UNL     1       2.094  -2.351   4.467  0.00  0.00    +0.002 A 
ATOM     16  C   UNL     1       1.716  -2.773   5.728  0.00  0.00    +0.000 A 
ATOM     17  C   UNL     1       0.394  -2.680   6.124  0.00  0.00    +0.002 A 
ATOM     18  C   UNL     1      -0.552  -2.165   5.260  0.00  0.00    +0.028 A 
ENDBRANCH  10  13
ENDBRANCH   1   7
BRANCH   2  19
ATOM     19  C   UNL     1      -5.880  -2.473   0.028  0.00  0.00    +0.259 C 
ATOM     20  C   UNL     1      -6.847  -2.672   1.196  0.00  0.00    +0.062 C 
BRANCH  19  21
ATOM     21  O   UNL     1      -5.862  -3.669  -0.795  0.00  0.00    -0.449 OA
BRANCH  21  22
ATOM     22  C   UNL     1      -6.750  -3.729  -1.807  0.00  0.00    +0.342 C 
ATOM     23  O   UNL     1      -7.518  -2.807  -1.997  0.00  0.00    -0.245 OA
BRANCH  22  24
ATOM     24  C   UNL     1      -6.789  -4.913  -2.683  0.00  0.00    +0.082 A 
ATOM     25  C   UNL     1      -6.001  -6.030  -2.392  0.00  0.00    +0.037 A 
ATOM     26  C   UNL     1      -6.043  -7.135  -3.215  0.00  0.00    +0.043 A 
ATOM     27  C   UNL     1      -6.863  -7.144  -4.334  0.00  0.00    +0.042 A 
ATOM     28  C   UNL     1      -7.647  -6.049  -4.635  0.00  0.00    +0.064 A 
ATOM     29  C   UNL     1      -7.622  -4.927  -3.813  0.00  0.00    +0.057 A 
ATOM     30 CL   UNL     1      -8.669  -6.074  -6.037  0.00  0.00    -0.082 Cl
ATOM     31 CL   UNL     1      -5.063  -8.521  -2.850  0.00  0.00    -0.083 Cl
BRANCH  29  32
ATOM     32  N   UNL     1      -8.415  -3.826  -4.111  0.00  0.00    -0.356 N 
ATOM     33  H   UNL     1      -8.171  -2.948  -3.776  0.00  0.00    +0.142 HD
ATOM     34  H   UNL     1      -9.211  -3.934  -4.653  0.00  0.00    +0.142 HD
ENDBRANCH  29  32
ENDBRANCH  22  24
ENDBRANCH  21  22
ENDBRANCH  19  21
ENDBRANCH   2  19
TORSDOF 7
