REMARK  Name = ZINC40784070
REMARK  6 active torsions:
REMARK  status: ('A' for Active; 'I' for Inactive)
REMARK    1  A    between atoms: C_6  and  C_7
REMARK    2  A    between atoms: C_7  and  N_8
REMARK    3  A    between atoms: C_10  and  N_26
REMARK    4  A    between atoms: C_11  and  N_15
REMARK    5  A    between atoms: N_15  and  C_16
REMARK    6  A    between atoms: C_19  and  C_22
REMARK                            x       y       z     vdW  Elec       q    Type
REMARK                         _______ _______ _______ _____ _____    ______ ____
ROOT
ATOM      1  N   UNL     1      -1.969  -0.680  -1.349  0.00  0.00    -0.323 N 
ATOM      2  C   UNL     1      -3.018  -1.555  -1.605  0.00  0.00    +0.145 A 
ATOM      3  C   UNL     1      -3.449  -1.781  -2.913  0.00  0.00    +0.105 A 
ATOM      4  C   UNL     1      -4.507  -2.669  -3.114  0.00  0.00    +0.149 A 
ATOM      5  N   UNL     1      -5.060  -3.262  -2.059  0.00  0.00    -0.219 NA
ATOM      6  C   UNL     1      -4.623  -3.021  -0.840  0.00  0.00    +0.225 A 
ATOM      7  N   UNL     1      -3.623  -2.194  -0.607  0.00  0.00    -0.219 NA
ATOM      8  H   UNL     1      -1.533  -0.218  -2.082  0.00  0.00    +0.148 HD
ENDROOT
BRANCH   3   9
ATOM      9  N   UNL     1      -2.836  -1.133  -3.997  0.00  0.00    -0.353 N 
ATOM     10  H   UNL     1      -2.102  -0.518  -3.842  0.00  0.00    +0.143 HD
ATOM     11  H   UNL     1      -3.146  -1.300  -4.901  0.00  0.00    +0.143 HD
ENDBRANCH   3   9
BRANCH   4  12
ATOM     12  N   UNL     1      -4.976  -2.930  -4.397  0.00  0.00    -0.298 N 
ATOM     13  H   UNL     1      -4.515  -2.560  -5.167  0.00  0.00    +0.154 HD
BRANCH  12  14
ATOM     14  C   UNL     1      -6.110  -3.726  -4.578  0.00  0.00    +0.032 A 
ATOM     15  C   UNL     1      -6.192  -4.584  -5.668  0.00  0.00    +0.024 A 
ATOM     16  C   UNL     1      -7.315  -5.369  -5.843  0.00  0.00    +0.014 A 
ATOM     17  C   UNL     1      -8.357  -5.301  -4.937  0.00  0.00    +0.055 A 
ATOM     18  C   UNL     1      -8.279  -4.447  -3.851  0.00  0.00    +0.014 A 
ATOM     19  C   UNL     1      -7.156  -3.665  -3.666  0.00  0.00    +0.024 A 
BRANCH  17  20
ATOM     20  C   UNL     1      -9.581  -6.158  -5.132  0.00  0.00    +0.417 C 
ATOM     21  F   UNL     1      -9.401  -7.383  -4.480  0.00  0.00    -0.166 F 
ATOM     22  F   UNL     1     -10.698  -5.505  -4.600  0.00  0.00    -0.166 F 
ATOM     23  F   UNL     1      -9.779  -6.383  -6.499  0.00  0.00    -0.166 F 
ENDBRANCH  17  20
ENDBRANCH  12  14
ENDBRANCH   4  12
BRANCH   1  24
ATOM     24  C   UNL     1      -1.521  -0.456   0.028  0.00  0.00    +0.138 C 
BRANCH  24  30
ATOM     25  C   UNL     1      -0.635   1.883   0.139  0.00  0.00    +0.006 A 
ATOM     26  C   UNL     1       0.411   2.785   0.142  0.00  0.00    +0.020 A 
ATOM     27  C   UNL     1       1.715   2.333   0.038  0.00  0.00    +0.041 A 
ATOM     28  C   UNL     1       1.970   0.978  -0.069  0.00  0.00    +0.020 A 
ATOM     29  C   UNL     1       0.922   0.076  -0.072  0.00  0.00    +0.006 A 
ATOM     30  C   UNL     1      -0.380   0.528   0.031  0.00  0.00    -0.030 A 
ATOM     31 CL   UNL     1       3.030   3.467   0.042  0.00  0.00    -0.084 Cl
ENDBRANCH  24  30
ENDBRANCH   1  24
TORSDOF 6
