REMARK  Name = ZINC18200586
REMARK  7 active torsions:
REMARK  status: ('A' for Active; 'I' for Inactive)
REMARK    1  A    between atoms: C_1  and  O_2
REMARK    2  A    between atoms: O_2  and  C_3
REMARK    3  A    between atoms: C_6  and  C_11
REMARK    4  A    between atoms: C_8  and  O_9
REMARK    5  A    between atoms: O_9  and  C_10
REMARK    6  A    between atoms: C_16  and  C_27
REMARK    7  A    between atoms: C_24  and  O_25
REMARK                            x       y       z     vdW  Elec       q    Type
REMARK                         _______ _______ _______ _____ _____    ______ ____
ROOT
ATOM      1  C   UNL     1       2.507  -2.501  -4.386  0.00  0.00    +0.032 C 
ATOM      2  C   UNL     1       1.815  -2.077  -5.683  0.00  0.00    +0.059 C 
ATOM      3  C   UNL     1       2.512  -2.715  -6.864  0.00  0.00    +0.017 C 
ATOM      4  C   UNL     1       3.839  -2.965  -6.830  0.00  0.00    +0.024 C 
ATOM      5  C   UNL     1       4.578  -3.582  -7.998  0.00  0.00    +0.093 C 
ATOM      6  C   UNL     1       3.591  -4.165  -8.969  0.00  0.00    +0.067 A 
ATOM      7  C   UNL     1       2.253  -3.877  -8.917  0.00  0.00    +0.126 A 
ATOM      8  N   UNL     1       1.649  -4.548  -9.916  0.00  0.00    -0.260 N 
ATOM      9  H   UNL     1       0.702  -4.533 -10.124  0.00  0.00    +0.190 HD
ATOM     10  N   UNL     1       2.637  -5.272 -10.603  0.00  0.00    -0.134 NA
ATOM     11  C   UNL     1       3.798  -5.039 -10.032  0.00  0.00    +0.237 A 
ATOM     12  N   UNL     1       1.733  -3.025  -7.950  0.00  0.00    -0.303 N 
ATOM     13  C   UNL     1       4.601  -2.663  -5.687  0.00  0.00    +0.162 C 
ATOM     14  O   UNL     1       5.795  -2.893  -5.692  0.00  0.00    -0.292 OA
ATOM     15  C   UNL     1       3.975  -2.065  -4.459  0.00  0.00    +0.088 C 
ATOM     16  H   UNL     1       0.840  -2.659  -8.041  0.00  0.00    +0.153 HD
ENDROOT
BRANCH   5  17
ATOM     17  C   UNL     1       5.397  -2.523  -8.690  0.00  0.00    -0.025 A 
ATOM     18  C   UNL     1       4.803  -1.418  -9.231  0.00  0.00    +0.025 A 
ATOM     19  C   UNL     1       5.579  -0.452  -9.866  0.00  0.00    +0.112 A 
ATOM     20  N   UNL     1       6.881  -0.568  -9.964  0.00  0.00    -0.255 NA
ATOM     21  C   UNL     1       7.524  -1.624  -9.456  0.00  0.00    +0.071 A 
ATOM     22  C   UNL     1       6.796  -2.641  -8.791  0.00  0.00    +0.004 A 
ATOM     23  C   UNL     1       7.477  -3.746  -8.255  0.00  0.00    +0.010 A 
ATOM     24  C   UNL     1       8.831  -3.823  -8.374  0.00  0.00    +0.001 A 
ATOM     25  C   UNL     1       9.551  -2.821  -9.022  0.00  0.00    +0.002 A 
ATOM     26  C   UNL     1       8.921  -1.744  -9.565  0.00  0.00    +0.028 A 
ENDBRANCH   5  17
BRANCH   1  30
ATOM     27  C   UNL     1       0.606  -0.608  -1.056  0.00  0.00    +0.161 A 
ATOM     28  C   UNL     1       1.173   0.159  -2.062  0.00  0.00    +0.049 A 
ATOM     29  C   UNL     1       1.787  -0.456  -3.137  0.00  0.00    +0.008 A 
ATOM     30  C   UNL     1       1.837  -1.836  -3.212  0.00  0.00    -0.040 A 
ATOM     31  C   UNL     1       1.273  -2.606  -2.212  0.00  0.00    +0.053 A 
ATOM     32  C   UNL     1       0.662  -1.996  -1.129  0.00  0.00    +0.162 A 
BRANCH  27  34
ATOM     33  C   UNL     1      -0.017   1.425   0.010  0.00  0.00    +0.277 C 
ATOM     34  O   UNL     1       0.002  -0.004   0.002  0.00  0.00    -0.491 OA
ENDBRANCH  27  34
BRANCH  32  35
ATOM     35  O   UNL     1       0.112  -2.753  -0.142  0.00  0.00    -0.491 OA
ATOM     36  C   UNL     1       0.206  -4.171  -0.283  0.00  0.00    +0.277 C 
ENDBRANCH  32  35
ENDBRANCH   1  30
BRANCH  11  38
ATOM     37  H   UNL     1       5.212  -6.400  -9.983  0.00  0.00    +0.294 HD
ATOM     38  O   UNL     1       4.994  -5.562 -10.414  0.00  0.00    -0.491 OA
ENDBRANCH  11  38
TORSDOF 5
