REMARK  Name = ZINC22108009
REMARK  10 active torsions:
REMARK  status: ('A' for Active; 'I' for Inactive)
REMARK    1  A    between atoms: C_4  and  N_7
REMARK    2  A    between atoms: C_8  and  S_12
REMARK    3  A    between atoms: S_12  and  C_13
REMARK    4  A    between atoms: C_13  and  C_14
REMARK    5  A    between atoms: C_14  and  N_15
REMARK    6  A    between atoms: N_15  and  C_16
REMARK    7  A    between atoms: C_16  and  C_17
REMARK    8  A    between atoms: C_26  and  O_27
REMARK    9  A    between atoms: O_27  and  C_28
REMARK   10  A    between atoms: C_28  and  C_29
REMARK                            x       y       z     vdW  Elec       q    Type
REMARK                         _______ _______ _______ _____ _____    ______ ____
ROOT
ATOM      1  C   UNL     1      -0.112   5.253   0.029  0.00  0.00    -0.015 A 
ATOM      2  C   UNL     1      -0.095   3.849   0.023  0.00  0.00    -0.013 A 
ATOM      3  C   UNL     1      -1.288   3.105   0.030  0.00  0.00    +0.009 A 
ATOM      4  C   UNL     1      -1.235   1.746   0.017  0.00  0.00    +0.001 A 
ATOM      5  C   UNL     1      -0.013   1.076   0.008  0.00  0.00    +0.001 A 
ATOM      6  C   UNL     1       1.163   1.762   0.000  0.00  0.00    +0.008 A 
ATOM      7  C   UNL     1       1.148   3.167   0.008  0.00  0.00    -0.017 A 
ATOM      8  C   UNL     1       2.342   3.909  -0.000  0.00  0.00    +0.012 A 
ATOM      9  C   UNL     1       2.292   5.268   0.006  0.00  0.00    +0.046 A 
ATOM     10  C   UNL     1       1.067   5.942   0.021  0.00  0.00    +0.123 A 
ENDROOT
BRANCH   1  11
ATOM     11  C   UNL     1      -1.423   5.995   0.046  0.00  0.00    -0.042 C 
BRANCH  11  12
ATOM     12  N   UNL     1      -1.835   6.230   1.436  0.00  0.00    +0.382 N 
ATOM     13  H   UNL     1      -1.057   6.822   1.940  0.00  0.00    -0.085 HD
ATOM     14  H   UNL     1      -1.942   5.258   1.941  0.00  0.00    -0.085 HD
BRANCH  12  15
ATOM     15  C   UNL     1      -3.113   6.953   1.491  0.00  0.00    -0.071 C 
BRANCH  15  16
ATOM     16  C   UNL     1      -3.509   7.178   2.952  0.00  0.00    +0.058 C 
BRANCH  16  17
ATOM     17  S   UNL     1      -5.083   8.069   3.020  0.00  0.00    -0.086 S 
BRANCH  17  19
ATOM     18  N   UNL     1      -6.325   8.781   5.416  0.00  0.00    -0.187 N 
ATOM     19  C   UNL     1      -5.291   8.189   4.766  0.00  0.00    +0.214 A 
ATOM     20  N   UNL     1      -4.472   7.726   5.685  0.00  0.00    -0.101 NA
ATOM     21  N   UNL     1      -4.922   7.983   6.860  0.00  0.00    -0.022 NA
ATOM     22  N   UNL     1      -6.042   8.617   6.783  0.00  0.00    -0.038 NA
BRANCH  18  26
ATOM     23  C   UNL     1      -9.631  10.674   3.723  0.00  0.00    +0.000 A 
ATOM     24  C   UNL     1      -9.771   9.962   4.901  0.00  0.00    +0.002 A 
ATOM     25  C   UNL     1      -8.678   9.334   5.464  0.00  0.00    +0.028 A 
ATOM     26  C   UNL     1      -7.437   9.417   4.847  0.00  0.00    +0.070 A 
ATOM     27  C   UNL     1      -7.298  10.137   3.668  0.00  0.00    +0.028 A 
ATOM     28  C   UNL     1      -8.397  10.759   3.106  0.00  0.00    +0.002 A 
ENDBRANCH  18  26
ENDBRANCH  17  19
ENDBRANCH  16  17
ENDBRANCH  15  16
ENDBRANCH  12  15
ENDBRANCH  11  12
ENDBRANCH   1  11
BRANCH  10  29
ATOM     29  O   UNL     1       1.050   7.301   0.028  0.00  0.00    -0.487 OA
BRANCH  29  30
ATOM     30  C   UNL     1       2.315   7.966   0.019  0.00  0.00    +0.264 C 
BRANCH  30  31
ATOM     31  C   UNL     1       2.098   9.457   0.029  0.00  0.00    -0.010 A 
ATOM     32  C   UNL     1       1.993  10.148  -1.164  0.00  0.00    +0.010 A 
ATOM     33  C   UNL     1       1.790  11.514  -1.157  0.00  0.00    +0.039 A 
ATOM     34  C   UNL     1       1.702  12.194   0.046  0.00  0.00    +0.123 A 
ATOM     35  C   UNL     1       1.812  11.502   1.241  0.00  0.00    +0.039 A 
ATOM     36  C   UNL     1       2.011  10.135   1.231  0.00  0.00    +0.010 A 
ATOM     37  F   UNL     1       1.508  13.531   0.055  0.00  0.00    -0.205 F 
ENDBRANCH  30  31
ENDBRANCH  29  30
ENDBRANCH  10  29
TORSDOF 10
