REMARK  Name = ZINC35991738
REMARK  11 active torsions:
REMARK  status: ('A' for Active; 'I' for Inactive)
REMARK    1  A    between atoms: C_1  and  C_2
REMARK    2  A    between atoms: C_2  and  O_3
REMARK    3  A    between atoms: O_3  and  C_4
REMARK    4  A    between atoms: C_4  and  C_6
REMARK    5  A    between atoms: C_7  and  C_25
REMARK    6  A    between atoms: N_8  and  C_24
REMARK    7  A    between atoms: C_12  and  C_14
REMARK    8  A    between atoms: C_19  and  C_20
REMARK    9  A    between atoms: C_25  and  N_26
REMARK   10  A    between atoms: N_26  and  C_27
REMARK   11  A    between atoms: N_26  and  C_28
REMARK                            x       y       z     vdW  Elec       q    Type
REMARK                         _______ _______ _______ _____ _____    ______ ____
ROOT
ATOM      1  C   UNL     1      -3.099  -2.699   0.437  0.00  0.00    +0.076 C 
ATOM      2  C   UNL     1      -3.132  -4.029   0.210  0.00  0.00    +0.010 C 
ATOM      3  N   UNL     1      -4.296  -4.657  -0.131  0.00  0.00    -0.264 N 
ATOM      4  C   UNL     1      -5.469  -4.025  -0.265  0.00  0.00    +0.307 C 
ATOM      5  O   UNL     1      -6.452  -4.670  -0.572  0.00  0.00    -0.252 OA
ATOM      6  N   UNL     1      -5.594  -2.697  -0.071  0.00  0.00    -0.288 N 
ATOM      7  C   UNL     1      -4.397  -1.928   0.307  0.00  0.00    +0.144 C 
ATOM      8  C   UNL     1      -4.260  -6.103  -0.363  0.00  0.00    +0.139 C 
ATOM      9  H   UNL     1      -6.454  -2.259  -0.174  0.00  0.00    +0.151 HD
ENDROOT
BRANCH   7  10
ATOM     10  C   UNL     1      -4.196  -0.852  -0.729  0.00  0.00    -0.011 A 
ATOM     11  C   UNL     1      -3.861  -1.194  -2.026  0.00  0.00    +0.006 A 
ATOM     12  C   UNL     1      -3.678  -0.207  -2.975  0.00  0.00    +0.000 A 
ATOM     13  C   UNL     1      -3.829   1.123  -2.629  0.00  0.00    +0.001 A 
ATOM     14  C   UNL     1      -4.164   1.465  -1.332  0.00  0.00    +0.013 A 
ATOM     15  C   UNL     1      -4.352   0.477  -0.383  0.00  0.00    +0.060 A 
BRANCH  15  16
ATOM     16  C   UNL     1      -4.723   0.851   1.029  0.00  0.00    +0.418 C 
ATOM     17  F   UNL     1      -4.912   2.234   1.112  0.00  0.00    -0.166 F 
ATOM     18  F   UNL     1      -5.905   0.196   1.389  0.00  0.00    -0.166 F 
ATOM     19  F   UNL     1      -3.695   0.468   1.898  0.00  0.00    -0.166 F 
ENDBRANCH  15  16
ENDBRANCH   7  10
BRANCH   1  20
ATOM     20  C   UNL     1      -1.894  -2.047   0.791  0.00  0.00    +0.339 C 
ATOM     21  O   UNL     1      -0.890  -2.700   1.007  0.00  0.00    -0.245 OA
BRANCH  20  22
ATOM     22  O   UNL     1      -1.858  -0.702   0.889  0.00  0.00    -0.462 OA
BRANCH  22  24
ATOM     23  C   UNL     1      -0.758   1.404   1.336  0.00  0.00    +0.048 C 
ATOM     24  C   UNL     1      -0.584  -0.103   1.137  0.00  0.00    +0.229 C 
ENDBRANCH  22  24
ENDBRANCH  20  22
ENDBRANCH   1  20
BRANCH   2  25
ATOM     25  C   UNL     1      -1.864  -4.835   0.334  0.00  0.00    -0.026 C 
BRANCH  25  26
ATOM     26  N   UNL     1      -1.641  -5.183   1.743  0.00  0.00    +0.383 N 
ATOM     27  C   UNL     1      -2.740  -6.036   2.216  0.00  0.00    -0.095 C 
ATOM     28  H   UNL     1      -1.608  -4.340   2.297  0.00  0.00    -0.081 HD
BRANCH  26  29
ATOM     29  C   UNL     1      -0.369  -5.905   1.874  0.00  0.00    -0.068 C 
ATOM     30  C   UNL     1      -0.137  -6.269   3.342  0.00  0.00    -0.015 C 
ATOM     31  C   UNL     1       1.188  -7.021   3.478  0.00  0.00    -0.002 C 
ATOM     32  C   UNL     1       2.332  -6.132   2.985  0.00  0.00    -0.000 C 
ATOM     33  C   UNL     1       2.100  -5.769   1.517  0.00  0.00    -0.002 C 
ATOM     34  C   UNL     1       0.775  -5.017   1.381  0.00  0.00    -0.015 C 
ENDBRANCH  26  29
ENDBRANCH  25  26
ENDBRANCH   2  25
TORSDOF 8
