REMARK  Name = ZINC12459256
REMARK  6 active torsions:
REMARK  status: ('A' for Active; 'I' for Inactive)
REMARK    1  A    between atoms: C_1  and  N_2
REMARK    2  A    between atoms: N_2  and  S_3
REMARK    3  A    between atoms: S_3  and  C_6
REMARK    4  A    between atoms: C_9  and  C_12
REMARK    5  A    between atoms: C_13  and  C_14
REMARK    6  A    between atoms: N_16  and  C_17
REMARK                            x       y       z     vdW  Elec       q    Type
REMARK                         _______ _______ _______ _____ _____    ______ ____
ROOT
ATOM      1  C   UNL     1       3.597  -4.848  -0.373  0.00  0.00    +0.013 C 
ATOM      2  C   UNL     1       2.424  -4.193  -0.257  0.00  0.00    +0.068 C 
ENDROOT
BRANCH   1   6
ATOM      3  C   UNL     1       3.639  -9.076  -0.717  0.00  0.00    +0.105 A 
ATOM      4  C   UNL     1       4.831  -8.372  -0.725  0.00  0.00    +0.029 A 
ATOM      5  C   UNL     1       4.826  -6.998  -0.614  0.00  0.00    +0.010 A 
ATOM      6  C   UNL     1       3.611  -6.315  -0.493  0.00  0.00    -0.025 A 
ATOM      7  C   UNL     1       2.412  -7.033  -0.480  0.00  0.00    +0.010 A 
ATOM      8  C   UNL     1       2.434  -8.407  -0.597  0.00  0.00    +0.029 A 
BRANCH   3   9
ATOM      9  S   UNL     1       3.657 -10.832  -0.859  0.00  0.00    +0.058 S 
ATOM     10  O   UNL     1       2.388 -11.210  -1.374  0.00  0.00    -0.153 OA
ATOM     11  O   UNL     1       4.875 -11.175  -1.507  0.00  0.00    -0.153 OA
BRANCH   9  13
ATOM     12  C   UNL     1       2.643 -11.238   1.615  0.00  0.00    +0.127 C 
ATOM     13  N   UNL     1       3.748 -11.447   0.676  0.00  0.00    -0.193 NA
ATOM     14  H   UNL     1       4.532 -11.945   0.953  0.00  0.00    +0.148 HD
ENDBRANCH   9  13
ENDBRANCH   3   9
ENDBRANCH   1   6
BRANCH   2  15
ATOM     15  C   UNL     1       2.409  -2.734  -0.138  0.00  0.00    +0.241 C 
ATOM     16  O   UNL     1       3.456  -2.112  -0.144  0.00  0.00    -0.270 OA
ATOM     17  N   UNL     1       1.237  -2.079  -0.021  0.00  0.00    -0.282 N 
ATOM     18  H   UNL     1       0.409  -2.578   0.061  0.00  0.00    +0.155 HD
BRANCH  17  19
ATOM     19  C   UNL     1       1.214  -0.681  -0.019  0.00  0.00    +0.034 A 
ATOM     20  C   UNL     1       2.137   0.031  -0.774  0.00  0.00    +0.024 A 
ATOM     21  C   UNL     1       2.113   1.412  -0.770  0.00  0.00    +0.017 A 
ATOM     22  C   UNL     1       1.170   2.086  -0.014  0.00  0.00    +0.018 A 
ATOM     23  C   UNL     1       0.250   1.379   0.740  0.00  0.00    +0.017 A 
ATOM     24  C   UNL     1       0.269  -0.001   0.739  0.00  0.00    +0.024 A 
ATOM     25 BR   UNL     1       1.140   3.977  -0.009  0.00  0.00    -0.050 Br
ENDBRANCH  17  19
ENDBRANCH   2  15
TORSDOF 5
