REMARK  Name = ZINC67490439
REMARK  7 active torsions:
REMARK  status: ('A' for Active; 'I' for Inactive)
REMARK    1  A    between atoms: C_1  and  C_2
REMARK    2  A    between atoms: C_7  and  N_12
REMARK    3  A    between atoms: C_9  and  C_11
REMARK    4  A    between atoms: C_13  and  C_15
REMARK    5  A    between atoms: N_17  and  C_18
REMARK    6  A    between atoms: C_21  and  S_25
REMARK    7  A    between atoms: S_25  and  C_28
REMARK                            x       y       z     vdW  Elec       q    Type
REMARK                         _______ _______ _______ _____ _____    ______ ____
ROOT
ATOM      1  C   UNL     1      -2.274  -4.292   1.745  0.00  0.00    +0.303 C 
ATOM      2  O   UNL     1      -3.179  -3.603   1.321  0.00  0.00    -0.265 OA
ATOM      3  N   UNL     1      -2.536  -5.521   2.232  0.00  0.00    -0.278 N 
ATOM      4  H   UNL     1      -1.807  -6.099   2.509  0.00  0.00    +0.155 HD
ENDROOT
BRANCH   3   5
ATOM      5  C   UNL     1      -3.856  -5.964   2.339  0.00  0.00    +0.039 A 
ATOM      6  C   UNL     1      -4.234  -6.775   3.402  0.00  0.00    +0.063 A 
ATOM      7  C   UNL     1      -5.543  -7.212   3.506  0.00  0.00    +0.153 A 
ATOM      8  C   UNL     1      -6.475  -6.842   2.552  0.00  0.00    +0.158 A 
ATOM      9  C   UNL     1      -6.101  -6.034   1.491  0.00  0.00    +0.153 A 
ATOM     10  C   UNL     1      -4.795  -5.590   1.386  0.00  0.00    +0.063 A 
ATOM     11  F   UNL     1      -7.012  -5.675   0.561  0.00  0.00    -0.203 F 
ATOM     12  F   UNL     1      -5.911  -8.001   4.539  0.00  0.00    -0.203 F 
BRANCH   8  13
ATOM     13  S   UNL     1      -8.141  -7.400   2.687  0.00  0.00    -0.000 S 
ATOM     14  O   UNL     1      -8.633  -7.398   1.354  0.00  0.00    -0.169 OA
ATOM     15  O   UNL     1      -8.059  -8.610   3.427  0.00  0.00    -0.169 OA
ATOM     16  C   UNL     1      -8.982  -6.125   3.665  0.00  0.00    +0.200 C 
ENDBRANCH   8  13
ENDBRANCH   3   5
BRANCH   1  18
ATOM     17  N   UNL     1      -0.611  -2.550   1.240  0.00  0.00    -0.304 N 
ATOM     18  C   UNL     1      -0.872  -3.779   1.727  0.00  0.00    +0.300 C 
ATOM     19  O   UNL     1       0.032  -4.468   2.151  0.00  0.00    -0.265 OA
ATOM     20  H   UNL     1      -1.333  -1.999   0.901  0.00  0.00    +0.149 HD
BRANCH  17  26
ATOM     21  C   UNL     1      -0.015   1.526   0.015  0.00  0.00    +0.008 C 
ATOM     22  C   UNL     1       0.001  -0.004   0.002  0.00  0.00    -0.009 C 
ATOM     23  C   UNL     1       0.708  -0.495  -1.263  0.00  0.00    +0.003 C 
ATOM     24  C   UNL     1       0.725  -2.025  -1.277  0.00  0.00    +0.002 C 
ATOM     25  C   UNL     1       1.472  -2.538  -0.043  0.00  0.00    +0.022 C 
ATOM     26  C   UNL     1       0.765  -2.046   1.222  0.00  0.00    +0.076 C 
ATOM     27  C   UNL     1       0.748  -0.516   1.235  0.00  0.00    +0.009 C 
ATOM     28  C   UNL     1       0.042  -0.025   2.500  0.00  0.00    +0.009 C 
ENDBRANCH  17  26
ENDBRANCH   1  18
TORSDOF 4
