REMARK  Name = ZINC39354308
REMARK  8 active torsions:
REMARK  status: ('A' for Active; 'I' for Inactive)
REMARK    1  A    between atoms: C_1  and  C_2
REMARK    2  A    between atoms: C_5  and  N_8
REMARK    3  A    between atoms: C_9  and  C_11
REMARK    4  A    between atoms: C_11  and  C_12
REMARK    5  A    between atoms: C_16  and  S_20
REMARK    6  A    between atoms: N_18  and  C_19
REMARK    7  A    between atoms: S_20  and  C_21
REMARK    8  A    between atoms: C_21  and  C_22
REMARK                            x       y       z     vdW  Elec       q    Type
REMARK                         _______ _______ _______ _____ _____    ______ ____
ROOT
ATOM      1  C   UNL     1       0.424  -6.867   2.557  0.00  0.00    +0.149 C 
ATOM      2  N   UNL     1       1.665  -6.361   3.200  0.00  0.00    -0.237 NA
ATOM      3  N   UNL     1       1.955  -7.335   4.255  0.00  0.00    -0.229 NA
ATOM      4  C   UNL     1       1.299  -8.599   3.863  0.00  0.00    +0.200 C 
ATOM      5  N   UNL     1       0.618  -8.341   2.571  0.00  0.00    -0.264 NA
ATOM      6  C   UNL     1      -0.671  -9.042   2.502  0.00  0.00    +0.108 C 
ATOM      7  H   UNL     1       1.522  -5.440   3.587  0.00  0.00    +0.142 HD
ATOM      8  H   UNL     1       1.613  -7.013   5.149  0.00  0.00    +0.143 HD
ENDROOT
BRANCH   1   9
ATOM      9  C   UNL     1       0.309  -6.349   1.121  0.00  0.00    +0.132 C 
BRANCH   9  11
ATOM     10  N   UNL     1       0.059  -4.170  -0.021  0.00  0.00    -0.285 N 
ATOM     11  C   UNL     1       0.175  -4.848   1.138  0.00  0.00    +0.220 C 
ATOM     12  O   UNL     1       0.173  -4.251   2.193  0.00  0.00    -0.275 OA
ATOM     13  H   UNL     1      -0.007  -4.651  -0.861  0.00  0.00    +0.155 HD
BRANCH  10  18
ATOM     14  C   UNL     1      -0.047   1.502   0.014  0.00  0.00    +0.044 C 
ATOM     15  C   UNL     1      -0.019  -0.004   0.005  0.00  0.00    -0.050 A 
ATOM     16  C   UNL     1      -0.605  -0.712   1.038  0.00  0.00    +0.005 A 
ATOM     17  C   UNL     1      -0.581  -2.093   1.033  0.00  0.00    +0.023 A 
ATOM     18  C   UNL     1       0.032  -2.771  -0.013  0.00  0.00    +0.033 A 
ATOM     19  C   UNL     1       0.620  -2.058  -1.049  0.00  0.00    +0.023 A 
ATOM     20  C   UNL     1       0.588  -0.677  -1.040  0.00  0.00    +0.005 A 
ENDBRANCH  10  18
ENDBRANCH   9  11
ENDBRANCH   1   9
BRANCH   4  21
ATOM     21  S   UNL     1       2.540  -9.908   3.665  0.00  0.00    -0.117 S 
BRANCH  21  22
ATOM     22  C   UNL     1       3.660  -9.261   2.393  0.00  0.00    +0.146 C 
BRANCH  22  23
ATOM     23  C   UNL     1       4.754 -10.265   2.130  0.00  0.00    +0.120 A 
ATOM     24  N   UNL     1       5.701  -9.958   1.205  0.00  0.00    -0.310 N 
ATOM     25  H   UNL     1       5.658  -9.109   0.737  0.00  0.00    +0.170 HD
ATOM     26  C   UNL     1       6.704 -10.825   0.932  0.00  0.00    +0.259 A 
ATOM     27  O   UNL     1       7.559 -10.562   0.107  0.00  0.00    -0.267 OA
ATOM     28  C   UNL     1       6.720 -12.096   1.672  0.00  0.00    +0.065 A 
ATOM     29  C   UNL     1       7.707 -13.056   1.465  0.00  0.00    +0.015 A 
ATOM     30  C   UNL     1       7.674 -14.230   2.185  0.00  0.00    +0.001 A 
ATOM     31  C   UNL     1       6.665 -14.462   3.112  0.00  0.00    +0.002 A 
ATOM     32  C   UNL     1       5.680 -13.526   3.330  0.00  0.00    +0.028 A 
ATOM     33  C   UNL     1       5.693 -12.328   2.613  0.00  0.00    +0.078 A 
ATOM     34  N   UNL     1       4.745 -11.376   2.801  0.00  0.00    -0.233 NA
ENDBRANCH  22  23
ENDBRANCH  21  22
ENDBRANCH   4  21
TORSDOF 6
