REMARK  Name = ZINC36740758
REMARK  5 active torsions:
REMARK  status: ('A' for Active; 'I' for Inactive)
REMARK    1  A    between atoms: C_1  and  C_2
REMARK    2  A    between atoms: N_11  and  C_15
REMARK    3  A    between atoms: C_15  and  C_16
REMARK    4  A    between atoms: N_18  and  C_19
REMARK    5  A    between atoms: C_20  and  C_29
REMARK                            x       y       z     vdW  Elec       q    Type
REMARK                         _______ _______ _______ _____ _____    ______ ____
ROOT
ATOM      1  C   UNL     1       3.425   2.876   2.253  0.00  0.00    +0.236 C 
ATOM      2  O   UNL     1       2.503   3.237   1.554  0.00  0.00    -0.274 OA
ATOM      3  N   UNL     1       4.441   3.721   2.519  0.00  0.00    -0.278 N 
ATOM      4  H   UNL     1       5.178   3.433   3.078  0.00  0.00    +0.155 HD
ENDROOT
BRANCH   3   5
ATOM      5  C   UNL     1       4.430   5.005   1.992  0.00  0.00    +0.090 A 
ATOM      6  C   UNL     1       5.380   5.998   2.152  0.00  0.00    +0.084 A 
ATOM      7  C   UNL     1       5.136   7.272   1.491  0.00  0.00    -0.018 A 
ATOM      8  C   UNL     1       3.980   7.315   0.796  0.00  0.00    -0.004 A 
ATOM      9  S   UNL     1       3.266   5.708   1.008  0.00  0.00    -0.077 S 
ATOM     10  C   UNL     1       3.420   8.468   0.023  0.00  0.00    +0.043 C 
ATOM     11  C   UNL     1       4.513   9.041  -0.889  0.00  0.00    +0.005 C 
ATOM     12  C   UNL     1       5.277  10.113  -0.119  0.00  0.00    +0.001 C 
ATOM     13  C   UNL     1       5.341   9.753   1.364  0.00  0.00    +0.005 C 
ATOM     14  C   UNL     1       6.102   8.446   1.563  0.00  0.00    +0.037 C 
BRANCH   6  15
ATOM     15  C   UNL     1       6.558   5.781   2.937  0.00  0.00    +0.102 C 
ATOM     16  N   UNL     1       7.492   5.609   3.560  0.00  0.00    -0.191 NA
ENDBRANCH   6  15
ENDBRANCH   3   5
BRANCH   1  17
ATOM     17  C   UNL     1       3.436   1.482   2.825  0.00  0.00    +0.214 C 
BRANCH  17  27
ATOM     18  C   UNL     1      -0.019   1.526   0.010  0.00  0.00    +0.010 C 
ATOM     19  C   UNL     1       0.002  -0.004   0.002  0.00  0.00    +0.018 C 
ATOM     20  C   UNL     1      -1.434  -0.534   0.012  0.00  0.00    +0.006 C 
ATOM     21  C   UNL     1      -1.412  -2.064   0.024  0.00  0.00    +0.000 C 
ATOM     22  C   UNL     1      -0.687  -2.556   1.279  0.00  0.00    +0.003 C 
ATOM     23  C   UNL     1       0.752  -2.033   1.273  0.00  0.00    +0.035 C 
ATOM     24  C   UNL     1       0.740  -0.509   1.237  0.00  0.00    +0.115 C 
ATOM     25  C   UNL     1       2.151   0.030   1.266  0.00  0.00    +0.247 C 
ATOM     26  O   UNL     1       3.026  -0.158   0.448  0.00  0.00    -0.273 OA
ATOM     27  N   UNL     1       2.233   0.767   2.394  0.00  0.00    -0.215 N 
ATOM     28  C   UNL     1       1.077   0.763   3.069  0.00  0.00    +0.310 C 
ATOM     29  O   UNL     1       0.904   1.356   4.116  0.00  0.00    -0.252 OA
ATOM     30  N   UNL     1       0.127   0.030   2.458  0.00  0.00    -0.285 N 
ATOM     31  H   UNL     1      -0.782  -0.114   2.764  0.00  0.00    +0.151 HD
ENDBRANCH  17  27
ENDBRANCH   1  17
TORSDOF 4
