REMARK  Name = ZINC39395760
REMARK  6 active torsions:
REMARK  status: ('A' for Active; 'I' for Inactive)
REMARK    1  A    between atoms: C_6  and  S_10
REMARK    2  A    between atoms: S_10  and  C_11
REMARK    3  A    between atoms: C_11  and  C_12
REMARK    4  A    between atoms: C_12  and  C_13
REMARK    5  A    between atoms: N_15  and  C_16
REMARK    6  A    between atoms: C_18  and  C_27
REMARK                            x       y       z     vdW  Elec       q    Type
REMARK                         _______ _______ _______ _____ _____    ______ ____
ROOT
ATOM      1  C   UNL     1      -7.867  -3.915   0.023  0.00  0.00    +0.215 C 
ATOM      2  O   UNL     1      -8.138  -2.733   0.030  0.00  0.00    -0.276 OA
ATOM      3  N   UNL     1      -8.855  -4.833   0.024  0.00  0.00    -0.299 N 
ATOM      4  H   UNL     1      -8.638  -5.778   0.018  0.00  0.00    +0.150 HD
ENDROOT
BRANCH   3   5
ATOM      5  C   UNL     1     -10.255  -4.402   0.033  0.00  0.00    +0.172 C 
ATOM      6  C   UNL     1     -11.094  -5.250  -0.904  0.00  0.00    +0.060 C 
ATOM      7  C   UNL     1     -12.232  -5.733  -0.471  0.00  0.00    -0.041 C 
ATOM      8  C   UNL     1     -13.136  -6.692  -1.246  0.00  0.00    +0.033 C 
ATOM      9  C   UNL     1     -14.465  -6.745  -0.487  0.00  0.00    +0.004 C 
ATOM     10  C   UNL     1     -14.287  -7.257   0.935  0.00  0.00    +0.002 C 
ATOM     11  C   UNL     1     -13.042  -6.700   1.619  0.00  0.00    +0.019 C 
ATOM     12  C   UNL     1     -12.649  -5.374   0.962  0.00  0.00    +0.075 C 
ATOM     13  S   UNL     1     -11.055  -4.775   1.655  0.00  0.00    -0.125 S 
BRANCH   6  14
ATOM     14  C   UNL     1     -10.650  -5.518  -2.239  0.00  0.00    +0.098 C 
ATOM     15  N   UNL     1     -10.298  -5.730  -3.298  0.00  0.00    -0.191 NA
ENDBRANCH   6  14
ENDBRANCH   3   5
BRANCH   1  16
ATOM     16  C   UNL     1      -6.427  -4.358   0.013  0.00  0.00    +0.107 C 
BRANCH  16  17
ATOM     17  C   UNL     1      -5.516  -3.129   0.015  0.00  0.00    +0.086 C 
BRANCH  17  18
ATOM     18  S   UNL     1      -3.782  -3.663   0.003  0.00  0.00    -0.087 S 
BRANCH  18  24
ATOM     19  C   UNL     1      -0.017   1.375   0.010  0.00  0.00    +0.002 A 
ATOM     20  C   UNL     1      -1.222   2.062   0.019  0.00  0.00    +0.002 A 
ATOM     21  C   UNL     1      -2.416   1.377   0.021  0.00  0.00    +0.030 A 
ATOM     22  C   UNL     1      -2.414  -0.021   0.014  0.00  0.00    +0.090 A 
ATOM     23  N   UNL     1      -3.401  -0.955   0.014  0.00  0.00    -0.222 NA
ATOM     24  C   UNL     1      -2.872  -2.154   0.005  0.00  0.00    +0.167 A 
ATOM     25  N   UNL     1      -1.509  -2.059  -0.001  0.00  0.00    -0.333 N 
ATOM     26  C   UNL     1      -1.191  -0.711   0.004  0.00  0.00    +0.067 A 
ATOM     27  C   UNL     1       0.002  -0.004   0.002  0.00  0.00    +0.028 A 
ATOM     28  H   UNL     1      -0.880  -2.798  -0.009  0.00  0.00    +0.168 HD
ENDBRANCH  18  24
ENDBRANCH  17  18
ENDBRANCH  16  17
ENDBRANCH   1  16
TORSDOF 6
