REMARK  Name = ZINC14710609
REMARK  8 active torsions:
REMARK  status: ('A' for Active; 'I' for Inactive)
REMARK    1  A    between atoms: C_1  and  C_2
REMARK    2  A    between atoms: C_2  and  C_3
REMARK    3  A    between atoms: C_8  and  N_9
REMARK    4  A    between atoms: C_10  and  C_12
REMARK    5  A    between atoms: C_17  and  S_18
REMARK    6  A    between atoms: S_18  and  C_19
REMARK    7  A    between atoms: C_19  and  C_20
REMARK    8  A    between atoms: N_22  and  C_23
REMARK                            x       y       z     vdW  Elec       q    Type
REMARK                         _______ _______ _______ _____ _____    ______ ____
ROOT
ATOM      1  C   UNL     1      -1.202  -0.727   0.030  0.00  0.00    +0.050 A 
ATOM      2  C   UNL     1      -1.168  -2.124   0.026  0.00  0.00    +0.014 A 
ATOM      3  C   UNL     1       0.042  -2.783   0.022  0.00  0.00    +0.001 A 
ATOM      4  C   UNL     1       1.229  -2.067   0.017  0.00  0.00    +0.001 A 
ATOM      5  C   UNL     1       1.214  -0.688   0.016  0.00  0.00    +0.015 A 
ATOM      6  C   UNL     1       0.002  -0.005   0.020  0.00  0.00    +0.020 A 
ENDROOT
BRANCH   1   8
ATOM      7  N   UNL     1      -3.646  -0.714   0.051  0.00  0.00    -0.281 N 
ATOM      8  C   UNL     1      -2.493  -0.017   0.041  0.00  0.00    +0.249 C 
ATOM      9  O   UNL     1      -2.518   1.199   0.041  0.00  0.00    -0.270 OA
ATOM     10  H   UNL     1      -3.629  -1.681  -0.030  0.00  0.00    +0.155 HD
BRANCH   7  16
ATOM     11  C   UNL     1      -6.033  -0.625  -0.305  0.00  0.00    -0.026 A 
ATOM     12  C   UNL     1      -7.237   0.038  -0.178  0.00  0.00    +0.005 A 
ATOM     13  C   UNL     1      -7.284   1.280   0.429  0.00  0.00    +0.000 A 
ATOM     14  C   UNL     1      -6.125   1.861   0.910  0.00  0.00    +0.002 A 
ATOM     15  C   UNL     1      -4.918   1.201   0.791  0.00  0.00    +0.023 A 
ATOM     16  C   UNL     1      -4.867  -0.044   0.177  0.00  0.00    +0.037 A 
BRANCH  11  18
ATOM     17  C   UNL     1      -6.056  -3.071   0.103  0.00  0.00    +0.009 C 
ATOM     18  C   UNL     1      -5.983  -1.979  -0.966  0.00  0.00    +0.033 C 
ENDBRANCH  11  18
ENDBRANCH   7  16
ENDBRANCH   1   8
BRANCH   6  19
ATOM     19  S   UNL     1      -0.021   1.757   0.020  0.00  0.00    -0.115 S 
BRANCH  19  20
ATOM     20  C   UNL     1       1.733   2.219   0.014  0.00  0.00    +0.170 C 
BRANCH  20  21
ATOM     21  C   UNL     1       1.856   3.721   0.013  0.00  0.00    +0.224 C 
ATOM     22  O   UNL     1       0.859   4.412   0.017  0.00  0.00    -0.275 OA
ATOM     23  N   UNL     1       3.075   4.297   0.009  0.00  0.00    -0.309 N 
ATOM     24  H   UNL     1       3.872   3.745   0.006  0.00  0.00    +0.149 HD
BRANCH  23  25
ATOM     25  C   UNL     1       3.195   5.757   0.008  0.00  0.00    +0.035 C 
ATOM     26  C   UNL     1       2.514   6.324  -1.239  0.00  0.00    +0.029 C 
ATOM     27  C   UNL     1       2.639   7.849  -1.239  0.00  0.00    -0.008 C 
ATOM     28  C   UNL     1       4.119   8.239  -1.245  0.00  0.00    +0.007 C 
ATOM     29  C   UNL     1       4.800   7.672   0.002  0.00  0.00    -0.008 C 
ATOM     30  C   UNL     1       4.675   6.147   0.003  0.00  0.00    +0.029 C 
ATOM     31  C   UNL     1       4.127   8.240   1.254  0.00  0.00    +0.007 C 
ATOM     32  C   UNL     1       2.648   7.850   1.259  0.00  0.00    -0.008 C 
ATOM     33  C   UNL     1       1.966   8.417   0.012  0.00  0.00    +0.007 C 
ATOM     34  C   UNL     1       2.522   6.325   1.260  0.00  0.00    +0.029 C 
ENDBRANCH  23  25
ENDBRANCH  20  21
ENDBRANCH  19  20
ENDBRANCH   6  19
TORSDOF 7
