REMARK  Name = ZINC03041524
REMARK  10 active torsions:
REMARK  status: ('A' for Active; 'I' for Inactive)
REMARK    1  A    between atoms: C_1  and  C_2
REMARK    2  A    between atoms: C_7  and  C_8
REMARK    3  A    between atoms: C_8  and  N_9
REMARK    4  A    between atoms: N_17  and  N_18
REMARK    5  A    between atoms: N_18  and  C_19
REMARK    6  A    between atoms: C_19  and  N_21
REMARK    7  A    between atoms: N_21  and  C_22
REMARK    8  A    between atoms: C_24  and  C_31
REMARK    9  A    between atoms: C_27  and  O_28
REMARK   10  A    between atoms: O_28  and  C_29
REMARK                            x       y       z     vdW  Elec       q    Type
REMARK                         _______ _______ _______ _____ _____    ______ ____
ROOT
ATOM      1  N   UNL     1      -1.117   0.966   2.924  0.00  0.00    -0.261 N 
ATOM      2  C   UNL     1      -1.583   2.013   2.138  0.00  0.00    +0.046 A 
ATOM      3  C   UNL     1      -0.948   2.813   1.193  0.00  0.00    +0.024 A 
ATOM      4  C   UNL     1      -1.651   3.805   0.540  0.00  0.00    +0.002 A 
ATOM      5  C   UNL     1      -2.992   4.016   0.815  0.00  0.00    +0.001 A 
ATOM      6  C   UNL     1      -3.639   3.233   1.750  0.00  0.00    +0.012 A 
ATOM      7  C   UNL     1      -2.939   2.231   2.413  0.00  0.00    +0.028 A 
ATOM      8  C   UNL     1      -3.321   1.239   3.444  0.00  0.00    +0.153 C 
ATOM      9  N   UNL     1      -4.499   1.077   4.000  0.00  0.00    -0.175 NA
ATOM     10  C   UNL     1      -2.091   0.468   3.706  0.00  0.00    +0.272 C 
ATOM     11  O   UNL     1      -1.977  -0.454   4.493  0.00  0.00    -0.268 OA
ENDROOT
BRANCH   9  12
ATOM     12  N   UNL     1      -4.686   0.081   4.967  0.00  0.00    -0.217 N 
ATOM     13  H   UNL     1      -3.945  -0.489   5.226  0.00  0.00    +0.176 HD
BRANCH  12  14
ATOM     14  C   UNL     1      -5.896  -0.084   5.538  0.00  0.00    +0.154 C 
ATOM     15  S   UNL     1      -6.125  -1.302   6.720  0.00  0.00    -0.017 S 
BRANCH  14  16
ATOM     16  N   UNL     1      -6.925   0.708   5.179  0.00  0.00    -0.293 N 
ATOM     17  H   UNL     1      -6.785   1.425   4.541  0.00  0.00    +0.154 HD
BRANCH  16  18
ATOM     18  C   UNL     1      -8.197   0.496   5.727  0.00  0.00    +0.075 A 
ATOM     19  C   UNL     1      -8.659  -0.796   5.931  0.00  0.00    +0.031 A 
ATOM     20  C   UNL     1      -9.914  -1.003   6.472  0.00  0.00    -0.030 A 
ATOM     21  C   UNL     1     -10.712   0.076   6.810  0.00  0.00    +0.047 A 
ATOM     22  C   UNL     1     -10.257   1.367   6.609  0.00  0.00    +0.067 A 
ATOM     23  C   UNL     1      -8.998   1.582   6.073  0.00  0.00    +0.143 A 
ATOM     24 CL   UNL     1     -12.288  -0.191   7.488  0.00  0.00    -0.083 Cl
ATOM     25  C   UNL     1     -10.415  -2.407   6.693  0.00  0.00    +0.045 C 
BRANCH  23  26
ATOM     26  O   UNL     1      -8.547   2.850   5.880  0.00  0.00    -0.493 OA
ATOM     27  C   UNL     1      -9.422   3.915   6.258  0.00  0.00    +0.277 C 
ENDBRANCH  23  26
ENDBRANCH  16  18
ENDBRANCH  14  16
ENDBRANCH  12  14
ENDBRANCH   9  12
BRANCH   1  28
ATOM     28  C   UNL     1       0.259   0.463   2.900  0.00  0.00    +0.149 C 
BRANCH  28  35
ATOM     29  C   UNL     1       3.089  -0.067   3.133  0.00  0.00    +0.044 C 
ATOM     30  C   UNL     1       2.437   0.953   4.031  0.00  0.00    -0.046 A 
ATOM     31  C   UNL     1       3.194   1.638   4.963  0.00  0.00    +0.003 A 
ATOM     32  C   UNL     1       2.596   2.573   5.786  0.00  0.00    +0.000 A 
ATOM     33  C   UNL     1       1.241   2.823   5.678  0.00  0.00    +0.000 A 
ATOM     34  C   UNL     1       0.484   2.138   4.746  0.00  0.00    +0.005 A 
ATOM     35  C   UNL     1       1.083   1.206   3.919  0.00  0.00    -0.027 A 
ENDBRANCH  28  35
ENDBRANCH   1  28
TORSDOF 7
