REMARK  Name = ZINC25371199
REMARK  3 active torsions:
REMARK  status: ('A' for Active; 'I' for Inactive)
REMARK    1  A    between atoms: C_5  and  O_7
REMARK    2  A    between atoms: O_7  and  C_8
REMARK    3  A    between atoms: C_11  and  N_18
REMARK                            x       y       z     vdW  Elec       q    Type
REMARK                         _______ _______ _______ _____ _____    ______ ____
ROOT
ATOM      1  C   UNL     1      -0.044   1.358   0.098  0.00  0.00    +0.136 A 
ATOM      2  C   UNL     1       1.127   1.972   0.485  0.00  0.00    +0.049 A 
ATOM      3  C   UNL     1       2.320   1.258   0.549  0.00  0.00    +0.037 A 
ATOM      4  C   UNL     1       2.365  -0.067   0.232  0.00  0.00    +0.136 A 
ATOM      5  C   UNL     1       1.194  -0.729  -0.167  0.00  0.00    +0.034 A 
ATOM      6  C   UNL     1      -0.026  -0.009  -0.235  0.00  0.00    +0.029 A 
ATOM      7  C   UNL     1      -1.184  -0.697  -0.638  0.00  0.00    +0.032 A 
ATOM      8  C   UNL     1      -1.084  -2.021  -0.944  0.00  0.00    +0.111 A 
ATOM      9  N   UNL     1       0.070  -2.671  -0.872  0.00  0.00    -0.263 NA
ATOM     10  C   UNL     1       1.189  -2.093  -0.504  0.00  0.00    +0.121 A 
ENDROOT
BRANCH   4  11
ATOM     11  N   UNL     1       3.647  -0.804   0.307  0.00  0.00    +0.057 N 
ATOM     12  O   UNL     1       3.666  -1.952   0.715  0.00  0.00    -0.126 OA
ATOM     13  O   UNL     1       4.682  -0.263  -0.039  0.00  0.00    -0.126 OA
ENDBRANCH   4  11
BRANCH   1  14
ATOM     14  O   UNL     1      -1.202   2.065   0.034  0.00  0.00    -0.454 OA
BRANCH  14  19
ATOM     15  C   UNL     1      -2.508   1.304   3.343  0.00  0.00    +0.004 A 
ATOM     16  C   UNL     1      -3.752   1.905   3.274  0.00  0.00    +0.001 A 
ATOM     17  C   UNL     1      -4.143   2.559   2.120  0.00  0.00    +0.019 A 
ATOM     18  C   UNL     1      -3.291   2.614   1.033  0.00  0.00    +0.060 A 
ATOM     19  C   UNL     1      -2.042   2.013   1.101  0.00  0.00    +0.142 A 
ATOM     20  C   UNL     1      -1.654   1.353   2.259  0.00  0.00    +0.047 A 
ATOM     21 BR   UNL     1      -3.826   3.510  -0.544  0.00  0.00    -0.046 Br
ENDBRANCH  14  19
ENDBRANCH   1  14
TORSDOF 3
