REMARK  Name = ZINC09034139
REMARK  6 active torsions:
REMARK  status: ('A' for Active; 'I' for Inactive)
REMARK    1  A    between atoms: C_1  and  O_2
REMARK    2  A    between atoms: O_2  and  C_3
REMARK    3  A    between atoms: C_3  and  C_5
REMARK    4  A    between atoms: C_20  and  C_22
REMARK    5  A    between atoms: C_22  and  O_23
REMARK    6  A    between atoms: O_23  and  C_24
REMARK                            x       y       z     vdW  Elec       q    Type
REMARK                         _______ _______ _______ _____ _____    ______ ____
ROOT
ATOM      1  C   UNL     1      -8.581   6.156   0.238  0.00  0.00    +0.189 C 
ATOM      2  C   UNL     1      -7.941   5.463   1.441  0.00  0.00    +0.071 C 
ATOM      3  C   UNL     1      -8.009   3.971   1.242  0.00  0.00    -0.015 A 
ATOM      4  C   UNL     1      -7.855   2.925   2.233  0.00  0.00    +0.003 A 
ATOM      5  C   UNL     1      -7.615   2.952   3.610  0.00  0.00    +0.010 A 
ATOM      6  C   UNL     1      -7.524   1.739   4.248  0.00  0.00    +0.001 A 
ATOM      7  C   UNL     1      -7.661   0.539   3.570  0.00  0.00    +0.002 A 
ATOM      8  C   UNL     1      -7.899   0.483   2.208  0.00  0.00    +0.026 A 
ATOM      9  C   UNL     1      -7.997   1.698   1.534  0.00  0.00    +0.047 A 
ATOM     10  N   UNL     1      -8.221   2.002   0.222  0.00  0.00    -0.356 N 
ATOM     11  H   UNL     1      -8.354   1.353  -0.486  0.00  0.00    +0.166 HD
ATOM     12  C   UNL     1      -8.228   3.361   0.057  0.00  0.00    +0.038 A 
ATOM     13  C   UNL     1      -8.445   4.111  -1.239  0.00  0.00    +0.162 C 
ATOM     14  N   UNL     1      -8.099   5.522  -0.998  0.00  0.00    -0.279 N 
ATOM     15  C   UNL     1      -7.355   6.212  -1.885  0.00  0.00    +0.254 C 
ATOM     16  O   UNL     1      -7.167   7.400  -1.724  0.00  0.00    -0.272 OA
ENDROOT
BRANCH   1  17
ATOM     17  C   UNL     1      -8.200   7.614   0.239  0.00  0.00    +0.328 C 
ATOM     18  O   UNL     1      -7.048   7.938   0.412  0.00  0.00    -0.249 OA
BRANCH  17  20
ATOM     19  C   UNL     1      -8.700   9.937   0.059  0.00  0.00    +0.280 C 
ATOM     20  O   UNL     1      -9.139   8.553   0.046  0.00  0.00    -0.467 OA
ENDBRANCH  17  20
ENDBRANCH   1  17
BRANCH  15  21
ATOM     21  C   UNL     1      -6.757   5.509  -3.076  0.00  0.00    +0.324 C 
BRANCH  21  22
ATOM     22  O   UNL     1      -6.018   6.447  -3.861  0.00  0.00    -0.481 OA
BRANCH  22  23
ATOM     23  C   UNL     1      -5.411   5.972  -4.979  0.00  0.00    +0.143 A 
ATOM     24  C   UNL     1      -5.529   4.631  -5.308  0.00  0.00    +0.094 A 
ATOM     25  C   UNL     1      -4.909   4.146  -6.449  0.00  0.00    +0.143 A 
ATOM     26  C   UNL     1      -4.168   5.023  -7.261  0.00  0.00    +0.023 A 
ATOM     27  C   UNL     1      -4.059   6.375  -6.915  0.00  0.00    +0.035 A 
ATOM     28  C   UNL     1      -4.675   6.837  -5.787  0.00  0.00    +0.083 A 
ATOM     29 CL   UNL     1      -4.541   8.514  -5.357  0.00  0.00    -0.080 Cl
ATOM     30  C   UNL     1      -3.514   4.503  -8.469  0.00  0.00    -0.027 A 
ATOM     31  C   UNL     1      -3.647   3.189  -8.753  0.00  0.00    +0.041 A 
ATOM     32  C   UNL     1      -4.414   2.365  -7.892  0.00  0.00    +0.341 A 
ATOM     33  O   UNL     1      -4.535   1.184  -8.161  0.00  0.00    -0.245 OA
ATOM     34  O   UNL     1      -5.014   2.845  -6.795  0.00  0.00    -0.422 OA
ATOM     35  C   UNL     1      -3.003   2.549  -9.954  0.00  0.00    +0.042 C 
ATOM     36  C   UNL     1      -2.607   3.608 -10.982  0.00  0.00    +0.005 C 
ATOM     37  C   UNL     1      -1.797   4.696 -10.266  0.00  0.00    +0.005 C 
ATOM     38  C   UNL     1      -2.737   5.457  -9.333  0.00  0.00    +0.036 C 
ENDBRANCH  22  23
ENDBRANCH  21  22
ENDBRANCH  15  21
TORSDOF 5
