REMARK  Name = ZINC20687815
REMARK  4 active torsions:
REMARK  status: ('A' for Active; 'I' for Inactive)
REMARK    1  A    between atoms: C_1  and  C_2
REMARK    2  A    between atoms: C_6  and  C_7
REMARK    3  A    between atoms: C_18  and  S_23
REMARK    4  A    between atoms: S_23  and  N_26
REMARK                            x       y       z     vdW  Elec       q    Type
REMARK                         _______ _______ _______ _____ _____    ______ ____
ROOT
ATOM      1  C   UNL     1      -8.293   1.166  -1.127  0.00  0.00    +0.112 C 
ATOM      2  C   UNL     1      -8.017   2.267  -2.135  0.00  0.00    +0.029 C 
ATOM      3  C   UNL     1      -8.457   1.992  -3.575  0.00  0.00    +0.033 C 
ATOM      4  C   UNL     1      -7.452   2.843  -4.354  0.00  0.00    -0.030 C 
ATOM      5  C   UNL     1      -6.336   2.986  -3.649  0.00  0.00    -0.023 C 
ATOM      6  C   UNL     1      -6.478   2.231  -2.378  0.00  0.00    +0.049 C 
ATOM      7  C   UNL     1      -5.810   2.661  -1.131  0.00  0.00    -0.018 A 
ATOM      8  C   UNL     1      -4.644   3.396  -1.132  0.00  0.00    +0.034 A 
ATOM      9  C   UNL     1      -4.044   3.752   0.062  0.00  0.00    +0.106 A 
ATOM     10  C   UNL     1      -4.618   3.379   1.263  0.00  0.00    +0.030 A 
ATOM     11  C   UNL     1      -5.791   2.652   1.274  0.00  0.00    +0.025 A 
ATOM     12  C   UNL     1      -6.403   2.290   0.080  0.00  0.00    +0.031 A 
ATOM     13  N   UNL     1      -7.611   1.583   0.117  0.00  0.00    -0.336 N 
ATOM     14  H   UNL     1      -8.052   1.338   1.095  0.00  0.00    +0.147 HD
ENDROOT
BRANCH   1  20
ATOM     15  C   UNL     1     -10.139  -1.040  -2.205  0.00  0.00    +0.044 C 
ATOM     16  C   UNL     1     -10.633   0.090  -1.339  0.00  0.00    -0.038 A 
ATOM     17  C   UNL     1     -11.968   0.172  -0.989  0.00  0.00    +0.011 A 
ATOM     18  C   UNL     1     -12.381   1.205  -0.214  0.00  0.00    +0.046 A 
ATOM     19  S   UNL     1     -10.860   2.101   0.050  0.00  0.00    -0.099 S 
ATOM     20  C   UNL     1      -9.776   1.038  -0.890  0.00  0.00    +0.013 A 
ENDBRANCH   1  20
BRANCH   9  21
ATOM     21  S   UNL     1      -2.550   4.687   0.052  0.00  0.00    +0.061 S 
ATOM     22  O   UNL     1      -2.486   5.363   1.300  0.00  0.00    -0.153 OA
ATOM     23  O   UNL     1      -2.510   5.376  -1.190  0.00  0.00    -0.153 OA
BRANCH  21  24
ATOM     24  N   UNL     1      -1.296   3.606   0.034  0.00  0.00    -0.177 NA
ATOM     25  C   UNL     1      -0.741   3.124  -1.238  0.00  0.00    +0.109 C 
ATOM     26  C   UNL     1      -0.752   1.593  -1.232  0.00  0.00    +0.017 C 
ATOM     27  C   UNL     1      -0.013   1.086   0.008  0.00  0.00    +0.003 C 
ATOM     28  C   UNL     1      -0.729   1.579   1.268  0.00  0.00    +0.017 C 
ATOM     29  C   UNL     1      -0.717   3.111   1.290  0.00  0.00    +0.109 C 
ENDBRANCH  21  24
ENDBRANCH   9  21
TORSDOF 3
