REMARK  Name = ZINC41154917
REMARK  4 active torsions:
REMARK  status: ('A' for Active; 'I' for Inactive)
REMARK    1  A    between atoms: C_1  and  C_2
REMARK    2  A    between atoms: C_7  and  C_9
REMARK    3  A    between atoms: C_7  and  N_21
REMARK    4  A    between atoms: C_11  and  C_14
REMARK                            x       y       z     vdW  Elec       q    Type
REMARK                         _______ _______ _______ _____ _____    ______ ____
ROOT
ATOM      1  C   UNL     1       2.674  -1.459   2.329  0.00  0.00    +0.161 A 
ATOM      2  N   UNL     1       3.948  -1.612   2.696  0.00  0.00    -0.193 NA
ATOM      3  C   UNL     1       4.030  -2.466   3.691  0.00  0.00    +0.259 A 
ATOM      4  O   UNL     1       2.786  -2.884   3.983  0.00  0.00    -0.333 OA
ATOM      5  N   UNL     1       1.920  -2.208   3.083  0.00  0.00    -0.062 NA
ENDROOT
BRANCH   1  11
ATOM      6  C   UNL     1      -0.019   1.524   0.010  0.00  0.00    +0.007 C 
ATOM      7  C   UNL     1       0.002  -0.004   0.002  0.00  0.00    -0.015 C 
ATOM      8  C   UNL     1       0.627  -0.525  -1.285  0.00  0.00    +0.003 C 
ATOM      9  C   UNL     1       2.141  -0.325  -1.273  0.00  0.00    -0.001 C 
ATOM     10  C   UNL     1       2.734  -1.097  -0.096  0.00  0.00    -0.005 C 
ATOM     11  C   UNL     1       2.185  -0.560   1.223  0.00  0.00    -0.006 C 
ATOM     12  C   UNL     1       0.666  -0.561   1.247  0.00  0.00    -0.002 C 
BRANCH  11  13
ATOM     13  N   UNL     1       2.717   0.786   1.476  0.00  0.00    +0.387 N 
ATOM     14  H   UNL     1       2.443   1.403   0.727  0.00  0.00    -0.089 HD
ATOM     15  H   UNL     1       2.350   1.133   2.349  0.00  0.00    -0.089 HD
ATOM     16  H   UNL     1       3.724   0.745   1.528  0.00  0.00    -0.089 HD
ENDBRANCH  11  13
ENDBRANCH   1  11
BRANCH   3  17
ATOM     17  C   UNL     1       5.271  -2.894   4.370  0.00  0.00    +0.053 A 
ATOM     18  C   UNL     1       6.504  -2.376   3.968  0.00  0.00    +0.014 A 
ATOM     19  C   UNL     1       7.659  -2.780   4.606  0.00  0.00    +0.001 A 
ATOM     20  C   UNL     1       7.598  -3.696   5.641  0.00  0.00    +0.001 A 
ATOM     21  C   UNL     1       6.380  -4.214   6.044  0.00  0.00    +0.015 A 
ATOM     22  C   UNL     1       5.216  -3.814   5.418  0.00  0.00    +0.026 A 
ATOM     23  I   UNL     1       3.372  -4.593   6.036  0.00  0.00    -0.043 I 
ENDBRANCH   3  17
TORSDOF 3
