REMARK  Name = ZINC40734283
REMARK  6 active torsions:
REMARK  status: ('A' for Active; 'I' for Inactive)
REMARK    1  A    between atoms: C_10  and  N_11
REMARK    2  A    between atoms: C_13  and  N_27
REMARK    3  A    between atoms: C_14  and  N_18
REMARK    4  A    between atoms: N_21  and  C_24
REMARK    5  A    between atoms: C_24  and  C_25
REMARK    6  A    between atoms: C_25  and  O_26
REMARK                            x       y       z     vdW  Elec       q    Type
REMARK                         _______ _______ _______ _____ _____    ______ ____
ROOT
ATOM      1  N   UNL     1       4.870   0.097  -0.047  0.00  0.00    -0.297 N 
ATOM      2  C   UNL     1       6.082  -0.578   0.044  0.00  0.00    +0.149 A 
ATOM      3  C   UNL     1       7.281   0.130   0.147  0.00  0.00    +0.106 A 
ATOM      4  C   UNL     1       8.470  -0.597   0.236  0.00  0.00    +0.147 A 
ATOM      5  N   UNL     1       8.416  -1.926   0.219  0.00  0.00    -0.219 NA
ATOM      6  C   UNL     1       7.262  -2.556   0.120  0.00  0.00    +0.225 A 
ATOM      7  N   UNL     1       6.118  -1.908   0.039  0.00  0.00    -0.219 NA
ATOM      8  H   UNL     1       4.857   1.063  -0.126  0.00  0.00    +0.154 HD
ENDROOT
BRANCH   1  18
ATOM      9  C   UNL     1       0.201   0.944  -1.762  0.00  0.00    +0.001 A 
ATOM     10  C   UNL     1       1.387   1.674  -1.796  0.00  0.00    +0.001 A 
ATOM     11  C   UNL     1       2.527   1.183  -1.236  0.00  0.00    +0.010 A 
ATOM     12  C   UNL     1       2.510  -0.075  -0.615  0.00  0.00    +0.003 A 
ATOM     13  C   UNL     1       1.304  -0.818  -0.581  0.00  0.00    -0.016 A 
ATOM     14  C   UNL     1       0.147  -0.280  -1.169  0.00  0.00    +0.008 A 
ATOM     15  C   UNL     1       1.286  -2.079   0.041  0.00  0.00    +0.008 A 
ATOM     16  C   UNL     1       2.422  -2.576   0.603  0.00  0.00    +0.002 A 
ATOM     17  C   UNL     1       3.612  -1.856   0.576  0.00  0.00    +0.024 A 
ATOM     18  C   UNL     1       3.672  -0.616  -0.024  0.00  0.00    +0.040 A 
ENDBRANCH   1  18
BRANCH   4  19
ATOM     19  N   UNL     1       9.691   0.058   0.340  0.00  0.00    -0.311 N 
ATOM     20  C   UNL     1      10.206   0.494   1.648  0.00  0.00    +0.122 C 
ATOM     21  C   UNL     1      11.641  -0.019   1.802  0.00  0.00    +0.103 C 
ATOM     22  N   UNL     1      12.439   0.412   0.646  0.00  0.00    -0.297 NA
ATOM     23  C   UNL     1      11.928  -0.172  -0.601  0.00  0.00    +0.103 C 
ATOM     24  C   UNL     1      10.507   0.329  -0.853  0.00  0.00    +0.122 C 
BRANCH  22  25
ATOM     25  C   UNL     1      13.859   0.089   0.836  0.00  0.00    +0.112 C 
BRANCH  25  26
ATOM     26  C   UNL     1      14.687   0.767  -0.257  0.00  0.00    +0.171 C 
BRANCH  26  27
ATOM     27  O   UNL     1      14.599   2.186  -0.111  0.00  0.00    -0.394 OA
ATOM     28  H   UNL     1      15.101   2.681  -0.772  0.00  0.00    +0.209 HD
ENDBRANCH  26  27
ENDBRANCH  25  26
ENDBRANCH  22  25
ENDBRANCH   4  19
BRANCH   3  29
ATOM     29  N   UNL     1       7.291   1.534   0.161  0.00  0.00    -0.353 N 
ATOM     30  H   UNL     1       6.455   2.025   0.172  0.00  0.00    +0.143 HD
ATOM     31  H   UNL     1       8.135   2.013   0.160  0.00  0.00    +0.143 HD
ENDBRANCH   3  29
TORSDOF 6
