REMARK  Name = ZINC38806138
REMARK  14 active torsions:
REMARK  status: ('A' for Active; 'I' for Inactive)
REMARK    1  A    between atoms: C_1  and  C_2
REMARK    2  A    between atoms: C_2  and  C_3
REMARK    3  A    between atoms: C_2  and  C_4
REMARK    4  A    between atoms: C_7  and  O_10
REMARK    5  A    between atoms: O_10  and  C_11
REMARK    6  A    between atoms: C_11  and  C_12
REMARK    7  A    between atoms: N_14  and  C_15
REMARK    8  A    between atoms: C_16  and  C_28
REMARK    9  A    between atoms: C_20  and  C_26
REMARK   10  A    between atoms: C_20  and  C_27
REMARK   11  A    between atoms: C_22  and  C_24
REMARK   12  A    between atoms: C_22  and  C_25
REMARK   13  A    between atoms: C_28  and  O_30
REMARK   14  A    between atoms: O_30  and  C_31
REMARK                            x       y       z     vdW  Elec       q    Type
REMARK                         _______ _______ _______ _____ _____    ______ ____
ROOT
ATOM      1  C   UNL     1      -9.024  -4.377  -1.629  0.00  0.00    +0.086 A 
ATOM      2  C   UNL     1      -9.790  -5.177  -2.470  0.00  0.00    +0.091 A 
ATOM      3  C   UNL     1     -11.153  -5.434  -2.065  0.00  0.00    -0.024 A 
ATOM      4  C   UNL     1     -11.516  -4.849  -0.899  0.00  0.00    -0.016 A 
ATOM      5  S   UNL     1     -10.063  -3.995  -0.366  0.00  0.00    -0.079 S 
ATOM      6  C   UNL     1     -12.858  -4.926  -0.252  0.00  0.00    -0.041 C 
ATOM      7  N   UNL     1     -13.733  -5.902  -0.898  0.00  0.00    +0.389 N 
ATOM      8  C   UNL     1     -13.087  -6.908  -1.730  0.00  0.00    -0.069 C 
ATOM      9  C   UNL     1     -12.183  -6.280  -2.798  0.00  0.00    +0.024 C 
ATOM     10  C   UNL     1     -12.270  -7.884  -0.880  0.00  0.00    -0.010 C 
ATOM     11  C   UNL     1     -14.182  -7.715  -2.454  0.00  0.00    -0.010 C 
ATOM     12  C   UNL     1     -12.689  -5.270   1.235  0.00  0.00    -0.005 C 
ATOM     13  C   UNL     1     -13.518  -3.536  -0.342  0.00  0.00    -0.005 C 
ATOM     14  H   UNL     1     -14.277  -6.379  -0.176  0.00  0.00    -0.084 HD
ATOM     15  H   UNL     1     -14.416  -5.399  -1.468  0.00  0.00    -0.084 HD
ENDROOT
BRANCH   1  18
ATOM     16  C   UNL     1      -7.113  -3.201  -0.875  0.00  0.00    +0.255 C 
ATOM     17  O   UNL     1      -7.734  -2.837   0.101  0.00  0.00    -0.272 OA
ATOM     18  N   UNL     1      -7.705  -3.986  -1.797  0.00  0.00    -0.277 N 
ATOM     19  H   UNL     1      -7.209  -4.277  -2.578  0.00  0.00    +0.155 HD
BRANCH  16  20
ATOM     20  C   UNL     1      -5.679  -2.776  -1.058  0.00  0.00    +0.324 C 
BRANCH  20  21
ATOM     21  O   UNL     1      -5.282  -1.955   0.043  0.00  0.00    -0.483 OA
BRANCH  21  25
ATOM     22  C   UNL     1      -1.412  -0.526   0.013  0.00  0.00    -0.045 A 
ATOM     23  C   UNL     1      -2.258  -0.203   1.057  0.00  0.00    +0.007 A 
ATOM     24  C   UNL     1      -3.555  -0.681   1.070  0.00  0.00    +0.046 A 
ATOM     25  C   UNL     1      -4.007  -1.484   0.033  0.00  0.00    +0.121 A 
ATOM     26  C   UNL     1      -3.156  -1.805  -1.015  0.00  0.00    +0.046 A 
ATOM     27  C   UNL     1      -1.862  -1.321  -1.025  0.00  0.00    +0.007 A 
BRANCH  22  29
ATOM     28  C   UNL     1      -0.019   1.526   0.010  0.00  0.00    +0.012 C 
ATOM     29  C   UNL     1       0.002  -0.004   0.002  0.00  0.00    +0.013 C 
ATOM     30  C   UNL     1       0.742  -0.511   1.242  0.00  0.00    +0.012 C 
ENDBRANCH  22  29
ENDBRANCH  21  25
ENDBRANCH  20  21
ENDBRANCH  16  20
ENDBRANCH   1  18
BRANCH   2  31
ATOM     31  C   UNL     1      -9.230  -5.725  -3.707  0.00  0.00    +0.342 C 
ATOM     32  O   UNL     1      -8.678  -6.809  -3.697  0.00  0.00    -0.245 OA
BRANCH  31  33
ATOM     33  O   UNL     1      -9.325  -5.027  -4.858  0.00  0.00    -0.464 OA
ATOM     34  C   UNL     1      -8.757  -5.622  -6.026  0.00  0.00    +0.280 C 
ENDBRANCH  31  33
ENDBRANCH   2  31
TORSDOF 7
