REMARK  Name = ZINC41511331
REMARK  6 active torsions:
REMARK  status: ('A' for Active; 'I' for Inactive)
REMARK    1  A    between atoms: C_1  and  C_2
REMARK    2  A    between atoms: C_4  and  O_27
REMARK    3  A    between atoms: C_5  and  C_18
REMARK    4  A    between atoms: C_11  and  C_12
REMARK    5  A    between atoms: C_18  and  N_19
REMARK    6  A    between atoms: C_24  and  C_26
REMARK                            x       y       z     vdW  Elec       q    Type
REMARK                         _______ _______ _______ _____ _____    ______ ____
ROOT
ATOM      1  C   UNL     1      -0.018   1.503   0.010  0.00  0.00    +0.045 C 
ATOM      2  C   UNL     1       0.002  -0.004   0.002  0.00  0.00    -0.033 A 
ATOM      3  C   UNL     1       0.006  -0.682  -1.184  0.00  0.00    +0.050 A 
ATOM      4  C   UNL     1       0.025  -2.074  -1.196  0.00  0.00    +0.122 A 
ATOM      5  C   UNL     1       0.040  -2.788  -0.008  0.00  0.00    +0.020 A 
ATOM      6  C   UNL     1       0.037  -2.114   1.205  0.00  0.00    +0.145 A 
ATOM      7  C   UNL     1       0.023  -0.709   1.205  0.00  0.00    +0.071 A 
ATOM      8  C   UNL     1       0.030  -0.301   2.620  0.00  0.00    +0.232 C 
ATOM      9  O   UNL     1       0.018   0.835   3.064  0.00  0.00    -0.283 OA
ATOM     10  C   UNL     1       0.054  -1.516   3.358  0.00  0.00    +0.179 C 
ATOM     11  C   UNL     1       0.068  -1.623   4.718  0.00  0.00    +0.096 C 
ATOM     12  O   UNL     1       0.048  -2.549   2.483  0.00  0.00    -0.451 OA
ENDROOT
BRANCH  11  13
ATOM     13  C   UNL     1       0.091  -2.898   5.326  0.00  0.00    +0.131 A 
ATOM     14  C   UNL     1       0.102  -3.152   6.684  0.00  0.00    +0.049 A 
ATOM     15  C   UNL     1       0.124  -4.547   6.828  0.00  0.00    +0.042 A 
ATOM     16  C   UNL     1       0.127  -5.078   5.585  0.00  0.00    +0.195 A 
ATOM     17  O   UNL     1       0.102  -4.085   4.684  0.00  0.00    -0.463 OA
ENDBRANCH  11  13
BRANCH   4  18
ATOM     18  O   UNL     1       0.028  -2.738  -2.380  0.00  0.00    -0.506 OA
ATOM     19  H   UNL     1       0.912  -2.918  -2.728  0.00  0.00    +0.292 HD
ENDBRANCH   4  18
BRANCH   5  20
ATOM     20  C   UNL     1       0.059  -4.295  -0.034  0.00  0.00    -0.035 C 
BRANCH  20  21
ATOM     21  N   UNL     1       1.450  -4.767  -0.049  0.00  0.00    +0.384 N 
ATOM     22  C   UNL     1       2.096  -4.340  -1.296  0.00  0.00    -0.078 C 
ATOM     23  C   UNL     1       3.568  -4.759  -1.282  0.00  0.00    -0.019 C 
ATOM     24  C   UNL     1       3.659  -6.282  -1.153  0.00  0.00    -0.003 C 
ATOM     25  C   UNL     1       2.918  -6.723   0.113  0.00  0.00    -0.016 C 
ATOM     26  C   UNL     1       1.470  -6.231   0.046  0.00  0.00    -0.071 C 
ATOM     27  C   UNL     1       0.725  -6.669   1.309  0.00  0.00    -0.013 C 
ATOM     28  H   UNL     1       1.947  -4.373   0.736  0.00  0.00    -0.081 HD
ENDBRANCH  20  21
ENDBRANCH   5  20
TORSDOF 4
