REMARK  Name = ZINC35465230
REMARK  8 active torsions:
REMARK  status: ('A' for Active; 'I' for Inactive)
REMARK    1  A    between atoms: C_1  and  C_2
REMARK    2  A    between atoms: C_4  and  C_27
REMARK    3  A    between atoms: C_6  and  C_19
REMARK    4  A    between atoms: C_9  and  C_11
REMARK    5  A    between atoms: C_14  and  O_18
REMARK    6  A    between atoms: C_15  and  O_17
REMARK    7  A    between atoms: C_22  and  O_26
REMARK    8  A    between atoms: C_23  and  O_25
REMARK                            x       y       z     vdW  Elec       q    Type
REMARK                         _______ _______ _______ _____ _____    ______ ____
ROOT
ATOM      1  C   UNL     1      -0.019   1.526   0.010  0.00  0.00    +0.011 C 
ATOM      2  C   UNL     1       0.002  -0.004   0.002  0.00  0.00    +0.025 C 
ATOM      3  C   UNL     1      -1.436  -0.565   0.061  0.00  0.00    +0.025 C 
ATOM      4  C   UNL     1      -1.469  -1.377   1.375  0.00  0.00    +0.152 C 
ATOM      5  O   UNL     1      -0.428  -0.799   2.192  0.00  0.00    -0.364 OA
ATOM      6  C   UNL     1       0.672  -0.543   1.286  0.00  0.00    +0.152 C 
ATOM      7  C   UNL     1      -2.455   0.575   0.107  0.00  0.00    +0.011 C 
ENDROOT
BRANCH   6   8
ATOM      8  C   UNL     1       1.603   0.490   1.865  0.00  0.00    -0.015 A 
ATOM      9  C   UNL     1       1.111   1.466   2.710  0.00  0.00    +0.010 A 
ATOM     10  C   UNL     1       1.961   2.416   3.244  0.00  0.00    +0.049 A 
ATOM     11  C   UNL     1       3.311   2.390   2.933  0.00  0.00    +0.158 A 
ATOM     12  C   UNL     1       3.808   1.407   2.083  0.00  0.00    +0.159 A 
ATOM     13  C   UNL     1       2.950   0.455   1.554  0.00  0.00    +0.055 A 
BRANCH  12  14
ATOM     14  O   UNL     1       5.132   1.377   1.774  0.00  0.00    -0.503 OA
ATOM     15  H   UNL     1       5.665   0.844   2.380  0.00  0.00    +0.292 HD
ENDBRANCH  12  14
BRANCH  11  16
ATOM     16  O   UNL     1       4.150   3.324   3.457  0.00  0.00    -0.503 OA
ATOM     17  H   UNL     1       4.542   3.070   4.303  0.00  0.00    +0.292 HD
ENDBRANCH  11  16
ENDBRANCH   6   8
BRANCH   4  18
ATOM     18  C   UNL     1      -2.809  -1.232   2.048  0.00  0.00    -0.015 A 
ATOM     19  C   UNL     1      -3.090  -0.099   2.788  0.00  0.00    +0.010 A 
ATOM     20  C   UNL     1      -4.319   0.039   3.408  0.00  0.00    +0.049 A 
ATOM     21  C   UNL     1      -5.271  -0.960   3.287  0.00  0.00    +0.158 A 
ATOM     22  C   UNL     1      -4.989  -2.101   2.541  0.00  0.00    +0.159 A 
ATOM     23  C   UNL     1      -3.757  -2.230   1.919  0.00  0.00    +0.055 A 
BRANCH  22  24
ATOM     24  O   UNL     1      -5.920  -3.084   2.420  0.00  0.00    -0.503 OA
ATOM     25  H   UNL     1      -6.511  -2.975   1.662  0.00  0.00    +0.292 HD
ENDBRANCH  22  24
BRANCH  21  26
ATOM     26  O   UNL     1      -6.480  -0.827   3.896  0.00  0.00    -0.503 OA
ATOM     27  H   UNL     1      -7.150  -0.395   3.349  0.00  0.00    +0.292 HD
ENDBRANCH  21  26
ENDBRANCH   4  18
TORSDOF 6
