REMARK  Name = ZINC04475647
REMARK  6 active torsions:
REMARK  status: ('A' for Active; 'I' for Inactive)
REMARK    1  A    between atoms: C_1  and  C_2
REMARK    2  A    between atoms: C_5  and  C_8
REMARK    3  A    between atoms: N_13  and  N_14
REMARK    4  A    between atoms: C_15  and  C_16
REMARK    5  A    between atoms: C_15  and  C_17
REMARK    6  A    between atoms: C_22  and  O_23
REMARK                            x       y       z     vdW  Elec       q    Type
REMARK                         _______ _______ _______ _____ _____    ______ ____
ROOT
ATOM      1  C   UNL     1      -0.058  -4.268  -0.027  0.00  0.00    +0.055 A 
ATOM      2  C   UNL     1      -0.261  -4.940  -1.180  0.00  0.00    +0.075 A 
ATOM      3  S   UNL     1      -0.262  -6.638  -0.627  0.00  0.00    -0.056 S 
ATOM      4  C   UNL     1       0.009  -6.332   1.112  0.00  0.00    +0.192 A 
ATOM      5  N   UNL     1       0.087  -4.960   1.143  0.00  0.00    -0.332 N 
ATOM      6  N   UNL     1       0.113  -7.198   2.108  0.00  0.00    -0.124 NA
ATOM      7  H   UNL     1       0.238  -4.492   1.979  0.00  0.00    +0.168 HD
ENDROOT
BRANCH   1  12
ATOM      8  C   UNL     1       0.220   1.481  -0.040  0.00  0.00    +0.044 C 
ATOM      9  C   UNL     1       0.147  -0.025  -0.036  0.00  0.00    -0.050 A 
ATOM     10  C   UNL     1      -0.066  -0.707  -1.221  0.00  0.00    +0.004 A 
ATOM     11  C   UNL     1      -0.133  -2.084  -1.225  0.00  0.00    +0.010 A 
ATOM     12  C   UNL     1       0.014  -2.791  -0.030  0.00  0.00    -0.001 A 
ATOM     13  C   UNL     1       0.229  -2.097   1.161  0.00  0.00    +0.010 A 
ATOM     14  C   UNL     1       0.300  -0.719   1.151  0.00  0.00    +0.004 A 
ENDBRANCH   1  12
BRANCH   6  15
ATOM     15  N   UNL     1       0.017  -8.463   1.875  0.00  0.00    -0.151 NA
ATOM     16  C   UNL     1       0.119  -9.319   2.858  0.00  0.00    +0.071 C 
ATOM     17  C   UNL     1       0.128 -10.798   2.571  0.00  0.00    +0.068 C 
BRANCH  16  18
ATOM     18  C   UNL     1       0.226  -8.837   4.243  0.00  0.00    +0.039 A 
ATOM     19  C   UNL     1      -0.843  -8.158   4.836  0.00  0.00    +0.013 A 
ATOM     20  C   UNL     1      -0.736  -7.709   6.135  0.00  0.00    +0.001 A 
ATOM     21  C   UNL     1       0.426  -7.928   6.856  0.00  0.00    +0.004 A 
ATOM     22  C   UNL     1       1.491  -8.598   6.281  0.00  0.00    +0.046 A 
ATOM     23  C   UNL     1       1.399  -9.062   4.980  0.00  0.00    +0.126 A 
BRANCH  23  24
ATOM     24  O   UNL     1       2.442  -9.725   4.416  0.00  0.00    -0.506 OA
ATOM     25  H   UNL     1       3.114  -9.146   4.031  0.00  0.00    +0.292 HD
ENDBRANCH  23  24
ENDBRANCH  16  18
ENDBRANCH   6  15
TORSDOF 4
