REMARK  Name = ZINC04308665
REMARK  9 active torsions:
REMARK  status: ('A' for Active; 'I' for Inactive)
REMARK    1  A    between atoms: C_1  and  C_2
REMARK    2  A    between atoms: C_4  and  C_31
REMARK    3  A    between atoms: C_5  and  N_9
REMARK    4  A    between atoms: C_6  and  C_8
REMARK    5  A    between atoms: C_10  and  C_12
REMARK    6  A    between atoms: C_12  and  N_13
REMARK    7  A    between atoms: C_14  and  C_16
REMARK    8  A    between atoms: C_16  and  N_17
REMARK    9  A    between atoms: C_25  and  C_27
REMARK                            x       y       z     vdW  Elec       q    Type
REMARK                         _______ _______ _______ _____ _____    ______ ____
ROOT
ATOM      1  N   UNL     1      -5.999   2.898  -1.138  0.00  0.00    -0.305 N 
ATOM      2  C   UNL     1      -7.260   3.314  -1.369  0.00  0.00    +0.231 C 
ATOM      3  O   UNL     1      -7.562   4.472  -1.175  0.00  0.00    -0.274 OA
ATOM      4  H   UNL     1      -5.758   1.972  -1.293  0.00  0.00    +0.149 HD
ENDROOT
BRANCH   1   5
ATOM      5  C   UNL     1      -4.993   3.846  -0.653  0.00  0.00    +0.200 C 
BRANCH   5   7
ATOM      6  N   UNL     1      -2.598   3.812  -0.036  0.00  0.00    -0.284 N 
ATOM      7  C   UNL     1      -3.676   3.135  -0.477  0.00  0.00    +0.234 C 
ATOM      8  O   UNL     1      -3.587   1.952  -0.732  0.00  0.00    -0.274 OA
ATOM      9  H   UNL     1      -2.685   4.739   0.234  0.00  0.00    +0.155 HD
BRANCH   6  14
ATOM     10  C   UNL     1       2.452   1.240   0.236  0.00  0.00    +0.044 C 
ATOM     11  C   UNL     1       1.110   1.923   0.163  0.00  0.00    -0.050 A 
ATOM     12  C   UNL     1       0.499   2.114  -1.062  0.00  0.00    +0.008 A 
ATOM     13  C   UNL     1      -0.728   2.745  -1.132  0.00  0.00    -0.029 A 
ATOM     14  C   UNL     1      -1.352   3.178   0.031  0.00  0.00    +0.039 A 
ATOM     15  C   UNL     1      -0.735   2.984   1.260  0.00  0.00    -0.029 A 
ATOM     16  C   UNL     1       0.494   2.357   1.323  0.00  0.00    +0.008 A 
ATOM     17  C   UNL     1      -1.406   3.457   2.523  0.00  0.00    +0.045 C 
ATOM     18  C   UNL     1      -1.391   2.959  -2.468  0.00  0.00    +0.045 C 
ENDBRANCH   6  14
ENDBRANCH   5   7
ENDBRANCH   1   5
BRANCH   2  19
ATOM     19  C   UNL     1      -8.295   2.339  -1.868  0.00  0.00    +0.213 C 
BRANCH  19  20
ATOM     20  N   UNL     1      -9.575   3.031  -2.039  0.00  0.00    -0.215 N 
ATOM     21  C   UNL     1     -10.514   3.136  -1.077  0.00  0.00    +0.247 C 
ATOM     22  O   UNL     1     -10.462   2.695   0.051  0.00  0.00    -0.273 OA
ATOM     23  C   UNL     1     -11.644   3.924  -1.700  0.00  0.00    +0.115 C 
ATOM     24  C   UNL     1     -11.868   5.230  -0.946  0.00  0.00    +0.035 C 
ATOM     25  C   UNL     1     -12.319   4.926   0.485  0.00  0.00    +0.003 C 
ATOM     26  C   UNL     1     -13.613   4.110   0.449  0.00  0.00    +0.000 C 
ATOM     27  C   UNL     1     -13.366   2.793  -0.289  0.00  0.00    +0.006 C 
ATOM     28  C   UNL     1     -12.920   3.088  -1.723  0.00  0.00    +0.018 C 
ATOM     29  C   UNL     1     -12.653   1.772  -2.456  0.00  0.00    +0.010 C 
ATOM     30  N   UNL     1     -11.180   4.192  -3.067  0.00  0.00    -0.285 N 
ATOM     31  C   UNL     1      -9.960   3.631  -3.172  0.00  0.00    +0.310 C 
ATOM     32  O   UNL     1      -9.285   3.667  -4.182  0.00  0.00    -0.252 OA
ATOM     33  H   UNL     1     -11.658   4.678  -3.757  0.00  0.00    +0.151 HD
ENDBRANCH  19  20
ENDBRANCH   2  19
TORSDOF 5
