REMARK  Name = ZINC24992336
REMARK  8 active torsions:
REMARK  status: ('A' for Active; 'I' for Inactive)
REMARK    1  A    between atoms: C_1  and  C_2
REMARK    2  A    between atoms: C_2  and  N_3
REMARK    3  A    between atoms: C_7  and  S_29
REMARK    4  A    between atoms: C_11  and  C_12
REMARK    5  A    between atoms: C_12  and  N_13
REMARK    6  A    between atoms: S_29  and  N_32
REMARK    7  A    between atoms: N_32  and  C_33
REMARK    8  A    between atoms: N_32  and  C_34
REMARK                            x       y       z     vdW  Elec       q    Type
REMARK                         _______ _______ _______ _____ _____    ______ ____
ROOT
ATOM      1  C   UNL     1      -2.994   3.139  -0.147  0.00  0.00    +0.192 C 
ENDROOT
BRANCH   1   2
ATOM      2  N   UNL     1      -3.068   4.260   0.794  0.00  0.00    -0.217 N 
ATOM      3  C   UNL     1      -2.017   4.730   1.497  0.00  0.00    +0.252 C 
ATOM      4  O   UNL     1      -0.875   4.322   1.472  0.00  0.00    -0.272 OA
ATOM      5  C   UNL     1      -2.562   5.873   2.323  0.00  0.00    +0.144 C 
ATOM      6  C   UNL     1      -2.398   5.579   3.811  0.00  0.00    +0.081 C 
ATOM      7  C   UNL     1      -2.712   6.861   4.594  0.00  0.00    +0.232 C 
ATOM      8  O   UNL     1      -1.745   7.852   4.244  0.00  0.00    -0.492 OA
ATOM      9  C   UNL     1      -1.507   8.076   2.926  0.00  0.00    +0.126 A 
ATOM     10  C   UNL     1      -1.875   7.158   1.955  0.00  0.00    +0.027 A 
ATOM     11  C   UNL     1      -1.610   7.423   0.622  0.00  0.00    +0.010 A 
ATOM     12  C   UNL     1      -0.982   8.598   0.256  0.00  0.00    +0.001 A 
ATOM     13  C   UNL     1      -0.616   9.517   1.222  0.00  0.00    +0.004 A 
ATOM     14  C   UNL     1      -0.877   9.258   2.553  0.00  0.00    +0.046 A 
ATOM     15  N   UNL     1      -3.984   5.927   1.962  0.00  0.00    -0.281 N 
ATOM     16  C   UNL     1      -4.185   4.949   1.058  0.00  0.00    +0.310 C 
ATOM     17  O   UNL     1      -5.261   4.715   0.543  0.00  0.00    -0.252 OA
ATOM     18  H   UNL     1      -4.641   6.679   2.424  0.00  0.00    +0.152 HD
ENDBRANCH   1   2
BRANCH   1  27
ATOM     19  N   UNL     1      -2.542   0.977   1.114  0.00  0.00    -0.326 N 
ATOM     20  C   UNL     1      -3.301  -0.041   1.655  0.00  0.00    +0.069 A 
ATOM     21  C   UNL     1      -3.002  -1.207   2.347  0.00  0.00    +0.030 A 
ATOM     22  C   UNL     1      -4.022  -2.035   2.763  0.00  0.00    +0.030 A 
ATOM     23  C   UNL     1      -5.345  -1.711   2.495  0.00  0.00    +0.108 A 
ATOM     24  C   UNL     1      -5.658  -0.567   1.817  0.00  0.00    +0.058 A 
ATOM     25  C   UNL     1      -4.640   0.287   1.384  0.00  0.00    +0.091 A 
ATOM     26  N   UNL     1      -4.629   1.463   0.706  0.00  0.00    -0.231 NA
ATOM     27  C   UNL     1      -3.402   1.869   0.553  0.00  0.00    +0.129 A 
BRANCH  23  28
ATOM     28  S   UNL     1      -6.633  -2.784   3.037  0.00  0.00    +0.060 S 
ATOM     29  O   UNL     1      -7.748  -2.539   2.191  0.00  0.00    -0.153 OA
ATOM     30  O   UNL     1      -6.054  -4.074   3.180  0.00  0.00    -0.153 OA
BRANCH  28  31
ATOM     31  N   UNL     1      -7.074  -2.292   4.556  0.00  0.00    -0.183 NA
ATOM     32  C   UNL     1      -8.132  -1.292   4.723  0.00  0.00    +0.131 C 
ATOM     33  C   UNL     1      -6.406  -2.856   5.731  0.00  0.00    +0.131 C 
ENDBRANCH  28  31
ENDBRANCH  23  28
BRANCH  19  35
ATOM     34  C   UNL     1      -0.489   0.286  -0.021  0.00  0.00    +0.027 C 
ATOM     35  C   UNL     1      -1.081   1.081   1.144  0.00  0.00    +0.120 C 
ENDBRANCH  19  35
ENDBRANCH   1  27
TORSDOF 5
