REMARK  Name = ZINC34747951
REMARK  6 active torsions:
REMARK  status: ('A' for Active; 'I' for Inactive)
REMARK    1  A    between atoms: C_4  and  C_7
REMARK    2  A    between atoms: C_7  and  C_8
REMARK    3  A    between atoms: C_8  and  N_9
REMARK    4  A    between atoms: N_27  and  C_28
REMARK    5  A    between atoms: C_28  and  C_29
REMARK    6  A    between atoms: N_31  and  C_32
REMARK                            x       y       z     vdW  Elec       q    Type
REMARK                         _______ _______ _______ _____ _____    ______ ____
ROOT
ATOM      1  N   UNL     1       6.051  -2.181   0.129  0.00  0.00    +0.382 N 
ATOM      2  C   UNL     1       7.207  -3.056  -0.106  0.00  0.00    -0.060 C 
ATOM      3  C   UNL     1       7.845  -3.430   1.236  0.00  0.00    +0.089 C 
ATOM      4  N   UNL     1       8.159  -2.191   1.965  0.00  0.00    -0.304 N 
ATOM      5  C   UNL     1       7.098  -1.181   2.105  0.00  0.00    +0.089 C 
ATOM      6  C   UNL     1       6.496  -0.913   0.722  0.00  0.00    -0.060 C 
ATOM      7  C   UNL     1       9.406  -1.982   2.498  0.00  0.00    +0.202 A 
ATOM      8  N   UNL     1      10.336  -1.404   1.767  0.00  0.00    -0.208 NA
ATOM      9  C   UNL     1      11.552  -1.190   2.260  0.00  0.00    +0.117 A 
ATOM     10  C   UNL     1      11.903  -1.564   3.564  0.00  0.00    +0.076 A 
ATOM     11  C   UNL     1      13.286  -1.265   3.972  0.00  0.00    -0.023 A 
ATOM     12  C   UNL     1      14.070  -0.665   3.063  0.00  0.00    -0.004 A 
ATOM     13  S   UNL     1      13.041  -0.465   1.627  0.00  0.00    -0.073 S 
ATOM     14  C   UNL     1      15.455  -0.403   3.591  0.00  0.00    +0.043 C 
ATOM     15  C   UNL     1      15.317  -0.537   5.123  0.00  0.00    +0.010 C 
ATOM     16  C   UNL     1      14.105  -1.481   5.247  0.00  0.00    +0.037 C 
ATOM     17  C   UNL     1      10.874  -2.190   4.336  0.00  0.00    +0.264 A 
ATOM     18  O   UNL     1      11.090  -2.548   5.481  0.00  0.00    -0.267 OA
ATOM     19  N   UNL     1       9.662  -2.373   3.780  0.00  0.00    -0.271 N 
ATOM     20  H   UNL     1       5.409  -2.639   0.758  0.00  0.00    -0.082 HD
ENDROOT
BRANCH   1  21
ATOM     21  C   UNL     1       5.376  -1.912  -1.147  0.00  0.00    -0.074 C 
BRANCH  21  22
ATOM     22  C   UNL     1       4.803  -3.216  -1.706  0.00  0.00    +0.016 C 
BRANCH  22  26
ATOM     23  C   UNL     1       2.838  -2.437  -5.418  0.00  0.00    +0.000 A 
ATOM     24  C   UNL     1       4.181  -2.761  -5.402  0.00  0.00    +0.000 A 
ATOM     25  C   UNL     1       4.817  -3.014  -4.201  0.00  0.00    +0.003 A 
ATOM     26  C   UNL     1       4.110  -2.941  -3.016  0.00  0.00    -0.049 A 
ATOM     27  C   UNL     1       2.767  -2.615  -3.031  0.00  0.00    +0.003 A 
ATOM     28  C   UNL     1       2.130  -2.364  -4.233  0.00  0.00    +0.000 A 
ENDBRANCH  22  26
ENDBRANCH  21  22
ENDBRANCH   1  21
BRANCH  19  29
ATOM     29  C   UNL     1       8.600  -3.008   4.563  0.00  0.00    +0.223 C 
BRANCH  29  30
ATOM     30  C   UNL     1       8.706  -4.506   4.433  0.00  0.00    +0.233 C 
ATOM     31  O   UNL     1       9.583  -4.994   3.752  0.00  0.00    -0.274 OA
ATOM     32  N   UNL     1       7.827  -5.302   5.072  0.00  0.00    -0.311 N 
ATOM     33  H   UNL     1       7.126  -4.911   5.617  0.00  0.00    +0.149 HD
BRANCH  32  34
ATOM     34  C   UNL     1       7.931  -6.758   4.946  0.00  0.00    +0.073 C 
ATOM     35  C   UNL     1       7.199  -7.213   3.681  0.00  0.00    +0.022 C 
ATOM     36  C   UNL     1       7.307  -8.733   3.549  0.00  0.00    +0.002 C 
ATOM     37  C   UNL     1       6.673  -9.398   4.772  0.00  0.00    +0.000 C 
ATOM     38  C   UNL     1       7.404  -8.943   6.037  0.00  0.00    +0.002 C 
ATOM     39  C   UNL     1       7.296  -7.423   6.169  0.00  0.00    +0.022 C 
ENDBRANCH  32  34
ENDBRANCH  29  30
ENDBRANCH  19  29
TORSDOF 6
