REMARK  Name = ZINC05375276
REMARK  7 active torsions:
REMARK  status: ('A' for Active; 'I' for Inactive)
REMARK    1  A    between atoms: C_1  and  O_2
REMARK    2  A    between atoms: O_2  and  C_3
REMARK    3  A    between atoms: C_8  and  O_9
REMARK    4  A    between atoms: O_9  and  C_10
REMARK    5  A    between atoms: C_14  and  N_16
REMARK    6  A    between atoms: N_16  and  C_17
REMARK    7  A    between atoms: C_22  and  O_23
REMARK                            x       y       z     vdW  Elec       q    Type
REMARK                         _______ _______ _______ _____ _____    ______ ____
ROOT
ATOM      1  C   UNL     1       1.141  -1.200   6.647  0.00  0.00    +0.162 A 
ATOM      2  C   UNL     1       1.762  -1.663   5.499  0.00  0.00    +0.050 A 
ATOM      3  C   UNL     1       2.073  -0.786   4.471  0.00  0.00    +0.013 A 
ATOM      4  C   UNL     1       1.767   0.548   4.585  0.00  0.00    +0.029 A 
ATOM      5  C   UNL     1       1.140   1.035   5.738  0.00  0.00    +0.112 A 
ATOM      6  C   UNL     1       0.825   0.149   6.776  0.00  0.00    +0.176 A 
ATOM      7  C   UNL     1       0.942   2.483   5.573  0.00  0.00    +0.345 C 
ATOM      8  O   UNL     1       0.423   3.212   6.395  0.00  0.00    -0.245 OA
ATOM      9  O   UNL     1       1.419   2.885   4.383  0.00  0.00    -0.435 OA
ATOM     10  C   UNL     1       1.963   1.736   3.677  0.00  0.00    +0.296 C 
ENDROOT
BRANCH   1  12
ATOM     11  C   UNL     1       1.192  -3.437   7.453  0.00  0.00    +0.277 C 
ATOM     12  O   UNL     1       0.840  -2.067   7.651  0.00  0.00    -0.491 OA
ENDBRANCH   1  12
BRANCH   6  13
ATOM     13  O   UNL     1       0.216   0.603   7.900  0.00  0.00    -0.491 OA
ATOM     14  C   UNL     1       1.063   1.036   8.967  0.00  0.00    +0.277 C 
ENDBRANCH   6  13
BRANCH  10  15
ATOM     15  N   UNL     1       1.243   1.532   2.418  0.00  0.00    -0.303 N 
ATOM     16  H   UNL     1       0.405   1.044   2.413  0.00  0.00    +0.150 HD
BRANCH  15  17
ATOM     17  C   UNL     1       1.765   2.040   1.223  0.00  0.00    +0.073 A 
ATOM     18  C   UNL     1       2.898   2.840   1.243  0.00  0.00    +0.046 A 
ATOM     19  C   UNL     1       3.408   3.346   0.061  0.00  0.00    +0.043 A 
ATOM     20  C   UNL     1       2.793   3.051  -1.143  0.00  0.00    +0.023 A 
ATOM     21  C   UNL     1       1.667   2.250  -1.170  0.00  0.00    +0.049 A 
ATOM     22  C   UNL     1       1.151   1.739   0.009  0.00  0.00    +0.138 A 
ATOM     23 CL   UNL     1       4.821   4.354   0.089  0.00  0.00    -0.083 Cl
BRANCH  22  24
ATOM     24  O   UNL     1       0.042   0.951  -0.017  0.00  0.00    -0.505 OA
ATOM     25  H   UNL     1       0.233   0.008  -0.110  0.00  0.00    +0.292 HD
ENDBRANCH  22  24
ENDBRANCH  15  17
ENDBRANCH  10  15
TORSDOF 5
