REMARK  Name = ZINC35423399
REMARK  7 active torsions:
REMARK  status: ('A' for Active; 'I' for Inactive)
REMARK    1  A    between atoms: C_1  and  C_2
REMARK    2  A    between atoms: N_8  and  C_9
REMARK    3  A    between atoms: C_9  and  C_10
REMARK    4  A    between atoms: C_10  and  N_11
REMARK    5  A    between atoms: C_12  and  C_14
REMARK    6  A    between atoms: C_17  and  C_19
REMARK    7  A    between atoms: C_19  and  N_20
REMARK                            x       y       z     vdW  Elec       q    Type
REMARK                         _______ _______ _______ _____ _____    ______ ____
ROOT
ATOM      1  C   UNL     1       0.134   0.494   7.250  0.00  0.00    +0.189 A 
ATOM      2  C   UNL     1       0.577   0.341   8.533  0.00  0.00    +0.055 A 
ATOM      3  C   UNL     1      -0.336   1.016   9.358  0.00  0.00    +0.047 A 
ATOM      4  C   UNL     1      -1.284   1.544   8.553  0.00  0.00    +0.126 A 
ATOM      5  O   UNL     1      -0.995   1.232   7.283  0.00  0.00    -0.453 OA
ENDROOT
BRANCH   1   7
ATOM      6  N   UNL     1       0.236   0.185   4.834  0.00  0.00    -0.311 N 
ATOM      7  C   UNL     1       0.777  -0.045   6.046  0.00  0.00    +0.279 C 
ATOM      8  O   UNL     1       1.798  -0.699   6.143  0.00  0.00    -0.267 OA
ATOM      9  H   UNL     1      -0.578   0.707   4.757  0.00  0.00    +0.149 HD
BRANCH   6  10
ATOM     10  C   UNL     1       0.877  -0.353   3.631  0.00  0.00    +0.086 C 
BRANCH  10  11
ATOM     11  C   UNL     1       0.067   0.050   2.397  0.00  0.00    -0.059 C 
BRANCH  11  18
ATOM     12  C   UNL     1      -0.019   1.526   0.010  0.00  0.00    -0.013 C 
ATOM     13  C   UNL     1       0.002  -0.004   0.002  0.00  0.00    -0.072 C 
ATOM     14  C   UNL     1       0.717  -0.497  -1.258  0.00  0.00    -0.016 C 
ATOM     15  C   UNL     1       0.735  -2.028  -1.262  0.00  0.00    -0.003 C 
ATOM     16  C   UNL     1       1.410  -2.524   0.020  0.00  0.00    -0.019 C 
ATOM     17  C   UNL     1       0.669  -1.956   1.232  0.00  0.00    -0.078 C 
ATOM     18  N   UNL     1       0.711  -0.490   1.192  0.00  0.00    +0.382 N 
ATOM     19  H   UNL     1       1.671  -0.182   1.159  0.00  0.00    -0.081 HD
ENDBRANCH  11  18
ENDBRANCH  10  11
ENDBRANCH   6  10
ENDBRANCH   1   7
BRANCH   4  20
ATOM     20  C   UNL     1      -2.469   2.356   9.009  0.00  0.00    +0.201 C 
BRANCH  20  21
ATOM     21  N   UNL     1      -2.108   3.775   9.037  0.00  0.00    -0.283 N 
ATOM     22  C   UNL     1      -1.571   4.326  10.195  0.00  0.00    +0.161 A 
ATOM     23  C   UNL     1      -1.220   5.677  10.239  0.00  0.00    +0.090 A 
ATOM     24  C   UNL     1      -0.685   6.205  11.406  0.00  0.00    +0.031 A 
ATOM     25  C   UNL     1      -0.517   5.361  12.495  0.00  0.00    +0.022 A 
ATOM     26  C   UNL     1      -0.885   4.034  12.383  0.00  0.00    +0.113 A 
ATOM     27  N   UNL     1      -1.391   3.559  11.262  0.00  0.00    -0.236 NA
ATOM     28  N   UNL     1      -1.405   6.495   9.120  0.00  0.00    -0.309 N 
ATOM     29  C   UNL     1      -1.156   7.809   8.899  0.00  0.00    +0.092 A 
ATOM     30  C   UNL     1      -1.520   8.119   7.631  0.00  0.00    +0.020 A 
ATOM     31  C   UNL     1      -2.015   6.958   7.030  0.00  0.00    +0.033 A 
ATOM     32  C   UNL     1      -1.938   5.953   7.969  0.00  0.00    +0.112 A 
ATOM     33  C   UNL     1      -2.294   4.533   7.939  0.00  0.00    +0.277 A 
ATOM     34  O   UNL     1      -2.761   4.041   6.928  0.00  0.00    -0.265 OA
ENDBRANCH  20  21
ENDBRANCH   4  20
TORSDOF 6
