REMARK  Name = ZINC21049162
REMARK  10 active torsions:
REMARK  status: ('A' for Active; 'I' for Inactive)
REMARK    1  A    between atoms: C_1  and  C_2
REMARK    2  A    between atoms: C_6  and  N_8
REMARK    3  A    between atoms: N_11  and  C_16
REMARK    4  A    between atoms: C_13  and  C_15
REMARK    5  A    between atoms: C_16  and  C_17
REMARK    6  A    between atoms: C_17  and  C_18
REMARK    7  A    between atoms: C_18  and  N_19
REMARK    8  A    between atoms: C_22  and  C_29
REMARK    9  A    between atoms: C_32  and  O_35
REMARK   10  A    between atoms: O_35  and  C_36
REMARK                            x       y       z     vdW  Elec       q    Type
REMARK                         _______ _______ _______ _____ _____    ______ ____
ROOT
ATOM      1  N   UNL     1       7.673   7.713  -1.333  0.00  0.00    -0.329 N 
ATOM      2  C   UNL     1       8.788   8.507  -1.533  0.00  0.00    +0.131 A 
ATOM      3  C   UNL     1       8.945   9.233  -2.744  0.00  0.00    +0.055 A 
ATOM      4  C   UNL     1       8.071   9.299  -3.910  0.00  0.00    +0.002 A 
ATOM      5  C   UNL     1       8.440  10.071  -4.958  0.00  0.00    +0.056 A 
ATOM      6  S   UNL     1       9.998  10.764  -4.436  0.00  0.00    -0.076 S 
ATOM      7  C   UNL     1      10.119  10.008  -2.837  0.00  0.00    +0.114 A 
ATOM      8  N   UNL     1      10.999  10.043  -1.855  0.00  0.00    -0.228 NA
ATOM      9  C   UNL     1      10.798   9.346  -0.754  0.00  0.00    +0.224 A 
ATOM     10  N   UNL     1       9.718   8.602  -0.597  0.00  0.00    -0.220 NA
ATOM     11  H   UNL     1       6.952   7.560  -2.150  0.00  0.00    +0.147 HD
ENDROOT
BRANCH   4  12
ATOM     12  C   UNL     1       6.803   8.532  -3.947  0.00  0.00    -0.016 A 
ATOM     13  C   UNL     1       6.588   7.584  -4.947  0.00  0.00    +0.012 A 
ATOM     14  C   UNL     1       5.409   6.869  -4.975  0.00  0.00    +0.046 A 
ATOM     15  C   UNL     1       4.432   7.100  -4.017  0.00  0.00    +0.120 A 
ATOM     16  C   UNL     1       4.640   8.047  -3.023  0.00  0.00    +0.046 A 
ATOM     17  C   UNL     1       5.819   8.762  -2.986  0.00  0.00    +0.012 A 
BRANCH  15  18
ATOM     18  O   UNL     1       3.268   6.398  -4.051  0.00  0.00    -0.495 OA
ATOM     19  C   UNL     1       3.120   5.440  -5.100  0.00  0.00    +0.277 C 
ENDBRANCH  15  18
ENDBRANCH   4  12
BRANCH   1  20
ATOM     20  C   UNL     1       7.451   7.075  -0.033  0.00  0.00    +0.101 C 
BRANCH  20  21
ATOM     21  C   UNL     1       6.158   6.259  -0.079  0.00  0.00    +0.000 C 
BRANCH  21  22
ATOM     22  C   UNL     1       5.926   5.593   1.279  0.00  0.00    -0.077 C 
BRANCH  22  26
ATOM     23  N   UNL     1       2.291   3.832   0.044  0.00  0.00    -0.331 N 
ATOM     24  C   UNL     1       2.239   4.841   1.111  0.00  0.00    +0.087 C 
ATOM     25  C   UNL     1       3.515   5.686   1.072  0.00  0.00    -0.060 C 
ATOM     26  N   UNL     1       4.684   4.810   1.235  0.00  0.00    +0.382 N 
ATOM     27  C   UNL     1       4.736   3.800   0.169  0.00  0.00    -0.056 C 
ATOM     28  C   UNL     1       3.459   2.956   0.207  0.00  0.00    +0.054 C 
ATOM     29  C   UNL     1       3.491   1.930  -0.927  0.00  0.00    +0.026 C 
ATOM     30  H   UNL     1       4.583   4.285   2.196  0.00  0.00    -0.082 HD
BRANCH  23  36
ATOM     31  C   UNL     1      -1.791   2.506  -2.350  0.00  0.00    +0.044 C 
ATOM     32  C   UNL     1      -0.889   2.425  -1.146  0.00  0.00    -0.049 A 
ATOM     33  C   UNL     1      -1.228   1.609  -0.082  0.00  0.00    +0.003 A 
ATOM     34  C   UNL     1      -0.406   1.536   1.027  0.00  0.00    +0.002 A 
ATOM     35  C   UNL     1       0.763   2.271   1.071  0.00  0.00    +0.023 A 
ATOM     36  C   UNL     1       1.109   3.087   0.002  0.00  0.00    +0.030 A 
ATOM     37  C   UNL     1       0.278   3.162  -1.108  0.00  0.00    +0.026 A 
ENDBRANCH  23  36
ENDBRANCH  22  26
ENDBRANCH  21  22
ENDBRANCH  20  21
ENDBRANCH   1  20
TORSDOF 7
