REMARK  Name = ZINC35026854
REMARK  10 active torsions:
REMARK  status: ('A' for Active; 'I' for Inactive)
REMARK    1  A    between atoms: C_1  and  C_2
REMARK    2  A    between atoms: C_6  and  N_8
REMARK    3  A    between atoms: N_11  and  C_12
REMARK    4  A    between atoms: N_11  and  C_16
REMARK    5  A    between atoms: C_12  and  C_13
REMARK    6  A    between atoms: C_13  and  C_14
REMARK    7  A    between atoms: C_13  and  C_15
REMARK    8  A    between atoms: C_16  and  C_18
REMARK    9  A    between atoms: C_16  and  C_19
REMARK   10  A    between atoms: N_29  and  C_30
REMARK                            x       y       z     vdW  Elec       q    Type
REMARK                         _______ _______ _______ _____ _____    ______ ____
ROOT
ATOM      1  N   UNL     1       0.686  -2.648   1.710  0.00  0.00    -0.269 N 
ATOM      2  C   UNL     1       0.368  -3.938   1.938  0.00  0.00    +0.307 C 
ATOM      3  O   UNL     1       0.309  -4.723   1.012  0.00  0.00    -0.252 OA
ATOM      4  N   UNL     1       0.117  -4.358   3.194  0.00  0.00    -0.275 N 
ATOM      5  H   UNL     1       0.804  -2.038   2.455  0.00  0.00    +0.156 HD
ENDROOT
BRANCH   1  11
ATOM      6  C   UNL     1      -0.618  -2.833  -3.027  0.00  0.00    +0.044 C 
ATOM      7  C   UNL     1       0.227  -2.261  -1.918  0.00  0.00    -0.049 A 
ATOM      8  C   UNL     1       1.162  -1.280  -2.197  0.00  0.00    +0.003 A 
ATOM      9  C   UNL     1       1.939  -0.753  -1.182  0.00  0.00    +0.002 A 
ATOM     10  C   UNL     1       1.784  -1.205   0.115  0.00  0.00    +0.023 A 
ATOM     11  C   UNL     1       0.846  -2.189   0.398  0.00  0.00    +0.035 A 
ATOM     12  C   UNL     1       0.063  -2.712  -0.623  0.00  0.00    +0.026 A 
ENDBRANCH   1  11
BRANCH   4  13
ATOM     13  C   UNL     1      -0.229  -5.760   3.443  0.00  0.00    +0.141 C 
ATOM     14  C   UNL     1      -1.616  -5.837   4.082  0.00  0.00    +0.036 C 
BRANCH  13  15
ATOM     15  C   UNL     1       0.788  -6.370   4.372  0.00  0.00    +0.133 A 
ATOM     16  N   UNL     1       0.451  -6.566   5.611  0.00  0.00    -0.232 NA
ATOM     17  C   UNL     1       1.313  -7.111   6.505  0.00  0.00    +0.078 A 
ATOM     18  C   UNL     1       0.951  -7.323   7.837  0.00  0.00    +0.028 A 
ATOM     19  C   UNL     1       1.859  -7.879   8.710  0.00  0.00    +0.002 A 
ATOM     20  C   UNL     1       3.132  -8.234   8.283  0.00  0.00    +0.001 A 
ATOM     21  C   UNL     1       3.512  -8.036   6.974  0.00  0.00    +0.015 A 
ATOM     22  C   UNL     1       2.609  -7.473   6.074  0.00  0.00    +0.065 A 
ATOM     23  C   UNL     1       2.959  -7.238   4.665  0.00  0.00    +0.262 A 
ATOM     24  O   UNL     1       4.058  -7.527   4.230  0.00  0.00    -0.267 OA
ATOM     25  N   UNL     1       2.009  -6.693   3.870  0.00  0.00    -0.298 N 
ATOM     26  C   UNL     1       2.301  -6.442   2.457  0.00  0.00    +0.154 C 
ENDBRANCH  13  15
ENDBRANCH   4  13
BRANCH   4  27
ATOM     27  C   UNL     1       0.188  -3.412   4.311  0.00  0.00    +0.113 C 
BRANCH  27  28
ATOM     28  C   UNL     1      -1.184  -2.770   4.524  0.00  0.00    +0.000 C 
ATOM     29  C   UNL     1      -1.142  -1.877   5.766  0.00  0.00    +0.009 C 
ATOM     30  C   UNL     1      -1.547  -1.925   3.301  0.00  0.00    +0.009 C 
ENDBRANCH  27  28
ENDBRANCH   4  27
TORSDOF 5
