REMARK  Name = ZINC16123050
REMARK  9 active torsions:
REMARK  status: ('A' for Active; 'I' for Inactive)
REMARK    1  A    between atoms: C_1  and  C_2
REMARK    2  A    between atoms: C_2  and  C_3
REMARK    3  A    between atoms: C_2  and  N_4
REMARK    4  A    between atoms: N_4  and  S_5
REMARK    5  A    between atoms: S_5  and  C_8
REMARK    6  A    between atoms: C_11  and  N_14
REMARK    7  A    between atoms: N_14  and  S_15
REMARK    8  A    between atoms: S_15  and  C_18
REMARK    9  A    between atoms: C_21  and  N_24
REMARK                            x       y       z     vdW  Elec       q    Type
REMARK                         _______ _______ _______ _____ _____    ______ ____
ROOT
ATOM      1  C   UNL     1      -0.949   1.989   1.401  0.00  0.00    +0.105 A 
ATOM      2  C   UNL     1      -0.702   3.199   2.022  0.00  0.00    +0.030 A 
ATOM      3  C   UNL     1      -1.411   3.554   3.153  0.00  0.00    +0.026 A 
ATOM      4  C   UNL     1      -2.364   2.688   3.673  0.00  0.00    +0.048 A 
ATOM      5  C   UNL     1      -2.606   1.471   3.050  0.00  0.00    +0.026 A 
ATOM      6  C   UNL     1      -1.898   1.125   1.915  0.00  0.00    +0.030 A 
ENDROOT
BRANCH   1   7
ATOM      7  S   UNL     1      -0.047   1.544  -0.046  0.00  0.00    +0.059 S 
ATOM      8  O   UNL     1      -0.073   0.125  -0.120  0.00  0.00    -0.153 OA
ATOM      9  O   UNL     1       1.166   2.283  -0.013  0.00  0.00    -0.153 OA
BRANCH   7  10
ATOM     10  N   UNL     1      -0.905   2.101  -1.349  0.00  0.00    -0.187 NA
ATOM     11  H   UNL     1      -1.288   1.474  -1.982  0.00  0.00    +0.148 HD
BRANCH  10  13
ATOM     12  C   UNL     1      -1.076   3.858  -3.041  0.00  0.00    +0.025 C 
ATOM     13  C   UNL     1      -1.086   3.542  -1.544  0.00  0.00    +0.070 C 
ATOM     14  C   UNL     1      -2.424   3.974  -0.941  0.00  0.00    +0.025 C 
ENDBRANCH  10  13
ENDBRANCH   7  10
ENDBRANCH   1   7
BRANCH   4  15
ATOM     15  N   UNL     1      -3.079   3.041   4.820  0.00  0.00    -0.216 N 
ATOM     16  H   UNL     1      -4.041   2.921   4.849  0.00  0.00    +0.174 HD
BRANCH  15  17
ATOM     17  S   UNL     1      -2.283   3.665   6.132  0.00  0.00    +0.072 S 
ATOM     18  O   UNL     1      -1.499   4.749   5.653  0.00  0.00    -0.150 OA
ATOM     19  O   UNL     1      -3.253   3.821   7.159  0.00  0.00    -0.150 OA
BRANCH  17  20
ATOM     20  C   UNL     1      -1.153   2.434   6.689  0.00  0.00    +0.109 A 
ATOM     21  C   UNL     1      -1.580   1.444   7.555  0.00  0.00    +0.031 A 
ATOM     22  C   UNL     1      -0.694   0.475   7.989  0.00  0.00    +0.034 A 
ATOM     23  C   UNL     1       0.621   0.502   7.565  0.00  0.00    +0.126 A 
ATOM     24  C   UNL     1       1.050   1.495   6.704  0.00  0.00    +0.034 A 
ATOM     25  C   UNL     1       0.163   2.461   6.266  0.00  0.00    +0.031 A 
BRANCH  23  26
ATOM     26  N   UNL     1       1.571  -0.532   8.034  0.00  0.00    +0.056 N 
ATOM     27  O   UNL     1       2.730  -0.509   7.660  0.00  0.00    -0.126 OA
ATOM     28  O   UNL     1       1.193  -1.407   8.793  0.00  0.00    -0.126 OA
ENDBRANCH  23  26
ENDBRANCH  17  20
ENDBRANCH  15  17
ENDBRANCH   4  15
TORSDOF 7
