REMARK  Name = ZINC11866998
REMARK  11 active torsions:
REMARK  status: ('A' for Active; 'I' for Inactive)
REMARK    1  A    between atoms: C_1  and  C_2
REMARK    2  A    between atoms: C_2  and  C_3
REMARK    3  A    between atoms: C_3  and  C_4
REMARK    4  A    between atoms: C_13  and  O_15
REMARK    5  A    between atoms: O_15  and  C_16
REMARK    6  A    between atoms: C_16  and  C_17
REMARK    7  A    between atoms: N_19  and  C_20
REMARK    8  A    between atoms: C_20  and  C_21
REMARK    9  A    between atoms: N_23  and  C_24
REMARK   10  A    between atoms: C_24  and  C_25
REMARK   11  A    between atoms: C_30  and  O_38
REMARK                            x       y       z     vdW  Elec       q    Type
REMARK                         _______ _______ _______ _____ _____    ______ ____
ROOT
ATOM      1  C   UNL     1      -2.866   5.417   0.045  0.00  0.00    +0.251 C 
ATOM      2  O   UNL     1      -1.955   6.217   0.045  0.00  0.00    -0.272 OA
ATOM      3  N   UNL     1      -2.602   4.095   0.037  0.00  0.00    -0.304 N 
ATOM      4  H   UNL     1      -3.331   3.455   0.037  0.00  0.00    +0.149 HD
ENDROOT
BRANCH   1   5
ATOM      5  C   UNL     1      -4.294   5.900   0.054  0.00  0.00    +0.324 C 
BRANCH   5   6
ATOM      6  O   UNL     1      -4.313   7.329   0.062  0.00  0.00    -0.483 OA
BRANCH   6  16
ATOM      7  C   UNL     1      -9.329   9.790   0.099  0.00  0.00    -0.030 A 
ATOM      8  C   UNL     1      -9.365  11.148   0.107  0.00  0.00    +0.096 A 
ATOM      9  C   UNL     1      -8.160  11.880   0.105  0.00  0.00    +0.337 A 
ATOM     10  O   UNL     1      -8.206  13.098   0.113  0.00  0.00    -0.245 OA
ATOM     11  O   UNL     1      -6.964  11.271   0.096  0.00  0.00    -0.422 OA
ATOM     12  C   UNL     1      -6.859   9.925   0.088  0.00  0.00    +0.143 A 
ATOM     13  C   UNL     1      -8.021   9.132   0.089  0.00  0.00    +0.021 A 
ATOM     14  C   UNL     1      -7.917   7.736   0.081  0.00  0.00    +0.015 A 
ATOM     15  C   UNL     1      -6.685   7.148   0.067  0.00  0.00    +0.046 A 
ATOM     16  C   UNL     1      -5.531   7.928   0.071  0.00  0.00    +0.125 A 
ATOM     17  C   UNL     1      -5.616   9.311   0.079  0.00  0.00    +0.092 A 
BRANCH   7  18
ATOM     18  C   UNL     1     -10.602   8.983   0.099  0.00  0.00    +0.036 C 
BRANCH  18  20
ATOM     19  C   UNL     1     -12.251   7.776   1.536  0.00  0.00    +0.004 C 
ATOM     20  C   UNL     1     -10.959   8.595   1.536  0.00  0.00    +0.001 C 
ENDBRANCH  18  20
ENDBRANCH   7  18
ENDBRANCH   6  16
ENDBRANCH   5   6
ENDBRANCH   1   5
BRANCH   3  21
ATOM     21  C   UNL     1      -1.214   3.626   0.028  0.00  0.00    +0.200 C 
BRANCH  21  22
ATOM     22  C   UNL     1      -1.194   2.119   0.019  0.00  0.00    +0.231 C 
ATOM     23  O   UNL     1      -2.236   1.498   0.021  0.00  0.00    -0.274 OA
ATOM     24  N   UNL     1      -0.018   1.461   0.010  0.00  0.00    -0.305 N 
ATOM     25  H   UNL     1       0.816   1.957   0.005  0.00  0.00    +0.149 HD
BRANCH  24  26
ATOM     26  C   UNL     1       0.002  -0.004   0.002  0.00  0.00    +0.200 C 
BRANCH  26  27
ATOM     27  C   UNL     1       1.429  -0.487  -0.014  0.00  0.00    +0.233 C 
ATOM     28  O   UNL     1       2.341   0.314  -0.019  0.00  0.00    -0.274 OA
ATOM     29  N   UNL     1       1.694  -1.809  -0.024  0.00  0.00    -0.300 N 
ATOM     30  C   UNL     1       0.601  -2.791  -0.013  0.00  0.00    +0.110 C 
ATOM     31  C   UNL     1       0.821  -3.763   1.145  0.00  0.00    +0.054 C 
ATOM     32  C   UNL     1       2.218  -4.380   1.035  0.00  0.00    +0.072 C 
ATOM     33  C   UNL     1       2.421  -5.374   2.181  0.00  0.00    +0.035 C 
ATOM     34  C   UNL     1       3.817  -5.991   2.083  0.00  0.00    +0.003 C 
ATOM     35  C   UNL     1       4.870  -4.884   2.178  0.00  0.00    +0.001 C 
ATOM     36  C   UNL     1       4.670  -3.894   1.029  0.00  0.00    +0.008 C 
ATOM     37  C   UNL     1       3.273  -3.276   1.122  0.00  0.00    +0.038 C 
ATOM     38  C   UNL     1       3.079  -2.295  -0.040  0.00  0.00    +0.114 C 
BRANCH  32  39
ATOM     39  O   UNL     1       2.343  -5.062  -0.215  0.00  0.00    -0.388 OA
ATOM     40  H   UNL     1       1.704  -5.777  -0.339  0.00  0.00    +0.210 HD
ENDBRANCH  32  39
ENDBRANCH  26  27
ENDBRANCH  24  26
ENDBRANCH  21  22
ENDBRANCH   3  21
TORSDOF 10
