REMARK  Name = ZINC38685126
REMARK  11 active torsions:
REMARK  status: ('A' for Active; 'I' for Inactive)
REMARK    1  A    between atoms: C_1  and  C_2
REMARK    2  A    between atoms: C_2  and  C_3
REMARK    3  A    between atoms: C_3  and  C_4
REMARK    4  A    between atoms: C_4  and  O_5
REMARK    5  A    between atoms: O_5  and  C_6
REMARK    6  A    between atoms: C_10  and  C_12
REMARK    7  A    between atoms: C_17  and  O_26
REMARK    8  A    between atoms: C_21  and  N_25
REMARK    9  A    between atoms: C_22  and  C_23
REMARK   10  A    between atoms: O_26  and  C_27
REMARK   11  A    between atoms: C_27  and  C_29
REMARK                            x       y       z     vdW  Elec       q    Type
REMARK                         _______ _______ _______ _____ _____    ______ ____
ROOT
ATOM      1  C   UNL     1       3.029  -6.287   5.029  0.00  0.00    +0.098 C 
ATOM      2  C   UNL     1       2.072  -7.159   5.798  0.00  0.00    +0.008 A 
ATOM      3  C   UNL     1       1.175  -6.576   6.675  0.00  0.00    +0.012 A 
ATOM      4  C   UNL     1       0.291  -7.361   7.389  0.00  0.00    +0.047 A 
ATOM      5  C   UNL     1       0.300  -8.739   7.228  0.00  0.00    +0.135 A 
ATOM      6  C   UNL     1       1.197  -9.325   6.350  0.00  0.00    +0.093 A 
ATOM      7  C   UNL     1       2.086  -8.535   5.633  0.00  0.00    +0.138 A 
ATOM      8  O   UNL     1       2.958  -9.124   4.778  0.00  0.00    -0.441 OA
ATOM      9  C   UNL     1       4.056  -8.461   4.378  0.00  0.00    +0.199 C 
ATOM     10  C   UNL     1       4.150  -7.117   4.470  0.00  0.00    +0.098 C 
ENDROOT
BRANCH   1  15
ATOM     11  C   UNL     1       1.552  -3.618   2.799  0.00  0.00    +0.121 A 
ATOM     12  C   UNL     1       0.940  -4.387   1.819  0.00  0.00    +0.045 A 
ATOM     13  C   UNL     1       1.007  -5.765   1.882  0.00  0.00    +0.004 A 
ATOM     14  C   UNL     1       1.683  -6.379   2.921  0.00  0.00    +0.005 A 
ATOM     15  C   UNL     1       2.293  -5.615   3.898  0.00  0.00    -0.031 A 
ATOM     16  C   UNL     1       2.234  -4.236   3.836  0.00  0.00    +0.050 A 
BRANCH  11  17
ATOM     17  O   UNL     1       1.487  -2.262   2.738  0.00  0.00    -0.492 OA
BRANCH  17  18
ATOM     18  C   UNL     1       0.768  -1.695   1.641  0.00  0.00    +0.229 C 
BRANCH  18  19
ATOM     19  C   UNL     1       0.804  -0.169   1.742  0.00  0.00    +0.041 C 
BRANCH  19  21
ATOM     20  C   UNL     1       0.071   1.965   0.668  0.00  0.00    +0.004 C 
ATOM     21  C   UNL     1       0.034   0.439   0.568  0.00  0.00    -0.000 C 
ENDBRANCH  19  21
ENDBRANCH  18  19
ENDBRANCH  17  18
ENDBRANCH  11  17
ENDBRANCH   1  15
BRANCH   9  22
ATOM     22  N   UNL     1       5.110  -9.171   3.860  0.00  0.00    -0.328 N 
ATOM     23  H   UNL     1       5.056 -10.136   3.787  0.00  0.00    +0.145 HD
ATOM     24  H   UNL     1       5.910  -8.706   3.566  0.00  0.00    +0.145 HD
ENDBRANCH   9  22
BRANCH  10  25
ATOM     25  C   UNL     1       5.347  -6.470   4.024  0.00  0.00    +0.101 C 
ATOM     26  N   UNL     1       6.297  -5.957   3.670  0.00  0.00    -0.191 NA
ENDBRANCH  10  25
BRANCH   5  27
ATOM     27  O   UNL     1      -0.570  -9.512   7.930  0.00  0.00    -0.422 OA
BRANCH  27  28
ATOM     28  C   UNL     1      -1.878  -9.437   7.617  0.00  0.00    +0.346 C 
ATOM     29  O   UNL     1      -2.238  -8.775   6.664  0.00  0.00    -0.244 OA
BRANCH  28  30
ATOM     30  C   UNL     1      -2.874 -10.159   8.432  0.00  0.00    +0.078 A 
ATOM     31  C   UNL     1      -2.465 -10.917   9.532  0.00  0.00    +0.018 A 
ATOM     32  C   UNL     1      -3.400 -11.589  10.290  0.00  0.00    +0.021 A 
ATOM     33  C   UNL     1      -4.744 -11.515   9.963  0.00  0.00    +0.042 A 
ATOM     34  C   UNL     1      -5.158 -10.766   8.874  0.00  0.00    +0.040 A 
ATOM     35  C   UNL     1      -4.232 -10.083   8.111  0.00  0.00    +0.056 A 
ATOM     36 CL   UNL     1      -4.753  -9.138   6.751  0.00  0.00    -0.083 Cl
ATOM     37 CL   UNL     1      -5.915 -12.365  10.922  0.00  0.00    -0.083 Cl
ENDBRANCH  28  30
ENDBRANCH  27  28
ENDBRANCH   5  27
TORSDOF 10
