REMARK  Name = ZINC16166331
REMARK  8 active torsions:
REMARK  status: ('A' for Active; 'I' for Inactive)
REMARK    1  A    between atoms: C_1  and  C_2
REMARK    2  A    between atoms: C_3  and  C_14
REMARK    3  A    between atoms: C_6  and  C_8
REMARK    4  A    between atoms: C_14  and  O_16
REMARK    5  A    between atoms: O_16  and  C_17
REMARK    6  A    between atoms: C_17  and  C_18
REMARK    7  A    between atoms: N_20  and  C_21
REMARK    8  A    between atoms: C_22  and  C_30
REMARK                            x       y       z     vdW  Elec       q    Type
REMARK                         _______ _______ _______ _____ _____    ______ ____
ROOT
ATOM      1  C   UNL     1      -5.977   3.077  -0.985  0.00  0.00    +0.255 C 
ATOM      2  O   UNL     1      -5.839   1.878  -0.863  0.00  0.00    -0.272 OA
ATOM      3  N   UNL     1      -7.199   3.594  -1.221  0.00  0.00    -0.277 N 
ATOM      4  H   UNL     1      -7.310   4.553  -1.319  0.00  0.00    +0.155 HD
ENDROOT
BRANCH   3   5
ATOM      5  C   UNL     1      -8.299   2.756  -1.325  0.00  0.00    +0.084 A 
ATOM      6  C   UNL     1      -9.624   3.096  -1.557  0.00  0.00    +0.068 A 
ATOM      7  C   UNL     1     -10.593   2.015  -1.624  0.00  0.00    -0.023 A 
ATOM      8  C   UNL     1     -10.087   0.777  -1.440  0.00  0.00    -0.004 A 
ATOM      9  S   UNL     1      -8.353   1.029  -1.188  0.00  0.00    -0.077 S 
ATOM     10  C   UNL     1     -10.840  -0.517  -1.449  0.00  0.00    +0.043 C 
ATOM     11  C   UNL     1     -12.339  -0.205  -1.327  0.00  0.00    +0.005 C 
ATOM     12  C   UNL     1     -12.696   0.899  -2.326  0.00  0.00    +0.005 C 
ATOM     13  C   UNL     1     -12.081   2.226  -1.877  0.00  0.00    +0.037 C 
BRANCH   6  14
ATOM     14  C   UNL     1     -10.030   4.494  -1.732  0.00  0.00    +0.244 C 
ATOM     15  O   UNL     1     -10.039   4.991  -2.843  0.00  0.00    -0.270 OA
ATOM     16  N   UNL     1     -10.395   5.229  -0.662  0.00  0.00    -0.325 N 
ATOM     17  H   UNL     1     -10.388   4.832   0.224  0.00  0.00    +0.145 HD
ATOM     18  H   UNL     1     -10.664   6.153  -0.777  0.00  0.00    +0.145 HD
ENDBRANCH   6  14
ENDBRANCH   3   5
BRANCH   1  19
ATOM     19  C   UNL     1      -4.782   3.988  -0.873  0.00  0.00    +0.328 C 
BRANCH  19  20
ATOM     20  O   UNL     1      -3.592   3.197  -0.618  0.00  0.00    -0.452 OA
BRANCH  20  21
ATOM     21  C   UNL     1      -2.429   3.865  -0.491  0.00  0.00    +0.341 C 
ATOM     22  O   UNL     1      -2.410   5.075  -0.589  0.00  0.00    -0.245 OA
BRANCH  21  25
ATOM     23  C   UNL     1       0.013   5.320   0.038  0.00  0.00    +0.066 C 
ATOM     24  C   UNL     1       0.011   3.813   0.026  0.00  0.00    +0.053 A 
ATOM     25  C   UNL     1      -1.178   3.125  -0.231  0.00  0.00    +0.080 A 
ATOM     26  C   UNL     1      -1.165   1.723  -0.245  0.00  0.00    +0.019 A 
ATOM     27  C   UNL     1       0.028   1.076   0.008  0.00  0.00    +0.029 A 
ATOM     28  C   UNL     1       1.173   1.831   0.257  0.00  0.00    +0.071 A 
ATOM     29  N   UNL     1       1.127   3.159   0.258  0.00  0.00    -0.251 NA
BRANCH  28  30
ATOM     30  C   UNL     1       2.459   1.144   0.525  0.00  0.00    +0.000 A 
ATOM     31  C   UNL     1       2.519  -0.249   0.533  0.00  0.00    +0.010 A 
ATOM     32  C   UNL     1       3.720  -0.883   0.777  0.00  0.00    +0.001 A 
ATOM     33  C   UNL     1       4.860  -0.140   1.025  0.00  0.00    +0.000 A 
ATOM     34  C   UNL     1       4.806   1.242   1.023  0.00  0.00    +0.001 A 
ATOM     35  C   UNL     1       3.611   1.888   0.775  0.00  0.00    +0.010 A 
ENDBRANCH  28  30
ENDBRANCH  21  25
ENDBRANCH  20  21
ENDBRANCH  19  20
ENDBRANCH   1  19
TORSDOF 7
