REMARK  Name = ZINC12865359
REMARK  12 active torsions:
REMARK  status: ('A' for Active; 'I' for Inactive)
REMARK    1  A    between atoms: C_1  and  C_2
REMARK    2  A    between atoms: C_2  and  C_3
REMARK    3  A    between atoms: C_3  and  C_4
REMARK    4  A    between atoms: C_4  and  C_5
REMARK    5  A    between atoms: C_5  and  C_6
REMARK    6  A    between atoms: C_6  and  C_8
REMARK    7  A    between atoms: C_6  and  N_9
REMARK    8  A    between atoms: C_10  and  C_12
REMARK    9  A    between atoms: C_15  and  N_18
REMARK   10  A    between atoms: C_21  and  C_39
REMARK   11  A    between atoms: C_26  and  O_32
REMARK   12  A    between atoms: O_32  and  C_33
REMARK                            x       y       z     vdW  Elec       q    Type
REMARK                         _______ _______ _______ _____ _____    ______ ____
ROOT
ATOM      1  N   UNL     1      -1.251   9.367   2.283  0.00  0.00    -0.192 N 
ATOM      2  C   UNL     1      -0.227  10.093   1.782  0.00  0.00    +0.257 C 
ATOM      3  O   UNL     1       0.788   9.674   1.269  0.00  0.00    -0.272 OA
ATOM      4  C   UNL     1      -0.615  11.537   1.994  0.00  0.00    +0.153 C 
ATOM      5  C   UNL     1       0.421  12.274   2.808  0.00  0.00    +0.053 A 
ATOM      6  C   UNL     1       0.128  12.924   3.957  0.00  0.00    -0.015 A 
ATOM      7  C   UNL     1       1.369  13.516   4.425  0.00  0.00    +0.007 A 
ATOM      8  C   UNL     1       1.675  14.301   5.542  0.00  0.00    +0.056 A 
ATOM      9  C   UNL     1       2.997  14.699   5.679  0.00  0.00    +0.121 A 
ATOM     10  C   UNL     1       3.971  14.339   4.756  0.00  0.00    +0.047 A 
ATOM     11  C   UNL     1       3.684  13.564   3.646  0.00  0.00    +0.030 A 
ATOM     12  C   UNL     1       2.364  13.150   3.485  0.00  0.00    +0.047 A 
ATOM     13  N   UNL     1       1.754  12.396   2.522  0.00  0.00    -0.356 N 
ATOM     14  H   UNL     1       2.198  12.005   1.753  0.00  0.00    +0.166 HD
ATOM     15  C   UNL     1      -1.225  13.007   4.617  0.00  0.00    +0.056 C 
ATOM     16  C   UNL     1      -2.323  12.564   3.639  0.00  0.00    +0.115 C 
ATOM     17  N   UNL     1      -1.804  11.430   2.872  0.00  0.00    -0.265 N 
ATOM     18  C   UNL     1      -2.179  10.150   2.855  0.00  0.00    +0.317 C 
ATOM     19  O   UNL     1      -3.232   9.743   3.304  0.00  0.00    -0.252 OA
ATOM     20  C   UNL     1      -0.933  12.248   0.676  0.00  0.00    +0.048 C 
ENDROOT
BRANCH   1  24
ATOM     21  C   UNL     1      -1.489   5.210   2.088  0.00  0.00    +0.037 A 
ATOM     22  C   UNL     1      -0.458   5.883   1.429  0.00  0.00    +0.015 A 
ATOM     23  C   UNL     1      -0.385   7.257   1.491  0.00  0.00    +0.025 A 
ATOM     24  C   UNL     1      -1.330   7.973   2.218  0.00  0.00    +0.046 A 
ATOM     25  C   UNL     1      -2.355   7.305   2.880  0.00  0.00    +0.025 A 
ATOM     26  C   UNL     1      -2.437   5.932   2.817  0.00  0.00    +0.015 A 
BRANCH  21  28
ATOM     27  N   UNL     1      -0.659   3.042   1.315  0.00  0.00    -0.309 N 
ATOM     28  C   UNL     1      -1.574   3.737   2.019  0.00  0.00    +0.244 C 
ATOM     29  O   UNL     1      -2.469   3.152   2.597  0.00  0.00    -0.270 OA
ATOM     30  H   UNL     1       0.056   3.509   0.854  0.00  0.00    +0.149 HD
BRANCH  27  31
ATOM     31  C   UNL     1      -0.743   1.581   1.246  0.00  0.00    +0.070 C 
ATOM     32  C   UNL     1      -0.051   0.972   2.467  0.00  0.00    +0.028 C 
BRANCH  31  33
ATOM     33  C   UNL     1      -0.053   1.090  -0.028  0.00  0.00    +0.022 C 
BRANCH  33  34
ATOM     34  C   UNL     1      -0.820   1.597  -1.251  0.00  0.00    +0.002 C 
BRANCH  34  35
ATOM     35  C   UNL     1      -0.131   1.106  -2.525  0.00  0.00    -0.000 C 
BRANCH  35  37
ATOM     36  C   UNL     1      -0.208   1.123  -5.023  0.00  0.00    +0.004 C 
ATOM     37  C   UNL     1      -0.898   1.614  -3.748  0.00  0.00    -0.003 C 
ENDBRANCH  35  37
ENDBRANCH  34  35
ENDBRANCH  33  34
ENDBRANCH  31  33
ENDBRANCH  27  31
ENDBRANCH  21  28
ENDBRANCH   1  24
BRANCH   9  38
ATOM     38  O   UNL     1       3.349  15.464   6.747  0.00  0.00    -0.495 OA
ATOM     39  C   UNL     1       4.722  15.849   6.845  0.00  0.00    +0.277 C 
ENDBRANCH   9  38
TORSDOF 8
