REMARK  Name = ZINC43171521
REMARK  13 active torsions:
REMARK  status: ('A' for Active; 'I' for Inactive)
REMARK    1  A    between atoms: C_1  and  C_2
REMARK    2  A    between atoms: C_2  and  C_3
REMARK    3  A    between atoms: C_2  and  C_4
REMARK    4  A    between atoms: C_8  and  C_25
REMARK    5  A    between atoms: C_9  and  N_10
REMARK    6  A    between atoms: N_13  and  C_14
REMARK    7  A    between atoms: C_14  and  C_15
REMARK    8  A    between atoms: C_15  and  C_17
REMARK    9  A    between atoms: C_15  and  N_22
REMARK   10  A    between atoms: N_22  and  C_23
REMARK   11  A    between atoms: N_22  and  C_24
REMARK   12  A    between atoms: C_25  and  C_26
REMARK   13  A    between atoms: C_25  and  C_27
REMARK                            x       y       z     vdW  Elec       q    Type
REMARK                         _______ _______ _______ _____ _____    ______ ____
ROOT
ATOM      1  N   UNL     1      -0.604  -0.468  -2.255  0.00  0.00    -0.269 N 
ATOM      2  C   UNL     1      -0.613  -1.402  -3.227  0.00  0.00    +0.304 C 
ATOM      3  O   UNL     1      -1.344  -2.369  -3.134  0.00  0.00    -0.253 OA
ATOM      4  N   UNL     1       0.189  -1.263  -4.301  0.00  0.00    -0.300 N 
ATOM      5  H   UNL     1      -0.084   0.343  -2.365  0.00  0.00    +0.156 HD
ATOM      6  H   UNL     1       0.772  -0.492  -4.375  0.00  0.00    +0.150 HD
ENDROOT
BRANCH   1  12
ATOM      7  C   UNL     1      -0.713  -0.662   0.151  0.00  0.00    -0.023 A 
ATOM      8  C   UNL     1      -1.449  -0.855   1.303  0.00  0.00    +0.006 A 
ATOM      9  C   UNL     1      -2.814  -1.060   1.228  0.00  0.00    +0.001 A 
ATOM     10  C   UNL     1      -3.447  -1.074  -0.002  0.00  0.00    +0.006 A 
ATOM     11  C   UNL     1      -2.717  -0.882  -1.158  0.00  0.00    -0.023 A 
ATOM     12  C   UNL     1      -1.346  -0.669  -1.085  0.00  0.00    +0.042 A 
BRANCH   7  14
ATOM     13  C   UNL     1       1.057   0.811   1.071  0.00  0.00    +0.012 C 
ATOM     14  C   UNL     1       0.775  -0.438   0.234  0.00  0.00    +0.015 C 
ATOM     15  C   UNL     1       1.437  -1.652   0.890  0.00  0.00    +0.012 C 
ENDBRANCH   7  14
BRANCH  11  16
ATOM     16  C   UNL     1      -3.407  -0.898  -2.498  0.00  0.00    +0.015 C 
ATOM     17  C   UNL     1      -4.581  -1.879  -2.455  0.00  0.00    +0.012 C 
ATOM     18  C   UNL     1      -3.925   0.504  -2.821  0.00  0.00    +0.012 C 
ENDBRANCH  11  16
ENDBRANCH   1  12
BRANCH   4  19
ATOM     19  C   UNL     1       0.179  -2.278  -5.358  0.00  0.00    +0.095 C 
BRANCH  19  20
ATOM     20  C   UNL     1       1.075  -1.821  -6.511  0.00  0.00    -0.014 C 
BRANCH  20  21
ATOM     21  C   UNL     1       0.499  -0.574  -7.131  0.00  0.00    -0.022 A 
ATOM     22  C   UNL     1       0.867   0.718  -6.947  0.00  0.00    +0.009 A 
ATOM     23  C   UNL     1       0.189   1.711  -7.629  0.00  0.00    +0.008 A 
ATOM     24  C   UNL     1      -0.823   1.364  -8.461  0.00  0.00    +0.045 A 
ATOM     25  S   UNL     1      -0.838  -0.414  -8.302  0.00  0.00    -0.103 S 
ENDBRANCH  20  21
BRANCH  20  26
ATOM     26  N   UNL     1       1.147  -2.882  -7.525  0.00  0.00    +0.382 N 
ATOM     27  C   UNL     1       2.077  -2.481  -8.589  0.00  0.00    -0.096 C 
ATOM     28  C   UNL     1       1.623  -4.124  -6.901  0.00  0.00    -0.096 C 
ATOM     29  H   UNL     1       0.230  -3.034  -7.919  0.00  0.00    -0.082 HD
ENDBRANCH  20  26
ENDBRANCH  19  20
ENDBRANCH   4  19
TORSDOF 7
