REMARK  Name = ZINC65135665
REMARK  8 active torsions:
REMARK  status: ('A' for Active; 'I' for Inactive)
REMARK    1  A    between atoms: C_1  and  C_2
REMARK    2  A    between atoms: C_2  and  C_3
REMARK    3  A    between atoms: C_2  and  C_4
REMARK    4  A    between atoms: C_4  and  C_5
REMARK    5  A    between atoms: C_5  and  N_6
REMARK    6  A    between atoms: N_9  and  N_10
REMARK    7  A    between atoms: C_11  and  C_13
REMARK    8  A    between atoms: C_13  and  C_14
REMARK                            x       y       z     vdW  Elec       q    Type
REMARK                         _______ _______ _______ _____ _____    ______ ____
ROOT
ATOM      1  N   UNL     1      -5.360  -3.464  -0.087  0.00  0.00    -0.233 N 
ATOM      2  C   UNL     1      -6.624  -3.930  -0.077  0.00  0.00    +0.231 C 
ATOM      3  O   UNL     1      -6.832  -5.121  -0.173  0.00  0.00    -0.274 OA
ATOM      4  H   UNL     1      -5.194  -2.511  -0.010  0.00  0.00    +0.173 HD
ENDROOT
BRANCH   1   8
ATOM      5  N   UNL     1      -2.790  -2.565  -0.111  0.00  0.00    -0.298 N 
ATOM      6  C   UNL     1      -3.021  -3.888  -0.217  0.00  0.00    +0.316 C 
ATOM      7  O   UNL     1      -2.088  -4.662  -0.322  0.00  0.00    -0.251 OA
ATOM      8  N   UNL     1      -4.285  -4.355  -0.208  0.00  0.00    -0.218 N 
ATOM      9  H   UNL     1      -3.534  -1.948  -0.027  0.00  0.00    +0.150 HD
ATOM     10  H   UNL     1      -4.451  -5.307  -0.285  0.00  0.00    +0.174 HD
BRANCH   5  11
ATOM     11  C   UNL     1      -1.416  -2.058  -0.121  0.00  0.00    +0.106 C 
BRANCH  11  12
ATOM     12  C   UNL     1      -1.433  -0.534   0.013  0.00  0.00    +0.022 C 
BRANCH  12  14
ATOM     13  C   UNL     1      -0.019   1.526   0.010  0.00  0.00    +0.007 C 
ATOM     14  C   UNL     1       0.002  -0.004   0.002  0.00  0.00    -0.016 C 
ATOM     15  C   UNL     1       0.742  -0.511   1.242  0.00  0.00    +0.007 C 
ENDBRANCH  12  14
ENDBRANCH  11  12
ENDBRANCH   5  11
ENDBRANCH   1   8
BRANCH   2  16
ATOM     16  C   UNL     1      -7.780  -2.972   0.052  0.00  0.00    +0.121 C 
BRANCH  16  17
ATOM     17  C   UNL     1      -9.095  -3.754   0.036  0.00  0.00    +0.146 C 
ATOM     18  C   UNL     1     -10.255  -2.794   0.068  0.00  0.00    +0.231 C 
ATOM     19  O   UNL     1     -10.804  -2.516  -0.978  0.00  0.00    -0.274 OA
ATOM     20  N   UNL     1     -10.707  -2.235   1.186  0.00  0.00    -0.284 N 
ATOM     21  C   UNL     1     -10.288  -2.516   2.483  0.00  0.00    +0.048 A 
ATOM     22  C   UNL     1     -10.597  -1.623   3.505  0.00  0.00    +0.044 A 
ATOM     23  C   UNL     1     -10.184  -1.874   4.799  0.00  0.00    +0.043 A 
ATOM     24  C   UNL     1      -9.460  -3.016   5.094  0.00  0.00    +0.021 A 
ATOM     25  C   UNL     1      -9.149  -3.914   4.089  0.00  0.00    +0.018 A 
ATOM     26  C   UNL     1      -9.565  -3.668   2.791  0.00  0.00    +0.030 A 
ATOM     27  S   UNL     1      -9.190  -4.821   1.507  0.00  0.00    -0.110 S 
ATOM     28 CL   UNL     1     -10.577  -0.751   6.063  0.00  0.00    -0.083 Cl
ATOM     29  H   UNL     1     -11.400  -1.563   1.089  0.00  0.00    +0.155 HD
ENDBRANCH  16  17
ENDBRANCH   2  16
TORSDOF 6
