REMARK  Name = ZINC04436315
REMARK  6 active torsions:
REMARK  status: ('A' for Active; 'I' for Inactive)
REMARK    1  A    between atoms: C_1  and  C_2
REMARK    2  A    between atoms: C_6  and  C_7
REMARK    3  A    between atoms: C_12  and  C_16
REMARK    4  A    between atoms: C_12  and  C_17
REMARK    5  A    between atoms: C_22  and  S_24
REMARK    6  A    between atoms: S_24  and  C_25
REMARK                            x       y       z     vdW  Elec       q    Type
REMARK                         _______ _______ _______ _____ _____    ______ ____
ROOT
ATOM      1  C   UNL     1       0.030  -0.179   2.581  0.00  0.00    +0.182 C 
ATOM      2  C   UNL     1       1.282  -0.655   3.284  0.00  0.00    +0.041 C 
ATOM      3  C   UNL     1       1.254  -1.627   4.220  0.00  0.00    +0.020 C 
ATOM      4  C   UNL     1       2.520  -2.081   4.907  0.00  0.00    +0.058 C 
ATOM      5  C   UNL     1       3.707  -1.925   3.954  0.00  0.00    -0.023 C 
ATOM      6  C   UNL     1       3.800  -0.453   3.537  0.00  0.00    +0.086 C 
ATOM      7  C   UNL     1       2.493  -0.038   2.921  0.00  0.00    +0.164 C 
ATOM      8  O   UNL     1       2.482   0.849   2.090  0.00  0.00    -0.292 OA
ATOM      9  C   UNL     1       4.996  -2.341   4.665  0.00  0.00    +0.011 C 
ATOM     10  C   UNL     1       3.494  -2.798   2.716  0.00  0.00    +0.011 C 
ATOM     11  N   UNL     1       0.081  -2.239   4.593  0.00  0.00    -0.287 N 
ATOM     12  C   UNL     1      -1.112  -1.641   4.222  0.00  0.00    +0.219 A 
ATOM     13  N   UNL     1      -1.151  -0.668   3.282  0.00  0.00    -0.219 N 
ATOM     14  N   UNL     1      -2.486  -0.288   3.161  0.00  0.00    -0.141 NA
ATOM     15  C   UNL     1      -3.170  -1.032   4.004  0.00  0.00    +0.210 A 
ATOM     16  N   UNL     1      -2.330  -1.849   4.643  0.00  0.00    -0.187 NA
ATOM     17  H   UNL     1       0.088  -3.066   5.100  0.00  0.00    +0.155 HD
ENDROOT
BRANCH   1  23
ATOM     18  C   UNL     1      -0.018   1.503   0.010  0.00  0.00    +0.044 C 
ATOM     19  C   UNL     1       0.002  -0.004   0.002  0.00  0.00    -0.038 A 
ATOM     20  C   UNL     1       0.006  -0.699  -1.193  0.00  0.00    +0.011 A 
ATOM     21  C   UNL     1       0.024  -2.054  -1.165  0.00  0.00    +0.046 A 
ATOM     22  S   UNL     1       0.037  -2.387   0.589  0.00  0.00    -0.099 S 
ATOM     23  C   UNL     1       0.023  -0.698   1.166  0.00  0.00    +0.022 A 
ENDBRANCH   1  23
BRANCH  15  24
ATOM     24  S   UNL     1      -4.913  -0.960   4.252  0.00  0.00    -0.088 S 
ATOM     25  C   UNL     1      -5.228  -2.215   5.523  0.00  0.00    +0.093 C 
ENDBRANCH  15  24
TORSDOF 2
