REMARK  Name = ZINC08959700
REMARK  11 active torsions:
REMARK  status: ('A' for Active; 'I' for Inactive)
REMARK    1  A    between atoms: C_1  and  C_2
REMARK    2  A    between atoms: C_2  and  C_3
REMARK    3  A    between atoms: C_3  and  N_4
REMARK    4  A    between atoms: C_7  and  N_18
REMARK    5  A    between atoms: C_13  and  C_16
REMARK    6  A    between atoms: C_13  and  C_17
REMARK    7  A    between atoms: C_19  and  C_21
REMARK    8  A    between atoms: C_21  and  C_22
REMARK    9  A    between atoms: C_22  and  C_23
REMARK   10  A    between atoms: C_22  and  C_24
REMARK   11  A    between atoms: C_22  and  C_25
REMARK                            x       y       z     vdW  Elec       q    Type
REMARK                         _______ _______ _______ _____ _____    ______ ____
ROOT
ATOM      1  N   UNL     1       2.141   3.298   0.145  0.00  0.00    -0.268 N 
ATOM      2  C   UNL     1       1.020   2.489  -0.082  0.00  0.00    +0.080 A 
ATOM      3  C   UNL     1      -0.258   3.016   0.006  0.00  0.00    +0.050 A 
ATOM      4  C   UNL     1      -1.358   2.198  -0.214  0.00  0.00    +0.035 A 
ATOM      5  C   UNL     1      -1.175   0.857  -0.528  0.00  0.00    +0.027 A 
ATOM      6  C   UNL     1       0.100   0.331  -0.613  0.00  0.00    +0.049 A 
ATOM      7  C   UNL     1       1.200   1.143  -0.394  0.00  0.00    +0.142 A 
ATOM      8  O   UNL     1       2.459   0.636  -0.487  0.00  0.00    -0.489 OA
ATOM      9  C   UNL     1       3.208   0.964  -1.655  0.00  0.00    +0.244 C 
ATOM     10  C   UNL     1       3.049   2.445  -1.992  0.00  0.00    +0.076 C 
ATOM     11  C   UNL     1       3.164   3.275  -0.740  0.00  0.00    +0.229 C 
ATOM     12  O   UNL     1       4.169   3.920  -0.526  0.00  0.00    -0.275 OA
ATOM     13  C   UNL     1       4.142   2.861  -2.978  0.00  0.00    +0.024 C 
ATOM     14  C   UNL     1       1.677   2.676  -2.627  0.00  0.00    +0.024 C 
ENDROOT
BRANCH   4  15
ATOM     15  N   UNL     1      -2.653   2.726  -0.126  0.00  0.00    -0.285 N 
ATOM     16  C   UNL     1      -3.664   1.959   0.326  0.00  0.00    +0.218 C 
ATOM     17  O   UNL     1      -3.439   0.842   0.742  0.00  0.00    -0.275 OA
ATOM     18  H   UNL     1      -2.821   3.644  -0.391  0.00  0.00    +0.155 HD
BRANCH  16  19
ATOM     19  C   UNL     1      -5.075   2.489   0.316  0.00  0.00    +0.102 C 
BRANCH  19  20
ATOM     20  C   UNL     1      -6.023   1.428   0.878  0.00  0.00    -0.029 C 
ATOM     21  C   UNL     1      -5.616   1.089   2.313  0.00  0.00    +0.011 C 
ATOM     22  C   UNL     1      -7.455   1.966   0.867  0.00  0.00    +0.011 C 
ATOM     23  C   UNL     1      -5.946   0.167   0.015  0.00  0.00    +0.011 C 
ENDBRANCH  19  20
ENDBRANCH  16  19
ENDBRANCH   4  15
BRANCH   1  24
ATOM     24  C   UNL     1       2.205   4.160   1.327  0.00  0.00    +0.113 C 
BRANCH  24  26
ATOM     25  C   UNL     1       1.674   6.429   2.229  0.00  0.00    +0.005 C 
ATOM     26  C   UNL     1       1.607   5.529   0.994  0.00  0.00    +0.016 C 
ENDBRANCH  24  26
ENDBRANCH   1  24
TORSDOF 5
