REMARK  Name = ZINC16809611
REMARK  5 active torsions:
REMARK  status: ('A' for Active; 'I' for Inactive)
REMARK    1  A    between atoms: C_1  and  C_2
REMARK    2  A    between atoms: C_5  and  C_8
REMARK    3  A    between atoms: C_8  and  C_9
REMARK    4  A    between atoms: C_10  and  C_24
REMARK    5  A    between atoms: C_21  and  C_23
REMARK                            x       y       z     vdW  Elec       q    Type
REMARK                         _______ _______ _______ _____ _____    ______ ____
ROOT
ATOM      1  C   UNL     1      -0.466   1.713   1.328  0.00  0.00    +0.042 A 
ATOM      2  C   UNL     1      -1.436   1.081   2.049  0.00  0.00    +0.050 A 
ATOM      3  N   UNL     1      -2.126   1.749   2.970  0.00  0.00    -0.221 NA
ATOM      4  C   UNL     1      -1.895   3.025   3.209  0.00  0.00    +0.202 A 
ATOM      5  N   UNL     1      -0.939   3.707   2.521  0.00  0.00    -0.295 N 
ATOM      6  H   UNL     1      -0.782   4.646   2.708  0.00  0.00    +0.172 HD
ATOM      7  C   UNL     1      -0.209   3.073   1.580  0.00  0.00    +0.256 A 
ATOM      8  O   UNL     1       0.655   3.668   0.957  0.00  0.00    -0.267 OA
ATOM      9  N   UNL     1      -2.629   3.675   4.167  0.00  0.00    -0.263 N 
ATOM     10  C   UNL     1      -3.607   2.989   4.877  0.00  0.00    +0.188 A 
ATOM     11  N   UNL     1      -3.997   1.725   4.789  0.00  0.00    -0.126 NA
ATOM     12  N   UNL     1      -4.910   1.257   5.523  0.00  0.00    -0.145 NA
ATOM     13  C   UNL     1      -5.542   1.996   6.413  0.00  0.00    +0.101 A 
ATOM     14  S   UNL     1      -4.709   3.562   6.167  0.00  0.00    -0.036 S 
ATOM     15  C   UNL     1      -6.650   1.627   7.366  0.00  0.00    +0.075 C 
ATOM     16  C   UNL     1      -1.727  -0.377   1.803  0.00  0.00    +0.066 C 
ATOM     17  H   UNL     1      -2.466   4.614   4.349  0.00  0.00    +0.157 HD
ENDROOT
BRANCH   1  18
ATOM     18  C   UNL     1       0.322   0.966   0.282  0.00  0.00    +0.077 C 
BRANCH  18  23
ATOM     19  C   UNL     1       5.222  -1.020   2.616  0.00  0.00    +0.044 C 
ATOM     20  C   UNL     1       3.944  -0.502   2.007  0.00  0.00    -0.050 A 
ATOM     21  C   UNL     1       2.824  -1.311   1.959  0.00  0.00    +0.003 A 
ATOM     22  C   UNL     1       1.652  -0.836   1.401  0.00  0.00    +0.004 A 
ATOM     23  C   UNL     1       1.600   0.448   0.891  0.00  0.00    -0.043 A 
ATOM     24  C   UNL     1       2.721   1.255   0.935  0.00  0.00    +0.004 A 
ATOM     25  C   UNL     1       3.892   0.782   1.497  0.00  0.00    +0.003 A 
ENDBRANCH  18  23
ENDBRANCH   1  18
TORSDOF 2
