REMARK  Name = ZINC20702326
REMARK  8 active torsions:
REMARK  status: ('A' for Active; 'I' for Inactive)
REMARK    1  A    between atoms: C_1  and  C_2
REMARK    2  A    between atoms: C_5  and  O_30
REMARK    3  A    between atoms: C_15  and  C_18
REMARK    4  A    between atoms: C_21  and  O_26
REMARK    5  A    between atoms: C_22  and  O_24
REMARK    6  A    between atoms: O_24  and  C_25
REMARK    7  A    between atoms: O_26  and  C_27
REMARK    8  A    between atoms: C_27  and  C_29
REMARK                            x       y       z     vdW  Elec       q    Type
REMARK                         _______ _______ _______ _____ _____    ______ ____
ROOT
ATOM      1  C   UNL     1      -3.550   0.014   3.356  0.00  0.00    +0.044 C 
ATOM      2  C   UNL     1      -3.797   0.213   1.883  0.00  0.00    -0.045 A 
ATOM      3  C   UNL     1      -4.235  -0.847   1.116  0.00  0.00    +0.007 A 
ATOM      4  C   UNL     1      -4.464  -0.674  -0.237  0.00  0.00    +0.047 A 
ATOM      5  C   UNL     1      -4.254   0.564  -0.815  0.00  0.00    +0.138 A 
ATOM      6  C   UNL     1      -3.813   1.640  -0.038  0.00  0.00    +0.074 A 
ATOM      7  C   UNL     1      -3.581   1.462   1.313  0.00  0.00    -0.013 A 
ATOM      8  C   UNL     1      -3.100   2.568   2.204  0.00  0.00    +0.049 C 
ATOM      9  C   UNL     1      -1.655   2.351   2.592  0.00  0.00    -0.023 C 
ATOM     10  C   UNL     1      -1.007   3.489   2.600  0.00  0.00    -0.030 C 
ATOM     11  C   UNL     1      -1.931   4.631   2.226  0.00  0.00    +0.033 C 
ATOM     12  C   UNL     1      -3.093   3.926   1.470  0.00  0.00    +0.029 C 
ATOM     13  C   UNL     1      -2.644   3.706   0.024  0.00  0.00    +0.105 C 
ATOM     14  N   UNL     1      -3.626   2.872  -0.670  0.00  0.00    -0.334 N 
ATOM     15  H   UNL     1      -4.118   3.244  -1.581  0.00  0.00    +0.147 HD
ENDROOT
BRANCH  13  16
ATOM     16  C   UNL     1      -1.303   3.018   0.013  0.00  0.00    -0.023 A 
ATOM     17  C   UNL     1      -1.230   1.653  -0.198  0.00  0.00    +0.009 A 
ATOM     18  C   UNL     1      -0.003   1.016  -0.203  0.00  0.00    +0.050 A 
ATOM     19  C   UNL     1       1.158   1.747  -0.007  0.00  0.00    +0.173 A 
ATOM     20  C   UNL     1       1.084   3.121   0.201  0.00  0.00    +0.163 A 
ATOM     21  C   UNL     1      -0.149   3.753   0.210  0.00  0.00    +0.055 A 
BRANCH  20  22
ATOM     22  O   UNL     1       2.220   3.843   0.394  0.00  0.00    -0.491 OA
ATOM     23  C   UNL     1       2.069   5.249   0.600  0.00  0.00    +0.277 C 
ENDBRANCH  20  22
BRANCH  19  24
ATOM     24  O   UNL     1       2.366   1.123  -0.017  0.00  0.00    -0.422 OA
BRANCH  24  25
ATOM     25  C   UNL     1       2.865   0.742   1.169  0.00  0.00    +0.309 C 
ATOM     26  O   UNL     1       2.221   0.909   2.178  0.00  0.00    -0.251 OA
ATOM     27  C   UNL     1       4.229   0.104   1.243  0.00  0.00    +0.136 C 
ENDBRANCH  24  25
ENDBRANCH  19  24
ENDBRANCH  13  16
BRANCH   5  28
ATOM     28  O   UNL     1      -4.479   0.737  -2.146  0.00  0.00    -0.505 OA
ATOM     29  H   UNL     1      -4.313   1.721  -2.608  0.00  0.00    +0.292 HD
ENDBRANCH   5  28
TORSDOF 5
