REMARK  Name = ZINC48196064
REMARK  9 active torsions:
REMARK  status: ('A' for Active; 'I' for Inactive)
REMARK    1  A    between atoms: C_1  and  C_2
REMARK    2  A    between atoms: C_5  and  C_27
REMARK    3  A    between atoms: C_6  and  C_8
REMARK    4  A    between atoms: C_14  and  C_17
REMARK    5  A    between atoms: C_17  and  N_18
REMARK    6  A    between atoms: C_20  and  C_23
REMARK    7  A    between atoms: C_23  and  C_24
REMARK    8  A    between atoms: C_23  and  C_25
REMARK    9  A    between atoms: C_23  and  N_26
REMARK                            x       y       z     vdW  Elec       q    Type
REMARK                         _______ _______ _______ _____ _____    ______ ____
ROOT
ATOM      1  C   UNL     1       0.097  -2.879   2.471  0.00  0.00    +0.247 C 
ATOM      2  O   UNL     1       0.214  -4.089   2.438  0.00  0.00    -0.270 OA
ATOM      3  N   UNL     1       0.020  -2.242   3.656  0.00  0.00    -0.297 N 
ATOM      4  C   UNL     1      -0.220  -0.793   3.713  0.00  0.00    +0.108 C 
ATOM      5  C   UNL     1       0.876  -0.145   4.563  0.00  0.00    +0.019 C 
ATOM      6  C   UNL     1       0.925  -0.828   5.932  0.00  0.00    +0.008 C 
ATOM      7  C   UNL     1       1.265  -2.309   5.753  0.00  0.00    +0.028 C 
ATOM      8  C   UNL     1       0.168  -2.983   4.916  0.00  0.00    +0.113 C 
ENDROOT
BRANCH   1  14
ATOM      9  C   UNL     1      -2.252   0.375  -0.494  0.00  0.00    +0.044 C 
ATOM     10  C   UNL     1      -1.089  -0.542  -0.219  0.00  0.00    -0.050 A 
ATOM     11  C   UNL     1      -0.071  -0.663  -1.149  0.00  0.00    +0.003 A 
ATOM     12  C   UNL     1       1.001  -1.503  -0.904  0.00  0.00    +0.004 A 
ATOM     13  C   UNL     1       1.062  -2.225   0.270  0.00  0.00    -0.038 A 
ATOM     14  C   UNL     1       0.038  -2.108   1.211  0.00  0.00    +0.040 A 
ATOM     15  C   UNL     1      -1.038  -1.254   0.961  0.00  0.00    +0.016 A 
ATOM     16  C   UNL     1       2.230  -3.140   0.534  0.00  0.00    +0.044 C 
ENDBRANCH   1  14
BRANCH   7  17
ATOM     17  C   UNL     1       1.347  -2.983   7.124  0.00  0.00    +0.150 C 
BRANCH  17  18
ATOM     18  N   UNL     1       1.789  -4.370   6.960  0.00  0.00    -0.251 N 
ATOM     19  C   UNL     1       2.848  -4.943   7.577  0.00  0.00    +0.132 A 
ATOM     20  C   UNL     1       2.891  -6.224   7.141  0.00  0.00    +0.071 A 
ATOM     21  N   UNL     1       1.869  -6.370   6.291  0.00  0.00    -0.136 NA
ATOM     22  N   UNL     1       1.232  -5.256   6.210  0.00  0.00    -0.065 NA
BRANCH  20  23
ATOM     23  C   UNL     1       3.894  -7.277   7.536  0.00  0.00    -0.030 C 
ATOM     24  C   UNL     1       3.573  -8.585   6.808  0.00  0.00    -0.004 C 
ATOM     25  C   UNL     1       5.300  -6.812   7.154  0.00  0.00    -0.004 C 
BRANCH  23  26
ATOM     26  N   UNL     1       3.828  -7.497   8.988  0.00  0.00    +0.385 N 
ATOM     27  H   UNL     1       2.900  -7.803   9.239  0.00  0.00    -0.089 HD
ATOM     28  H   UNL     1       4.499  -8.202   9.252  0.00  0.00    -0.089 HD
ATOM     29  H   UNL     1       4.039  -6.635   9.468  0.00  0.00    -0.089 HD
ENDBRANCH  23  26
ENDBRANCH  20  23
ENDBRANCH  17  18
ENDBRANCH   7  17
TORSDOF 5
