REMARK  Name = ZINC03442679
REMARK  11 active torsions:
REMARK  status: ('A' for Active; 'I' for Inactive)
REMARK    1  A    between atoms: C_1  and  C_2
REMARK    2  A    between atoms: C_2  and  O_3
REMARK    3  A    between atoms: O_3  and  C_4
REMARK    4  A    between atoms: C_4  and  C_6
REMARK    5  A    between atoms: C_7  and  C_28
REMARK    6  A    between atoms: C_10  and  N_11
REMARK    7  A    between atoms: C_12  and  C_14
REMARK    8  A    between atoms: C_14  and  S_15
REMARK    9  A    between atoms: S_15  and  C_16
REMARK   10  A    between atoms: C_19  and  C_22
REMARK   11  A    between atoms: N_20  and  N_21
REMARK                            x       y       z     vdW  Elec       q    Type
REMARK                         _______ _______ _______ _____ _____    ______ ____
ROOT
ATOM      1  N   UNL     1      -3.447   7.515  -1.554  0.00  0.00    -0.279 N 
ATOM      2  C   UNL     1      -3.729   8.810  -1.310  0.00  0.00    +0.228 C 
ATOM      3  O   UNL     1      -3.148   9.400  -0.423  0.00  0.00    -0.275 OA
ATOM      4  H   UNL     1      -3.912   7.043  -2.264  0.00  0.00    +0.155 HD
ENDROOT
BRANCH   1   9
ATOM      5  C   UNL     1      -2.073   5.538  -0.895  0.00  0.00    +0.096 A 
ATOM      6  C   UNL     1      -1.050   5.105   0.039  0.00  0.00    +0.012 A 
ATOM      7  C   UNL     1      -0.606   6.031   0.929  0.00  0.00    +0.057 A 
ATOM      8  S   UNL     1      -1.546   7.484   0.512  0.00  0.00    -0.080 S 
ATOM      9  C   UNL     1      -2.495   6.857  -0.793  0.00  0.00    +0.086 A 
BRANCH   6  10
ATOM     10  C   UNL     1      -0.523   3.725   0.027  0.00  0.00    +0.021 A 
ATOM     11  C   UNL     1       0.778   3.298   0.012  0.00  0.00    +0.016 A 
ATOM     12  C   UNL     1       1.031   1.943   0.003  0.00  0.00    +0.008 A 
ATOM     13  C   UNL     1      -0.013   1.076   0.008  0.00  0.00    +0.046 A 
ATOM     14  S   UNL     1      -1.416   2.179   0.019  0.00  0.00    -0.097 S 
ENDBRANCH   6  10
BRANCH   5  15
ATOM     15  C   UNL     1      -2.633   4.630  -1.895  0.00  0.00    +0.342 C 
ATOM     16  O   UNL     1      -3.613   3.960  -1.629  0.00  0.00    -0.245 OA
BRANCH  15  17
ATOM     17  O   UNL     1      -2.062   4.534  -3.114  0.00  0.00    -0.461 OA
BRANCH  17  19
ATOM     18  C   UNL     1      -1.881   3.656  -5.358  0.00  0.00    +0.048 C 
ATOM     19  C   UNL     1      -2.661   3.627  -4.042  0.00  0.00    +0.229 C 
ENDBRANCH  17  19
ENDBRANCH  15  17
ENDBRANCH   5  15
ENDBRANCH   1   9
BRANCH   2  20
ATOM     20  C   UNL     1      -4.765   9.526  -2.138  0.00  0.00    +0.173 C 
BRANCH  20  21
ATOM     21  S   UNL     1      -4.914  11.238  -1.570  0.00  0.00    -0.075 S 
BRANCH  21  22
ATOM     22  C   UNL     1      -6.154  11.821  -2.678  0.00  0.00    +0.209 A 
ATOM     23  N   UNL     1      -6.747  11.126  -3.621  0.00  0.00    -0.121 NA
ATOM     24  N   UNL     1      -7.598  11.866  -4.238  0.00  0.00    -0.132 NA
ATOM     25  C   UNL     1      -7.600  13.065  -3.729  0.00  0.00    +0.154 A 
ATOM     26  N   UNL     1      -6.685  13.078  -2.713  0.00  0.00    -0.228 N 
BRANCH  25  27
ATOM     27  C   UNL     1      -8.458  14.222  -4.174  0.00  0.00    +0.059 C 
ATOM     28  C   UNL     1      -9.934  13.851  -4.021  0.00  0.00    +0.011 C 
ATOM     29  C   UNL     1     -10.804  15.026  -4.472  0.00  0.00    +0.001 C 
ATOM     30  C   UNL     1     -10.508  15.346  -5.939  0.00  0.00    +0.000 C 
ATOM     31  C   UNL     1      -9.032  15.717  -6.091  0.00  0.00    +0.001 C 
ATOM     32  C   UNL     1      -8.162  14.542  -5.640  0.00  0.00    +0.011 C 
ENDBRANCH  25  27
BRANCH  26  33
ATOM     33  N   UNL     1      -6.366  14.131  -1.904  0.00  0.00    -0.295 N 
ATOM     34  H   UNL     1      -5.613  14.675  -2.299  0.00  0.00    +0.163 HD
ATOM     35  H   UNL     1      -7.174  14.708  -1.726  0.00  0.00    +0.163 HD
ENDBRANCH  26  33
ENDBRANCH  21  22
ENDBRANCH  20  21
ENDBRANCH   2  20
TORSDOF 10
