REMARK  Name = ZINC00495966
REMARK  5 active torsions:
REMARK  status: ('A' for Active; 'I' for Inactive)
REMARK    1  A    between atoms: C_3  and  N_19
REMARK    2  A    between atoms: C_6  and  C_7
REMARK    3  A    between atoms: C_7  and  C_17
REMARK    4  A    between atoms: C_8  and  C_9
REMARK    5  A    between atoms: C_14  and  O_15
REMARK                            x       y       z     vdW  Elec       q    Type
REMARK                         _______ _______ _______ _____ _____    ______ ____
ROOT
ATOM      1  C   UNL     1      -0.015   1.425  -0.037  0.00  0.00    +0.060 C 
ATOM      2  C   UNL     1       1.152   2.124   0.003  0.00  0.00    +0.031 C 
ENDROOT
BRANCH   2   3
ATOM      3  C   UNL     1       2.431   1.412   0.097  0.00  0.00    +0.019 A 
ATOM      4  C   UNL     1       2.585   0.158  -0.506  0.00  0.00    +0.026 A 
ATOM      5  C   UNL     1       3.792  -0.503  -0.416  0.00  0.00    +0.019 A 
ATOM      6  C   UNL     1       4.850   0.063   0.278  0.00  0.00    +0.019 A 
ATOM      7  C   UNL     1       4.710   1.298   0.882  0.00  0.00    +0.047 A 
ATOM      8  C   UNL     1       3.507   1.981   0.799  0.00  0.00    +0.124 A 
ATOM      9 BR   UNL     1       4.002  -2.193  -1.238  0.00  0.00    -0.050 Br
BRANCH   8  10
ATOM     10  O   UNL     1       3.369   3.194   1.392  0.00  0.00    -0.506 OA
ATOM     11  H   UNL     1       3.054   3.151   2.305  0.00  0.00    +0.292 HD
ENDBRANCH   8  10
ENDBRANCH   2   3
BRANCH   1  17
ATOM     12  C   UNL     1      -1.780   3.052   0.638  0.00  0.00    +0.011 A 
ATOM     13  C   UNL     1      -2.968   3.709   0.394  0.00  0.00    +0.033 A 
ATOM     14  C   UNL     1      -3.682   3.449  -0.762  0.00  0.00    +0.126 A 
ATOM     15  C   UNL     1      -3.206   2.533  -1.684  0.00  0.00    +0.033 A 
ATOM     16  C   UNL     1      -2.017   1.873  -1.454  0.00  0.00    +0.011 A 
ATOM     17  C   UNL     1      -1.293   2.131  -0.290  0.00  0.00    -0.008 A 
BRANCH  14  18
ATOM     18  N   UNL     1      -4.959   4.154  -1.015  0.00  0.00    +0.056 N 
ATOM     19  O   UNL     1      -5.588   3.927  -2.033  0.00  0.00    -0.126 OA
ATOM     20  O   UNL     1      -5.380   4.960  -0.205  0.00  0.00    -0.126 OA
ENDBRANCH  14  18
ENDBRANCH   1  17
BRANCH   1  21
ATOM     21  C   UNL     1      -0.007   0.007   0.160  0.00  0.00    +0.100 C 
ATOM     22  N   UNL     1      -0.001  -1.118   0.316  0.00  0.00    -0.191 NA
ENDBRANCH   1  21
TORSDOF 5
