REMARK  Name = ZINC45485113
REMARK  9 active torsions:
REMARK  status: ('A' for Active; 'I' for Inactive)
REMARK    1  A    between atoms: C_1  and  C_2
REMARK    2  A    between atoms: C_11  and  N_32
REMARK    3  A    between atoms: C_13  and  S_15
REMARK    4  A    between atoms: S_15  and  C_16
REMARK    5  A    between atoms: C_16  and  C_18
REMARK    6  A    between atoms: C_16  and  C_19
REMARK    7  A    between atoms: N_21  and  C_22
REMARK    8  A    between atoms: C_27  and  O_28
REMARK    9  A    between atoms: O_28  and  C_29
REMARK                            x       y       z     vdW  Elec       q    Type
REMARK                         _______ _______ _______ _____ _____    ______ ____
ROOT
ATOM      1  C   UNL     1      -0.356   2.008  -0.120  0.00  0.00    +0.008 C 
ATOM      2  C   UNL     1      -0.264   0.482  -0.081  0.00  0.00    -0.009 C 
ATOM      3  C   UNL     1      -1.672  -0.117  -0.010  0.00  0.00    +0.008 C 
ATOM      4  C   UNL     1      -1.603  -1.629  -0.218  0.00  0.00    +0.037 C 
ATOM      5  C   UNL     1      -0.592  -2.219   0.762  0.00  0.00    -0.025 A 
ATOM      6  C   UNL     1       0.333  -1.429   1.352  0.00  0.00    -0.004 A 
ATOM      7  S   UNL     1       1.279  -2.514   2.392  0.00  0.00    -0.073 S 
ATOM      8  C   UNL     1       0.435  -4.022   2.037  0.00  0.00    +0.115 A 
ATOM      9  C   UNL     1      -0.565  -3.630   1.112  0.00  0.00    +0.051 A 
ATOM     10  C   UNL     1      -1.431  -4.652   0.626  0.00  0.00    +0.129 A 
ATOM     11  N   UNL     1      -1.209  -5.877   1.096  0.00  0.00    -0.207 NA
ATOM     12  C   UNL     1      -0.252  -6.173   1.963  0.00  0.00    +0.192 A 
ATOM     13  N   UNL     1       0.591  -5.262   2.455  0.00  0.00    -0.214 NA
ATOM     14  C   UNL     1       0.522   0.045   1.164  0.00  0.00    +0.046 C 
ENDROOT
BRANCH  10  15
ATOM     15  N   UNL     1      -2.443  -4.386  -0.279  0.00  0.00    -0.343 N 
ATOM     16  H   UNL     1      -2.381  -3.614  -0.863  0.00  0.00    +0.144 HD
ATOM     17  H   UNL     1      -3.214  -4.972  -0.330  0.00  0.00    +0.144 HD
ENDBRANCH  10  15
BRANCH  12  18
ATOM     18  S   UNL     1      -0.085  -7.845   2.491  0.00  0.00    -0.073 S 
BRANCH  18  19
ATOM     19  C   UNL     1      -1.399  -8.721   1.599  0.00  0.00    +0.137 C 
ATOM     20  C   UNL     1      -2.762  -8.215   2.073  0.00  0.00    +0.029 C 
BRANCH  19  21
ATOM     21  C   UNL     1      -1.290 -10.200   1.869  0.00  0.00    +0.230 C 
ATOM     22  O   UNL     1      -0.759 -10.593   2.886  0.00  0.00    -0.274 OA
ATOM     23  N   UNL     1      -1.783 -11.085   0.980  0.00  0.00    -0.282 N 
ATOM     24  H   UNL     1      -2.132 -10.775   0.130  0.00  0.00    +0.155 HD
BRANCH  23  25
ATOM     25  C   UNL     1      -1.792 -12.453   1.285  0.00  0.00    +0.076 A 
ATOM     26  C   UNL     1      -1.985 -12.872   2.593  0.00  0.00    +0.027 A 
ATOM     27  C   UNL     1      -1.994 -14.222   2.891  0.00  0.00    +0.002 A 
ATOM     28  C   UNL     1      -1.810 -15.156   1.888  0.00  0.00    +0.004 A 
ATOM     29  C   UNL     1      -1.617 -14.745   0.583  0.00  0.00    +0.048 A 
ATOM     30  C   UNL     1      -1.613 -13.394   0.275  0.00  0.00    +0.148 A 
BRANCH  30  31
ATOM     31  O   UNL     1      -1.429 -12.989  -1.010  0.00  0.00    -0.432 OA
BRANCH  31  32
ATOM     32  C   UNL     1      -1.251 -14.010  -1.994  0.00  0.00    +0.541 C 
ATOM     33  F   UNL     1      -0.123 -14.774  -1.675  0.00  0.00    -0.166 F 
ATOM     34  F   UNL     1      -2.381 -14.836  -2.018  0.00  0.00    -0.166 F 
ENDBRANCH  31  32
ENDBRANCH  30  31
ENDBRANCH  23  25
ENDBRANCH  19  21
ENDBRANCH  18  19
ENDBRANCH  12  18
TORSDOF 7
