REMARK  Name = ZINC36206549
REMARK  13 active torsions:
REMARK  status: ('A' for Active; 'I' for Inactive)
REMARK    1  A    between atoms: C_1  and  C_2
REMARK    2  A    between atoms: C_2  and  C_3
REMARK    3  A    between atoms: C_2  and  N_4
REMARK    4  A    between atoms: N_4  and  C_5
REMARK    5  A    between atoms: N_4  and  C_25
REMARK    6  A    between atoms: C_5  and  C_6
REMARK    7  A    between atoms: C_12  and  C_17
REMARK    8  A    between atoms: C_22  and  O_23
REMARK    9  A    between atoms: O_23  and  C_24
REMARK   10  A    between atoms: C_25  and  C_26
REMARK   11  A    between atoms: C_26  and  C_28
REMARK   12  A    between atoms: C_26  and  O_35
REMARK   13  A    between atoms: C_28  and  C_29
REMARK                            x       y       z     vdW  Elec       q    Type
REMARK                         _______ _______ _______ _____ _____    ______ ____
ROOT
ATOM      1  C   UNL     1      -0.942  -1.958  -1.113  0.00  0.00    +0.094 A 
ATOM      2  N   UNL     1      -1.444  -3.220  -1.078  0.00  0.00    -0.312 N 
ATOM      3  H   UNL     1      -0.834  -3.974  -1.065  0.00  0.00    +0.170 HD
ATOM      4  C   UNL     1      -2.771  -3.444  -1.061  0.00  0.00    +0.260 A 
ATOM      5  O   UNL     1      -3.205  -4.583  -1.029  0.00  0.00    -0.267 OA
ATOM      6  C   UNL     1      -3.664  -2.326  -1.079  0.00  0.00    +0.080 A 
ATOM      7  C   UNL     1      -5.122  -2.309  -1.066  0.00  0.00    +0.007 A 
ATOM      8  C   UNL     1      -5.760  -1.114  -1.088  0.00  0.00    +0.056 A 
ATOM      9  S   UNL     1      -4.425   0.066  -1.129  0.00  0.00    -0.076 S 
ATOM     10  C   UNL     1      -3.054  -1.061  -1.115  0.00  0.00    +0.116 A 
ATOM     11  N   UNL     1      -1.732  -0.918  -1.126  0.00  0.00    -0.229 NA
ENDROOT
BRANCH   7  12
ATOM     12  C   UNL     1      -5.891  -3.575  -1.029  0.00  0.00    +0.025 A 
ATOM     13  C   UNL     1      -6.696  -3.938  -2.107  0.00  0.00    +0.012 A 
ATOM     14  C   UNL     1      -7.410  -5.118  -2.068  0.00  0.00    +0.001 A 
ATOM     15  C   UNL     1      -7.330  -5.944  -0.961  0.00  0.00    +0.004 A 
ATOM     16  C   UNL     1      -6.535  -5.594   0.115  0.00  0.00    +0.046 A 
ATOM     17  C   UNL     1      -5.809  -4.415   0.086  0.00  0.00    +0.128 A 
BRANCH  17  18
ATOM     18  O   UNL     1      -5.023  -4.073   1.141  0.00  0.00    -0.495 OA
ATOM     19  C   UNL     1      -4.988  -4.980   2.245  0.00  0.00    +0.277 C 
ENDBRANCH  17  18
ENDBRANCH   7  12
BRANCH   1  20
ATOM     20  C   UNL     1       0.551  -1.755  -1.131  0.00  0.00    -0.003 C 
BRANCH  20  21
ATOM     21  N   UNL     1       0.852  -0.324  -0.995  0.00  0.00    +0.388 N 
ATOM     22  H   UNL     1       0.158   0.214  -1.492  0.00  0.00    -0.081 HD
BRANCH  21  24
ATOM     23  C   UNL     1      -0.536  -0.281   1.022  0.00  0.00    -0.014 C 
ATOM     24  C   UNL     1       0.834   0.048   0.426  0.00  0.00    -0.074 C 
ATOM     25  C   UNL     1       1.916  -0.737   1.171  0.00  0.00    -0.014 C 
ENDBRANCH  21  24
BRANCH  21  26
ATOM     26  C   UNL     1       2.181  -0.048  -1.557  0.00  0.00    -0.046 C 
BRANCH  26  27
ATOM     27  C   UNL     1       2.412   1.464  -1.602  0.00  0.00    +0.102 C 
BRANCH  27  28
ATOM     28  O   UNL     1       2.504   1.972  -0.270  0.00  0.00    -0.393 OA
ATOM     29  H   UNL     1       3.277   1.656   0.218  0.00  0.00    +0.210 HD
ENDBRANCH  27  28
BRANCH  27  30
ATOM     30  C   UNL     1       3.712   1.759  -2.353  0.00  0.00    +0.064 C 
BRANCH  30  31
ATOM     31  C   UNL     1       3.877   3.250  -2.504  0.00  0.00    -0.045 A 
ATOM     32  C   UNL     1       3.357   3.893  -3.611  0.00  0.00    +0.004 A 
ATOM     33  C   UNL     1       3.508   5.260  -3.751  0.00  0.00    +0.000 A 
ATOM     34  C   UNL     1       4.179   5.984  -2.782  0.00  0.00    +0.000 A 
ATOM     35  C   UNL     1       4.699   5.340  -1.675  0.00  0.00    +0.000 A 
ATOM     36  C   UNL     1       4.543   3.974  -1.533  0.00  0.00    +0.004 A 
ENDBRANCH  30  31
ENDBRANCH  27  30
ENDBRANCH  26  27
ENDBRANCH  21  26
ENDBRANCH  20  21
ENDBRANCH   1  20
TORSDOF 10
