REMARK  Name = ZINC09187148
REMARK  10 active torsions:
REMARK  status: ('A' for Active; 'I' for Inactive)
REMARK    1  A    between atoms: C_1  and  C_2
REMARK    2  A    between atoms: C_11  and  O_14
REMARK    3  A    between atoms: C_12  and  C_13
REMARK    4  A    between atoms: O_14  and  C_15
REMARK    5  A    between atoms: C_15  and  C_17
REMARK    6  A    between atoms: C_15  and  C_18
REMARK    7  A    between atoms: N_20  and  C_21
REMARK    8  A    between atoms: C_21  and  C_22
REMARK    9  A    between atoms: C_25  and  S_28
REMARK   10  A    between atoms: S_28  and  N_31
REMARK                            x       y       z     vdW  Elec       q    Type
REMARK                         _______ _______ _______ _____ _____    ______ ____
ROOT
ATOM      1  C   UNL     1      -4.645   3.729  -0.847  0.00  0.00    +0.254 C 
ATOM      2  O   UNL     1      -4.405   4.836  -1.279  0.00  0.00    -0.272 OA
ATOM      3  N   UNL     1      -5.847   3.163  -1.074  0.00  0.00    -0.308 N 
ATOM      4  H   UNL     1      -6.039   2.277  -0.728  0.00  0.00    +0.149 HD
ENDROOT
BRANCH   1   5
ATOM      5  C   UNL     1      -3.599   2.985  -0.057  0.00  0.00    +0.255 C 
ATOM      6  C   UNL     1      -4.136   2.685   1.344  0.00  0.00    +0.062 C 
BRANCH   5   7
ATOM      7  O   UNL     1      -2.421   3.788   0.047  0.00  0.00    -0.480 OA
BRANCH   7  18
ATOM      8  C   UNL     1       2.447  -0.391   1.113  0.00  0.00    +0.045 C 
ATOM      9  C   UNL     1       2.406   1.097   0.877  0.00  0.00    -0.033 A 
ATOM     10  C   UNL     1       3.548   1.833   0.857  0.00  0.00    +0.096 A 
ATOM     11  C   UNL     1       3.483   3.223   0.635  0.00  0.00    +0.337 A 
ATOM     12  O   UNL     1       4.514   3.871   0.621  0.00  0.00    -0.245 OA
ATOM     13  O   UNL     1       2.313   3.852   0.438  0.00  0.00    -0.422 OA
ATOM     14  C   UNL     1       1.142   3.180   0.444  0.00  0.00    +0.146 A 
ATOM     15  C   UNL     1       1.133   1.789   0.661  0.00  0.00    +0.021 A 
ATOM     16  C   UNL     1      -0.078   1.089   0.667  0.00  0.00    +0.015 A 
ATOM     17  C   UNL     1      -1.249   1.758   0.457  0.00  0.00    +0.047 A 
ATOM     18  C   UNL     1      -1.247   3.136   0.248  0.00  0.00    +0.128 A 
ATOM     19  C   UNL     1      -0.057   3.845   0.238  0.00  0.00    +0.034 A 
ATOM     20  C   UNL     1      -0.066   5.334   0.006  0.00  0.00    +0.051 C 
ENDBRANCH   7  18
ENDBRANCH   5   7
ENDBRANCH   1   5
BRANCH   3  21
ATOM     21  C   UNL     1      -6.864   3.885  -1.842  0.00  0.00    +0.139 C 
BRANCH  21  22
ATOM     22  C   UNL     1      -8.106   3.039  -1.952  0.00  0.00    -0.030 A 
ATOM     23  C   UNL     1      -8.259   2.170  -3.016  0.00  0.00    +0.007 A 
ATOM     24  C   UNL     1      -9.397   1.391  -3.114  0.00  0.00    +0.029 A 
ATOM     25  C   UNL     1     -10.386   1.488  -2.152  0.00  0.00    +0.105 A 
ATOM     26  C   UNL     1     -10.235   2.361  -1.091  0.00  0.00    +0.029 A 
ATOM     27  C   UNL     1      -9.095   3.137  -0.991  0.00  0.00    +0.007 A 
BRANCH  25  28
ATOM     28  S   UNL     1     -11.838   0.498  -2.279  0.00  0.00    +0.056 S 
ATOM     29  O   UNL     1     -11.491  -0.631  -3.069  0.00  0.00    -0.153 OA
ATOM     30  O   UNL     1     -12.363   0.377  -0.964  0.00  0.00    -0.153 OA
BRANCH  28  31
ATOM     31  N   UNL     1     -12.946   1.365  -3.153  0.00  0.00    -0.204 NA
ATOM     32  H   UNL     1     -12.720   2.248  -3.483  0.00  0.00    +0.144 HD
ATOM     33  H   UNL     1     -13.821   0.988  -3.335  0.00  0.00    +0.144 HD
ENDBRANCH  28  31
ENDBRANCH  25  28
ENDBRANCH  21  22
ENDBRANCH   3  21
TORSDOF 7
