REMARK  Name = ZINC38511213
REMARK  4 active torsions:
REMARK  status: ('A' for Active; 'I' for Inactive)
REMARK    1  A    between atoms: C_11  and  N_18
REMARK    2  A    between atoms: C_19  and  C_21
REMARK    3  A    between atoms: N_26  and  S_27
REMARK    4  A    between atoms: S_27  and  C_30
REMARK                            x       y       z     vdW  Elec       q    Type
REMARK                         _______ _______ _______ _____ _____    ______ ____
ROOT
ATOM      1  N   UNL     1       5.509  -3.748   0.761  0.00  0.00    -0.269 N 
ATOM      2  C   UNL     1       5.480  -2.455   0.380  0.00  0.00    +0.237 C 
ATOM      3  O   UNL     1       4.430  -1.941   0.060  0.00  0.00    -0.274 OA
ATOM      4  H   UNL     1       6.336  -4.141   1.081  0.00  0.00    +0.156 HD
ENDROOT
BRANCH   1  15
ATOM      5  C   UNL     1       7.911 -10.731   0.062  0.00  0.00    +0.002 A 
ATOM      6  C   UNL     1       9.063  -9.958   0.017  0.00  0.00    +0.001 A 
ATOM      7  C   UNL     1       8.957  -8.581   0.088  0.00  0.00    +0.017 A 
ATOM      8  C   UNL     1       7.718  -8.002   0.202  0.00  0.00    +0.041 A 
ATOM      9  C   UNL     1       6.524  -8.757   0.252  0.00  0.00    +0.081 A 
ATOM     10  C   UNL     1       6.670 -10.162   0.176  0.00  0.00    +0.029 A 
ATOM     11  N   UNL     1       5.384  -8.043   0.366  0.00  0.00    -0.221 NA
ATOM     12  C   UNL     1       5.376  -6.732   0.428  0.00  0.00    +0.196 A 
ATOM     13  S   UNL     1       7.115  -6.335   0.323  0.00  0.00    -0.048 S 
ATOM     14  N   UNL     1       4.290  -5.872   0.545  0.00  0.00    -0.193 N 
ATOM     15  C   UNL     1       4.351  -4.519   0.696  0.00  0.00    +0.134 A 
ATOM     16  C   UNL     1       3.071  -4.060   0.771  0.00  0.00    +0.016 A 
ATOM     17  C   UNL     1       2.212  -5.158   0.663  0.00  0.00    +0.069 A 
ATOM     18  N   UNL     1       2.940  -6.240   0.523  0.00  0.00    -0.168 NA
ATOM     19  C   UNL     1       0.776  -4.686   0.743  0.00  0.00    +0.058 C 
ATOM     20  C   UNL     1       0.849  -3.267   1.345  0.00  0.00    +0.011 C 
ATOM     21  C   UNL     1       2.257  -2.794   0.928  0.00  0.00    +0.041 C 
ENDBRANCH   1  15
BRANCH   2  22
ATOM     22  C   UNL     1       6.753  -1.649   0.353  0.00  0.00    +0.166 C 
ATOM     23  C   UNL     1       7.493  -1.881  -0.982  0.00  0.00    +0.031 C 
ATOM     24  C   UNL     1       7.055  -0.663  -1.838  0.00  0.00    +0.019 C 
ATOM     25  C   UNL     1       6.968   0.454  -0.768  0.00  0.00    +0.110 C 
ATOM     26  N   UNL     1       6.439  -0.215   0.438  0.00  0.00    -0.165 NA
BRANCH  26  27
ATOM     27  S   UNL     1       5.627   0.523   1.678  0.00  0.00    +0.062 S 
ATOM     28  O   UNL     1       4.998   1.671   1.125  0.00  0.00    -0.153 OA
ATOM     29  O   UNL     1       4.897  -0.496   2.349  0.00  0.00    -0.153 OA
BRANCH  27  30
ATOM     30  C   UNL     1       6.836   1.109   2.817  0.00  0.00    +0.106 A 
ATOM     31  C   UNL     1       7.266   0.295   3.849  0.00  0.00    +0.031 A 
ATOM     32  C   UNL     1       8.214   0.754   4.743  0.00  0.00    +0.040 A 
ATOM     33  C   UNL     1       8.735   2.030   4.605  0.00  0.00    +0.124 A 
ATOM     34  C   UNL     1       8.304   2.844   3.572  0.00  0.00    +0.040 A 
ATOM     35  C   UNL     1       7.359   2.381   2.676  0.00  0.00    +0.031 A 
ATOM     36  F   UNL     1       9.662   2.479   5.479  0.00  0.00    -0.205 F 
ENDBRANCH  27  30
ENDBRANCH  26  27
ENDBRANCH   2  22
TORSDOF 4
