REMARK  Name = ZINC02115928
REMARK  10 active torsions:
REMARK  status: ('A' for Active; 'I' for Inactive)
REMARK    1  A    between atoms: C_1  and  C_2
REMARK    2  A    between atoms: C_2  and  C_3
REMARK    3  A    between atoms: C_12  and  O_15
REMARK    4  A    between atoms: C_13  and  C_14
REMARK    5  A    between atoms: O_15  and  C_16
REMARK    6  A    between atoms: C_16  and  C_17
REMARK    7  A    between atoms: N_19  and  CA_20
REMARK    8  A    between atoms: CA_20  and  C_22
REMARK    9  A    between atoms: CA_20  and  C_30
REMARK   10  A    between atoms: C_22  and  C_23
REMARK                            x       y       z     vdW  Elec       q    Type
REMARK                         _______ _______ _______ _____ _____    ______ ____
ROOT
ATOM      1  C   UNL     1      -5.694   5.207  -2.123  0.00  0.00    +0.324 C 
ENDROOT
BRANCH   1   2
ATOM      2  C   UNL     1      -6.670   6.145  -2.786  0.00  0.00    +0.251 C 
ATOM      3  O   UNL     1      -6.531   7.344  -2.672  0.00  0.00    -0.272 OA
ATOM      4  N   UNL     1      -7.696   5.650  -3.506  0.00  0.00    -0.299 N 
ATOM      5  H   UNL     1      -7.806   4.691  -3.598  0.00  0.00    +0.150 HD
BRANCH   4   6
ATOM      6  CA  UNL     1      -8.645   6.562  -4.151  0.00  0.00    +0.191 C 
BRANCH   6   7
ATOM      7  C   UNL     1      -9.714   6.953  -3.164  0.00  0.00    +0.376 C 
ATOM      8  O   UNL     1      -9.687   6.516  -2.038  0.00  0.00    -0.244 OA
ATOM      9  OXT UNL     1     -10.698   7.788  -3.537  0.00  0.00    -0.244 OA
ENDBRANCH   6   7
BRANCH   6  10
ATOM     10  C   UNL     1      -9.288   5.863  -5.350  0.00  0.00    +0.069 C 
BRANCH  10  11
ATOM     11  C   UNL     1      -8.236   5.581  -6.392  0.00  0.00    -0.045 A 
ATOM     12  C   UNL     1      -7.972   6.514  -7.377  0.00  0.00    +0.005 A 
ATOM     13  C   UNL     1      -7.003   6.259  -8.329  0.00  0.00    +0.020 A 
ATOM     14  C   UNL     1      -6.305   5.064  -8.302  0.00  0.00    +0.041 A 
ATOM     15  C   UNL     1      -6.574   4.129  -7.319  0.00  0.00    +0.020 A 
ATOM     16  C   UNL     1      -7.539   4.388  -6.364  0.00  0.00    +0.005 A 
ATOM     17 CL   UNL     1      -5.092   4.740  -9.501  0.00  0.00    -0.084 Cl
ENDBRANCH  10  11
ENDBRANCH   6  10
ENDBRANCH   4   6
ENDBRANCH   1   2
BRANCH   1  18
ATOM     18  O   UNL     1      -4.704   5.966  -1.425  0.00  0.00    -0.482 OA
BRANCH  18  28
ATOM     19  C   UNL     1      -0.749   3.086   1.275  0.00  0.00    -0.030 A 
ATOM     20  C   UNL     1       0.202   3.793   1.938  0.00  0.00    +0.096 A 
ATOM     21  C   UNL     1       0.161   5.202   1.931  0.00  0.00    +0.337 A 
ATOM     22  O   UNL     1       1.021   5.824   2.530  0.00  0.00    -0.245 OA
ATOM     23  O   UNL     1      -0.800   5.877   1.282  0.00  0.00    -0.422 OA
ATOM     24  C   UNL     1      -1.776   5.235   0.603  0.00  0.00    +0.146 A 
ATOM     25  C   UNL     1      -1.792   3.828   0.563  0.00  0.00    +0.021 A 
ATOM     26  C   UNL     1      -2.797   3.159  -0.144  0.00  0.00    +0.015 A 
ATOM     27  C   UNL     1      -3.757   3.875  -0.799  0.00  0.00    +0.047 A 
ATOM     28  C   UNL     1      -3.743   5.268  -0.768  0.00  0.00    +0.128 A 
ATOM     29  C   UNL     1      -2.761   5.947  -0.063  0.00  0.00    +0.034 A 
ATOM     30  C   UNL     1      -2.755   7.453  -0.036  0.00  0.00    +0.051 C 
BRANCH  19  32
ATOM     31  C   UNL     1      -0.013   1.086   0.008  0.00  0.00    +0.009 C 
ATOM     32  C   UNL     1      -0.729   1.579   1.267  0.00  0.00    +0.033 C 
ENDBRANCH  19  32
ENDBRANCH  18  28
ENDBRANCH   1  18
TORSDOF 8
