REMARK  Name = ZINC22911704
REMARK  7 active torsions:
REMARK  status: ('A' for Active; 'I' for Inactive)
REMARK    1  A    between atoms: C_8  and  C_10
REMARK    2  A    between atoms: C_10  and  N_11
REMARK    3  A    between atoms: C_18  and  C_22
REMARK    4  A    between atoms: C_22  and  N_23
REMARK    5  A    between atoms: N_26  and  C_29
REMARK    6  A    between atoms: C_29  and  C_30
REMARK    7  A    between atoms: C_30  and  O_31
REMARK                            x       y       z     vdW  Elec       q    Type
REMARK                         _______ _______ _______ _____ _____    ______ ____
ROOT
ATOM      1  N   UNL     1      -1.267  -1.641   2.877  0.00  0.00    +0.389 N 
ATOM      2  C   UNL     1      -0.334  -2.321   3.772  0.00  0.00    -0.036 C 
ATOM      3  C   UNL     1      -0.687  -2.181   5.237  0.00  0.00    +0.210 C 
ATOM      4  O   UNL     1      -1.929  -2.835   5.525  0.00  0.00    -0.494 OA
ATOM      5  C   UNL     1      -3.045  -2.089   5.306  0.00  0.00    +0.122 A 
ATOM      6  C   UNL     1      -3.804  -1.637   6.376  0.00  0.00    +0.046 A 
ATOM      7  C   UNL     1      -4.907  -0.837   6.144  0.00  0.00    +0.005 A 
ATOM      8  C   UNL     1      -5.254  -0.488   4.852  0.00  0.00    -0.064 A 
ATOM      9  C   UNL     1      -4.503  -0.947   3.784  0.00  0.00    +0.007 A 
ATOM     10  C   UNL     1      -3.407  -1.752   4.015  0.00  0.00    -0.022 A 
ATOM     11  C   UNL     1      -2.588  -2.278   2.852  0.00  0.00    -0.039 C 
ATOM     12  H   UNL     1      -1.408  -0.630   3.285  0.00  0.00    -0.081 HD
ENDROOT
BRANCH   1  13
ATOM     13  C   UNL     1      -0.710  -1.530   1.523  0.00  0.00    -0.003 C 
BRANCH  13  21
ATOM     14  C   UNL     1       4.515   1.551   1.738  0.00  0.00    +0.001 A 
ATOM     15  C   UNL     1       3.672   2.629   1.507  0.00  0.00    +0.004 A 
ATOM     16  C   UNL     1       2.313   2.442   1.373  0.00  0.00    +0.047 A 
ATOM     17  C   UNL     1       1.778   1.164   1.472  0.00  0.00    +0.135 A 
ATOM     18  C   UNL     1       2.637   0.077   1.706  0.00  0.00    +0.020 A 
ATOM     19  C   UNL     1       4.009   0.285   1.838  0.00  0.00    +0.011 A 
ATOM     20  C   UNL     1       1.769  -1.105   1.754  0.00  0.00    +0.051 A 
ATOM     21  C   UNL     1       0.520  -0.661   1.555  0.00  0.00    +0.090 A 
ATOM     22  O   UNL     1       0.525   0.673   1.389  0.00  0.00    -0.462 OA
ENDBRANCH  13  21
ENDBRANCH   1  13
BRANCH   8  23
ATOM     23  C   UNL     1      -6.451   0.394   4.606  0.00  0.00    -0.043 C 
BRANCH  23  24
ATOM     24  N   UNL     1      -6.032   1.802   4.612  0.00  0.00    +0.384 N 
ATOM     25  C   UNL     1      -5.570   2.208   5.947  0.00  0.00    -0.063 C 
ATOM     26  C   UNL     1      -5.069   3.653   5.892  0.00  0.00    +0.066 C 
ATOM     27  N   UNL     1      -6.154   4.527   5.424  0.00  0.00    -0.304 NA
ATOM     28  C   UNL     1      -6.615   4.121   4.090  0.00  0.00    +0.066 C 
ATOM     29  C   UNL     1      -7.117   2.676   4.144  0.00  0.00    -0.063 C 
ATOM     30  H   UNL     1      -5.188   1.905   3.914  0.00  0.00    -0.081 HD
BRANCH  27  31
ATOM     31  C   UNL     1      -5.734   5.935   5.430  0.00  0.00    +0.112 C 
BRANCH  31  32
ATOM     32  C   UNL     1      -6.971   6.836   5.419  0.00  0.00    +0.171 C 
BRANCH  32  33
ATOM     33  O   UNL     1      -7.708   6.649   6.629  0.00  0.00    -0.394 OA
ATOM     34  H   UNL     1      -8.635   7.215   6.802  0.00  0.00    +0.209 HD
ENDBRANCH  32  33
ENDBRANCH  31  32
ENDBRANCH  27  31
ENDBRANCH  23  24
ENDBRANCH   8  23
TORSDOF 7
