REMARK  Name = ZINC17860559
REMARK  3 active torsions:
REMARK  status: ('A' for Active; 'I' for Inactive)
REMARK    1  A    between atoms: C_4  and  C_7
REMARK    2  A    between atoms: C_10  and  C_20
REMARK    3  A    between atoms: C_24  and  N_26
REMARK                            x       y       z     vdW  Elec       q    Type
REMARK                         _______ _______ _______ _____ _____    ______ ____
ROOT
ATOM      1  C   UNL     1       3.358  -0.639  -0.087  0.00  0.00    +0.108 C 
ATOM      2  C   UNL     1       3.889  -0.844   1.320  0.00  0.00    +0.083 C 
ATOM      3  C   UNL     1       3.019  -1.760   2.108  0.00  0.00    +0.052 C 
ATOM      4  N   UNL     1       2.389  -2.772   1.706  0.00  0.00    -0.243 NA
ATOM      5  C   UNL     1       2.175  -3.379   0.533  0.00  0.00    +0.168 A 
ATOM      6  C   UNL     1       2.661  -2.955  -0.702  0.00  0.00    +0.152 A 
ATOM      7  N   UNL     1       2.351  -3.660  -1.808  0.00  0.00    -0.221 NA
ATOM      8  C   UNL     1       1.617  -4.734  -1.765  0.00  0.00    +0.201 A 
ATOM      9  N   UNL     1       1.123  -5.205  -0.603  0.00  0.00    -0.312 N 
ATOM     10  C   UNL     1       1.376  -4.563   0.551  0.00  0.00    +0.279 A 
ATOM     11  O   UNL     1       0.928  -4.987   1.603  0.00  0.00    -0.265 OA
ATOM     12  N   UNL     1       3.454  -1.854  -0.864  0.00  0.00    -0.320 N 
ATOM     13  H   UNL     1       4.132  -1.891  -1.556  0.00  0.00    +0.148 HD
ATOM     14  H   UNL     1       0.581  -6.010  -0.600  0.00  0.00    +0.170 HD
ENDROOT
BRANCH   1  18
ATOM     15  C   UNL     1      -0.734   0.571   0.121  0.00  0.00    +0.000 A 
ATOM     16  C   UNL     1       0.130   0.872   1.157  0.00  0.00    +0.000 A 
ATOM     17  C   UNL     1       1.454   0.480   1.090  0.00  0.00    +0.005 A 
ATOM     18  C   UNL     1       1.914  -0.213  -0.014  0.00  0.00    -0.027 A 
ATOM     19  C   UNL     1       1.050  -0.515  -1.050  0.00  0.00    +0.005 A 
ATOM     20  C   UNL     1      -0.273  -0.122  -0.983  0.00  0.00    +0.000 A 
ENDBRANCH   1  18
BRANCH   3  21
ATOM     21  C   UNL     1       2.879  -1.442   3.538  0.00  0.00    -0.002 A 
ATOM     22  C   UNL     1       3.666  -0.441   4.116  0.00  0.00    +0.010 A 
ATOM     23  C   UNL     1       3.528  -0.148   5.456  0.00  0.00    +0.003 A 
ATOM     24  C   UNL     1       2.614  -0.842   6.230  0.00  0.00    +0.033 A 
ATOM     25  C   UNL     1       1.832  -1.835   5.666  0.00  0.00    +0.127 A 
ATOM     26  C   UNL     1       1.954  -2.134   4.325  0.00  0.00    +0.042 A 
BRANCH  25  27
ATOM     27  N   UNL     1       0.858  -2.572   6.502  0.00  0.00    +0.056 N 
ATOM     28  O   UNL     1       0.747  -2.307   7.676  0.00  0.00    -0.126 OA
ATOM     29  O   UNL     1       0.174  -3.439   6.010  0.00  0.00    -0.126 OA
ENDBRANCH  25  27
ENDBRANCH   3  21
TORSDOF 3
