REMARK  Name = ZINC63515106
REMARK  9 active torsions:
REMARK  status: ('A' for Active; 'I' for Inactive)
REMARK    1  A    between atoms: C_1  and  C_2
REMARK    2  A    between atoms: C_2  and  C_4
REMARK    3  A    between atoms: C_6  and  N_18
REMARK    4  A    between atoms: N_9  and  C_11
REMARK    5  A    between atoms: N_18  and  C_19
REMARK    6  A    between atoms: C_19  and  C_20
REMARK    7  A    between atoms: C_20  and  C_21
REMARK    8  A    between atoms: C_24  and  O_30
REMARK    9  A    between atoms: O_30  and  C_31
REMARK                            x       y       z     vdW  Elec       q    Type
REMARK                         _______ _______ _______ _____ _____    ______ ____
ROOT
ATOM      1  C   UNL     1      -0.000  -0.750  -1.307  0.00  0.00    +0.172 C 
ATOM      2  C   UNL     1      -1.425  -0.789  -1.924  0.00  0.00    +0.166 C 
ATOM      3  N   UNL     1      -1.982  -1.983  -1.231  0.00  0.00    -0.207 NA
ATOM      4  N   UNL     1      -0.929  -2.851  -1.095  0.00  0.00    -0.199 N 
ATOM      5  N   UNL     1       0.271  -2.194  -1.097  0.00  0.00    -0.213 NA
ATOM      6  H   UNL     1      -2.363  -1.734  -0.331  0.00  0.00    +0.148 HD
ATOM      7  H   UNL     1       0.880  -2.555  -1.815  0.00  0.00    +0.147 HD
ENDROOT
BRANCH   4   8
ATOM      8  C   UNL     1      -1.065  -4.237  -0.971  0.00  0.00    +0.062 A 
ATOM      9  C   UNL     1      -2.327  -4.816  -0.986  0.00  0.00    +0.029 A 
ATOM     10  C   UNL     1      -2.459  -6.186  -0.864  0.00  0.00    +0.040 A 
ATOM     11  C   UNL     1      -1.334  -6.981  -0.726  0.00  0.00    +0.124 A 
ATOM     12  C   UNL     1      -0.074  -6.406  -0.711  0.00  0.00    +0.040 A 
ATOM     13  C   UNL     1       0.062  -5.037  -0.838  0.00  0.00    +0.029 A 
ATOM     14  F   UNL     1      -1.465  -8.320  -0.606  0.00  0.00    -0.205 F 
ENDBRANCH   4   8
BRANCH   1  16
ATOM     15  C   UNL     1      -0.018   1.503   0.010  0.00  0.00    +0.088 C 
ATOM     16  C   UNL     1       0.002  -0.004   0.002  0.00  0.00    +0.152 C 
ATOM     17  O   UNL     1       0.020  -0.613   1.044  0.00  0.00    -0.296 OA
ENDBRANCH   1  16
BRANCH   2  18
ATOM     18  N   UNL     1      -1.371  -0.993  -3.378  0.00  0.00    -0.298 NA
ATOM     19  H   UNL     1      -0.428  -0.890  -3.723  0.00  0.00    +0.123 HD
BRANCH  18  20
ATOM     20  C   UNL     1      -2.288  -0.079  -4.073  0.00  0.00    +0.087 C 
BRANCH  20  21
ATOM     21  C   UNL     1      -2.203  -0.321  -5.581  0.00  0.00    +0.048 C 
BRANCH  21  22
ATOM     22  C   UNL     1      -3.143   0.616  -6.294  0.00  0.00    -0.040 C 
ATOM     23  C   UNL     1      -2.838   1.815  -6.839  0.00  0.00    +0.002 A 
ATOM     24  C   UNL     1      -1.589   2.579  -6.929  0.00  0.00    +0.055 A 
ATOM     25  C   UNL     1      -1.585   3.783  -7.549  0.00  0.00    +0.121 A 
ATOM     26  C   UNL     1      -2.746   4.337  -8.117  0.00  0.00    +0.047 A 
ATOM     27  C   UNL     1      -3.942   3.711  -8.085  0.00  0.00    +0.029 A 
ATOM     28  C   UNL     1      -4.060   2.401  -7.438  0.00  0.00    +0.043 A 
ATOM     29  N   UNL     1      -5.079   1.595  -7.269  0.00  0.00    -0.380 N 
ATOM     30  C   UNL     1      -4.619   0.403  -6.549  0.00  0.00    +0.144 C 
ATOM     31  H   UNL     1      -5.986   1.759  -7.574  0.00  0.00    +0.160 HD
BRANCH  25  32
ATOM     32  O   UNL     1      -0.421   4.479  -7.625  0.00  0.00    -0.495 OA
ATOM     33  C   UNL     1      -0.463   5.744  -8.288  0.00  0.00    +0.277 C 
ENDBRANCH  25  32
ENDBRANCH  21  22
ENDBRANCH  20  21
ENDBRANCH  18  20
ENDBRANCH   2  18
TORSDOF 7
