REMARK  Name = ZINC09527761
REMARK  8 active torsions:
REMARK  status: ('A' for Active; 'I' for Inactive)
REMARK    1  A    between atoms: C_1  and  O_2
REMARK    2  A    between atoms: O_2  and  C_3
REMARK    3  A    between atoms: C_6  and  C_9
REMARK    4  A    between atoms: C_14  and  N_18
REMARK    5  A    between atoms: N_18  and  C_19
REMARK    6  A    between atoms: C_19  and  C_20
REMARK    7  A    between atoms: C_25  and  C_26
REMARK    8  A    between atoms: C_25  and  N_60
REMARK                            x       y       z     vdW  Elec       q    Type
REMARK                         _______ _______ _______ _____ _____    ______ ____
ROOT
ATOM      1  N   UNL     1      -2.659   0.526  -0.401  0.00  0.00    -0.328 N 
ATOM      2  H   UNL     1      -1.964  -0.124  -0.212  0.00  0.00    +0.147 HD
ENDROOT
BRANCH   1   8
ATOM      3  C   UNL     1       0.242   1.318  -0.924  0.00  0.00    +0.002 A 
ATOM      4  C   UNL     1       1.442   1.863  -1.234  0.00  0.00    +0.056 A 
ATOM      5  S   UNL     1       1.017   3.479  -1.853  0.00  0.00    -0.076 S 
ATOM      6  C   UNL     1      -0.746   3.391  -1.684  0.00  0.00    +0.114 A 
ATOM      7  C   UNL     1      -0.966   2.103  -1.155  0.00  0.00    +0.055 A 
ATOM      8  C   UNL     1      -2.326   1.763  -0.923  0.00  0.00    +0.131 A 
ATOM      9  N   UNL     1      -3.270   2.644  -1.212  0.00  0.00    -0.220 NA
ATOM     10  C   UNL     1      -2.991   3.834  -1.711  0.00  0.00    +0.224 A 
ATOM     11  N   UNL     1      -1.748   4.210  -1.938  0.00  0.00    -0.228 NA
BRANCH   3  15
ATOM     12  C   UNL     1      -0.002  -2.614   0.677  0.00  0.00    +0.120 A 
ATOM     13  C   UNL     1      -0.614  -2.320  -0.533  0.00  0.00    +0.046 A 
ATOM     14  C   UNL     1      -0.537  -1.046  -1.055  0.00  0.00    +0.012 A 
ATOM     15  C   UNL     1       0.157  -0.053  -0.366  0.00  0.00    -0.016 A 
ATOM     16  C   UNL     1       0.776  -0.353   0.847  0.00  0.00    +0.012 A 
ATOM     17  C   UNL     1       0.690  -1.627   1.367  0.00  0.00    +0.046 A 
BRANCH  12  19
ATOM     18  C   UNL     1       0.574  -4.104   2.438  0.00  0.00    +0.277 C 
ATOM     19  O   UNL     1      -0.079  -3.871   1.189  0.00  0.00    -0.495 OA
ENDBRANCH  12  19
ENDBRANCH   3  15
ENDBRANCH   1   8
BRANCH   1  20
ATOM     20  C   UNL     1      -4.061   0.198  -0.131  0.00  0.00    +0.106 C 
BRANCH  20  21
ATOM     21  C   UNL     1      -4.170  -1.272   0.280  0.00  0.00    +0.003 C 
ATOM     22  C   UNL     1      -3.810  -2.165  -0.910  0.00  0.00    -0.014 C 
ATOM     23  C   UNL     1      -3.981  -3.632  -0.510  0.00  0.00    -0.078 C 
ATOM     24  C   UNL     1      -5.724  -3.059   1.072  0.00  0.00    -0.078 C 
ATOM     25  C   UNL     1      -5.606  -1.574   0.719  0.00  0.00    -0.014 C 
ATOM     26  N   UNL     1      -5.388  -3.864  -0.122  0.00  0.00    +0.382 N 
ATOM     27  H   UNL     1      -5.998  -3.580  -0.897  0.00  0.00    -0.081 HD
BRANCH  26  28
ATOM     28  C   UNL     1      -5.605  -5.298   0.159  0.00  0.00    -0.042 C 
BRANCH  28  29
ATOM     29  C   UNL     1      -7.083  -5.584   0.089  0.00  0.00    -0.046 A 
ATOM     30  C   UNL     1      -7.800  -5.803   1.250  0.00  0.00    +0.003 A 
ATOM     31  C   UNL     1      -9.157  -6.062   1.186  0.00  0.00    +0.000 A 
ATOM     32  C   UNL     1      -9.795  -6.111  -0.040  0.00  0.00    +0.001 A 
ATOM     33  C   UNL     1      -9.077  -5.897  -1.202  0.00  0.00    +0.020 A 
ATOM     34  C   UNL     1      -7.721  -5.633  -1.138  0.00  0.00    +0.042 A 
ATOM     35 CL   UNL     1      -6.819  -5.365  -2.597  0.00  0.00    -0.083 Cl
ENDBRANCH  28  29
ENDBRANCH  26  28
ENDBRANCH  20  21
ENDBRANCH   1  20
TORSDOF 7
