REMARK  Name = ZINC08904046
REMARK  12 active torsions:
REMARK  status: ('A' for Active; 'I' for Inactive)
REMARK    1  A    between atoms: C_1  and  C_2
REMARK    2  A    between atoms: C_2  and  C_3
REMARK    3  A    between atoms: C_3  and  C_4
REMARK    4  A    between atoms: C_4  and  O_5
REMARK    5  A    between atoms: O_5  and  C_6
REMARK    6  A    between atoms: C_11  and  C_12
REMARK    7  A    between atoms: C_15  and  C_26
REMARK    8  A    between atoms: C_21  and  N_25
REMARK    9  A    between atoms: C_22  and  C_23
REMARK   10  A    between atoms: C_26  and  C_27
REMARK   11  A    between atoms: C_26  and  C_28
REMARK   12  A    between atoms: C_26  and  C_29
REMARK                            x       y       z     vdW  Elec       q    Type
REMARK                         _______ _______ _______ _____ _____    ______ ____
ROOT
ATOM      1  C   UNL     1       2.859  -3.204  -5.080  0.00  0.00    +0.105 C 
ATOM      2  C   UNL     1       2.159  -3.739  -6.303  0.00  0.00    +0.050 A 
ATOM      3  C   UNL     1       0.871  -3.638  -6.665  0.00  0.00    +0.049 A 
ATOM      4  N   UNL     1       0.725  -4.283  -7.845  0.00  0.00    -0.277 N 
ATOM      5  H   UNL     1      -0.101  -4.374  -8.346  0.00  0.00    +0.189 HD
ATOM      6  N   UNL     1       1.976  -4.799  -8.218  0.00  0.00    -0.135 NA
ATOM      7  C   UNL     1       2.838  -4.475  -7.298  0.00  0.00    +0.245 A 
ATOM      8  O   UNL     1       4.168  -4.744  -7.215  0.00  0.00    -0.421 OA
ATOM      9  C   UNL     1       4.883  -4.063  -6.296  0.00  0.00    +0.201 C 
ATOM     10  C   UNL     1       4.346  -3.336  -5.293  0.00  0.00    +0.098 C 
ENDROOT
BRANCH   1  16
ATOM     11  C   UNL     1       2.173  -3.353  -2.672  0.00  0.00    +0.125 A 
ATOM     12  C   UNL     1       1.788  -4.089  -1.560  0.00  0.00    +0.046 A 
ATOM     13  C   UNL     1       1.683  -5.463  -1.646  0.00  0.00    +0.004 A 
ATOM     14  C   UNL     1       1.961  -6.107  -2.838  0.00  0.00    +0.001 A 
ATOM     15  C   UNL     1       2.345  -5.376  -3.947  0.00  0.00    +0.008 A 
ATOM     16  C   UNL     1       2.446  -4.000  -3.869  0.00  0.00    +0.007 A 
BRANCH  11  17
ATOM     17  O   UNL     1       2.277  -2.001  -2.591  0.00  0.00    -0.492 OA
BRANCH  17  18
ATOM     18  C   UNL     1       1.980  -1.402  -1.328  0.00  0.00    +0.229 C 
BRANCH  18  19
ATOM     19  C   UNL     1       2.151   0.115  -1.430  0.00  0.00    +0.041 C 
BRANCH  19  21
ATOM     20  C   UNL     1       2.004   2.273  -0.180  0.00  0.00    +0.004 C 
ATOM     21  C   UNL     1       1.833   0.756  -0.077  0.00  0.00    -0.000 C 
ENDBRANCH  19  21
ENDBRANCH  18  19
ENDBRANCH  17  18
ENDBRANCH  11  17
ENDBRANCH   1  16
BRANCH   3  22
ATOM     22  C   UNL     1      -0.216  -2.932  -5.896  0.00  0.00    +0.004 C 
ATOM     23  C   UNL     1      -1.502  -2.921  -6.725  0.00  0.00    +0.017 C 
ATOM     24  C   UNL     1      -0.467  -3.665  -4.577  0.00  0.00    +0.017 C 
ATOM     25  C   UNL     1       0.215  -1.493  -5.606  0.00  0.00    +0.017 C 
ENDBRANCH   3  22
BRANCH   9  26
ATOM     26  N   UNL     1       6.251  -4.113  -6.386  0.00  0.00    -0.328 N 
ATOM     27  H   UNL     1       6.672  -4.626  -7.094  0.00  0.00    +0.145 HD
ATOM     28  H   UNL     1       6.797  -3.635  -5.742  0.00  0.00    +0.145 HD
ENDBRANCH   9  26
BRANCH  10  29
ATOM     29  C   UNL     1       5.228  -2.659  -4.391  0.00  0.00    +0.101 C 
ATOM     30  N   UNL     1       5.927  -2.121  -3.676  0.00  0.00    -0.191 NA
ENDBRANCH  10  29
TORSDOF 8
