REMARK  Name = ZINC36556558
REMARK  16 active torsions:
REMARK  status: ('A' for Active; 'I' for Inactive)
REMARK    1  A    between atoms: C_1  and  C_2
REMARK    2  A    between atoms: C_7  and  C_8
REMARK    3  A    between atoms: C_8  and  C_9
REMARK    4  A    between atoms: N_11  and  C_12
REMARK    5  A    between atoms: N_11  and  C_19
REMARK    6  A    between atoms: C_12  and  C_13
REMARK    7  A    between atoms: C_16  and  C_18
REMARK    8  A    between atoms: C_19  and  C_21
REMARK    9  A    between atoms: C_19  and  C_30
REMARK   10  A    between atoms: C_22  and  O_29
REMARK   11  A    between atoms: C_24  and  O_28
REMARK   12  A    between atoms: C_26  and  O_27
REMARK   13  A    between atoms: N_32  and  C_33
REMARK   14  A    between atoms: C_33  and  C_34
REMARK   15  A    between atoms: C_33  and  C_35
REMARK   16  A    between atoms: C_33  and  C_36
REMARK                            x       y       z     vdW  Elec       q    Type
REMARK                         _______ _______ _______ _____ _____    ______ ____
ROOT
ATOM      1  C   UNL     1      -2.929   1.119   4.573  0.00  0.00    +0.200 C 
ENDROOT
BRANCH   1   2
ATOM      2  C   UNL     1      -2.755   2.386   3.775  0.00  0.00    +0.065 A 
ATOM      3  C   UNL     1      -1.659   3.204   4.004  0.00  0.00    +0.129 A 
ATOM      4  C   UNL     1      -1.498   4.370   3.270  0.00  0.00    +0.091 A 
ATOM      5  C   UNL     1      -2.433   4.716   2.306  0.00  0.00    +0.124 A 
ATOM      6  C   UNL     1      -3.528   3.897   2.075  0.00  0.00    +0.091 A 
ATOM      7  C   UNL     1      -3.686   2.729   2.807  0.00  0.00    +0.129 A 
BRANCH   7   8
ATOM      8  O   UNL     1      -4.757   1.924   2.578  0.00  0.00    -0.506 OA
ATOM      9  H   UNL     1      -5.531   2.136   3.116  0.00  0.00    +0.292 HD
ENDBRANCH   7   8
BRANCH   5  10
ATOM     10  O   UNL     1      -2.276   5.858   1.587  0.00  0.00    -0.507 OA
ATOM     11  H   UNL     1      -1.769   5.744   0.771  0.00  0.00    +0.292 HD
ENDBRANCH   5  10
BRANCH   3  12
ATOM     12  O   UNL     1      -0.744   2.865   4.949  0.00  0.00    -0.506 OA
ATOM     13  H   UNL     1       0.027   2.397   4.600  0.00  0.00    +0.292 HD
ENDBRANCH   3  12
ENDBRANCH   1   2
BRANCH   1  14
ATOM     14  C   UNL     1      -3.445   1.459   5.947  0.00  0.00    +0.239 C 
ATOM     15  O   UNL     1      -2.682   1.861   6.799  0.00  0.00    -0.273 OA
ATOM     16  N   UNL     1      -4.755   1.316   6.230  0.00  0.00    -0.309 N 
ATOM     17  H   UNL     1      -5.366   0.994   5.548  0.00  0.00    +0.149 HD
BRANCH  16  18
ATOM     18  C   UNL     1      -5.257   1.646   7.566  0.00  0.00    +0.026 C 
ATOM     19  C   UNL     1      -4.973   3.119   7.868  0.00  0.00    +0.031 C 
ATOM     20  C   UNL     1      -6.765   1.396   7.621  0.00  0.00    +0.031 C 
ATOM     21  C   UNL     1      -4.557   0.768   8.605  0.00  0.00    +0.031 C 
ENDBRANCH  16  18
ENDBRANCH   1  14
BRANCH   1  24
ATOM     22  C   UNL     1      -0.929   0.141   3.584  0.00  0.00    +0.221 C 
ATOM     23  O   UNL     1      -1.357   0.444   2.490  0.00  0.00    -0.275 OA
ATOM     24  N   UNL     1      -1.639   0.434   4.691  0.00  0.00    -0.278 N 
BRANCH  22  25
ATOM     25  C   UNL     1       0.398  -0.564   3.705  0.00  0.00    +0.131 C 
BRANCH  25  32
ATOM     26  C   UNL     1       1.940   1.537   2.457  0.00  0.00    +0.044 C 
ATOM     27  C   UNL     1       1.721   0.233   1.735  0.00  0.00    -0.047 A 
ATOM     28  C   UNL     1       2.263   0.039   0.478  0.00  0.00    +0.003 A 
ATOM     29  C   UNL     1       2.062  -1.158  -0.184  0.00  0.00    +0.000 A 
ATOM     30  C   UNL     1       1.319  -2.161   0.411  0.00  0.00    +0.000 A 
ATOM     31  C   UNL     1       0.778  -1.967   1.668  0.00  0.00    +0.004 A 
ATOM     32  C   UNL     1       0.983  -0.772   2.332  0.00  0.00    -0.036 A 
ENDBRANCH  25  32
ENDBRANCH  22  25
BRANCH  24  33
ATOM     33  C   UNL     1      -1.122   0.069   6.012  0.00  0.00    +0.183 C 
BRANCH  33  34
ATOM     34  C   UNL     1       0.031   0.971   6.367  0.00  0.00    +0.122 A 
ATOM     35  C   UNL     1      -0.041   2.077   7.130  0.00  0.00    +0.046 A 
ATOM     36  C   UNL     1       1.266   2.611   7.202  0.00  0.00    +0.045 A 
ATOM     37  C   UNL     1       2.059   1.800   6.479  0.00  0.00    +0.102 A 
ATOM     38  O   UNL     1       1.306   0.805   5.980  0.00  0.00    -0.463 OA
ATOM     39  C   UNL     1       3.541   1.974   6.268  0.00  0.00    +0.086 C 
ENDBRANCH  33  34
ENDBRANCH  24  33
ENDBRANCH   1  24
TORSDOF 11
