REMARK  Name = ZINC09390826
REMARK  6 active torsions:
REMARK  status: ('A' for Active; 'I' for Inactive)
REMARK    1  A    between atoms: C_3  and  S_10
REMARK    2  A    between atoms: C_6  and  N_7
REMARK    3  A    between atoms: S_10  and  N_13
REMARK    4  A    between atoms: C_18  and  N_19
REMARK    5  A    between atoms: C_18  and  N_55
REMARK    6  A    between atoms: N_24  and  C_27
REMARK                            x       y       z     vdW  Elec       q    Type
REMARK                         _______ _______ _______ _____ _____    ______ ____
ROOT
ATOM      1  N   UNL     1       2.970   6.107  -3.594  0.00  0.00    -0.180 NA
ATOM      2  C   UNL     1       1.951   6.925  -2.920  0.00  0.00    +0.091 C 
ATOM      3  C   UNL     1       1.880   6.499  -1.449  0.00  0.00    -0.059 C 
ATOM      4  C   UNL     1       2.791   4.309  -1.957  0.00  0.00    -0.059 C 
ATOM      5  C   UNL     1       2.899   4.645  -3.448  0.00  0.00    +0.091 C 
ATOM      6  N   UNL     1       1.638   5.041  -1.388  0.00  0.00    +0.392 N 
ATOM      7  H   UNL     1       0.799   4.820  -1.937  0.00  0.00    -0.079 HD
ENDROOT
BRANCH   1   8
ATOM      8  S   UNL     1       4.168   6.813  -4.494  0.00  0.00    +0.061 S 
ATOM      9  O   UNL     1       4.610   5.833  -5.423  0.00  0.00    -0.153 OA
ATOM     10  O   UNL     1       3.675   8.082  -4.901  0.00  0.00    -0.153 OA
BRANCH   8  13
ATOM     11  C   UNL     1       7.562   6.408  -2.381  0.00  0.00    +0.034 A 
ATOM     12  C   UNL     1       6.501   6.164  -3.233  0.00  0.00    +0.031 A 
ATOM     13  C   UNL     1       5.521   7.124  -3.408  0.00  0.00    +0.106 A 
ATOM     14  C   UNL     1       5.605   8.328  -2.735  0.00  0.00    +0.031 A 
ATOM     15  C   UNL     1       6.664   8.570  -1.880  0.00  0.00    +0.034 A 
ATOM     16  C   UNL     1       7.644   7.611  -1.705  0.00  0.00    +0.126 A 
BRANCH  16  17
ATOM     17  N   UNL     1       8.780   7.871  -0.793  0.00  0.00    +0.056 N 
ATOM     18  O   UNL     1       9.643   7.026  -0.638  0.00  0.00    -0.126 OA
ATOM     19  O   UNL     1       8.852   8.931  -0.197  0.00  0.00    -0.126 OA
ENDBRANCH  16  17
ENDBRANCH   8  13
ENDBRANCH   1   8
BRANCH   6  20
ATOM     20  C   UNL     1       1.419   4.625   0.013  0.00  0.00    +0.043 C 
BRANCH  20  21
ATOM     21  N   UNL     1       0.647   3.380   0.014  0.00  0.00    -0.235 N 
ATOM     22  C   UNL     1       1.167   2.134   0.002  0.00  0.00    +0.308 C 
ATOM     23  O   UNL     1       2.340   1.827  -0.011  0.00  0.00    -0.265 OA
ATOM     24  C   UNL     1      -0.014   1.209   0.009  0.00  0.00    +0.310 C 
ATOM     25  O   UNL     1       0.002  -0.004   0.002  0.00  0.00    -0.264 OA
ATOM     26  N   UNL     1      -1.100   2.012   0.017  0.00  0.00    -0.215 N 
ATOM     27  C   UNL     1      -0.693   3.292   0.026  0.00  0.00    +0.317 C 
ATOM     28  O   UNL     1      -1.442   4.248   0.038  0.00  0.00    -0.252 OA
BRANCH  26  29
ATOM     29  C   UNL     1      -2.494   1.561   0.020  0.00  0.00    +0.086 C 
ATOM     30  C   UNL     1      -2.755   0.659   1.244  0.00  0.00    +0.023 C 
ATOM     31  C   UNL     1      -3.724  -0.428   0.714  0.00  0.00    +0.002 C 
ATOM     32  C   UNL     1      -3.193  -0.690  -0.717  0.00  0.00    +0.002 C 
ATOM     33  C   UNL     1      -2.773   0.704  -1.227  0.00  0.00    +0.023 C 
ENDBRANCH  26  29
ENDBRANCH  20  21
ENDBRANCH   6  20
TORSDOF 6
