REMARK  Name = ZINC45562524
REMARK  9 active torsions:
REMARK  status: ('A' for Active; 'I' for Inactive)
REMARK    1  A    between atoms: C_1  and  C_2
REMARK    2  A    between atoms: C_2  and  C_4
REMARK    3  A    between atoms: C_2  and  O_17
REMARK    4  A    between atoms: N_6  and  C_7
REMARK    5  A    between atoms: C_11  and  S_13
REMARK    6  A    between atoms: S_13  and  N_16
REMARK    7  A    between atoms: O_17  and  C_18
REMARK    8  A    between atoms: C_18  and  C_20
REMARK    9  A    between atoms: C_23  and  C_25
REMARK                            x       y       z     vdW  Elec       q    Type
REMARK                         _______ _______ _______ _____ _____    ______ ____
ROOT
ATOM      1  C   UNL     1       0.731  -0.502   1.224  0.00  0.00    +0.258 C 
ATOM      2  O   UNL     1       0.133  -1.128   2.073  0.00  0.00    -0.271 OA
ATOM      3  N   UNL     1       2.045  -0.246   1.375  0.00  0.00    -0.282 N 
ATOM      4  H   UNL     1       2.538   0.196   0.667  0.00  0.00    +0.155 HD
ENDROOT
BRANCH   3   5
ATOM      5  C   UNL     1       2.698  -0.617   2.556  0.00  0.00    +0.035 A 
ATOM      6  C   UNL     1       3.710   0.181   3.072  0.00  0.00    +0.023 A 
ATOM      7  C   UNL     1       4.353  -0.188   4.237  0.00  0.00    +0.004 A 
ATOM      8  C   UNL     1       3.991  -1.353   4.889  0.00  0.00    +0.028 A 
ATOM      9  C   UNL     1       2.984  -2.150   4.378  0.00  0.00    +0.107 A 
ATOM     10  C   UNL     1       2.333  -1.783   3.216  0.00  0.00    +0.051 A 
BRANCH   9  11
ATOM     11  S   UNL     1       2.526  -3.633   5.212  0.00  0.00    +0.056 S 
ATOM     12  O   UNL     1       1.932  -4.480   4.238  0.00  0.00    -0.153 OA
ATOM     13  O   UNL     1       3.652  -4.030   5.982  0.00  0.00    -0.153 OA
BRANCH  11  14
ATOM     14  N   UNL     1       1.331  -3.240   6.289  0.00  0.00    -0.204 NA
ATOM     15  H   UNL     1       0.656  -3.895   6.524  0.00  0.00    +0.144 HD
ATOM     16  H   UNL     1       1.307  -2.354   6.684  0.00  0.00    +0.144 HD
ENDBRANCH  11  14
ENDBRANCH   9  11
ENDBRANCH   3   5
BRANCH   1  18
ATOM     17  C   UNL     1      -0.014   1.520  -0.004  0.00  0.00    +0.062 C 
ATOM     18  C   UNL     1       0.004  -0.010  -0.001  0.00  0.00    +0.259 C 
BRANCH  18  19
ATOM     19  O   UNL     1      -1.338  -0.501   0.011  0.00  0.00    -0.448 OA
BRANCH  19  20
ATOM     20  C   UNL     1      -1.923  -0.714  -1.185  0.00  0.00    +0.359 C 
ATOM     21  O   UNL     1      -1.310  -0.488  -2.210  0.00  0.00    -0.243 OA
BRANCH  20  22
ATOM     22  C   UNL     1      -3.303  -1.220  -1.249  0.00  0.00    +0.155 A 
ATOM     23  C   UNL     1      -3.906  -1.444  -2.457  0.00  0.00    +0.082 A 
ATOM     24  S   UNL     1      -5.429  -2.002  -2.009  0.00  0.00    -0.075 S 
ATOM     25  C   UNL     1      -5.222  -1.921  -0.239  0.00  0.00    +0.110 A 
ATOM     26  N   UNL     1      -3.985  -1.472  -0.131  0.00  0.00    -0.232 NA
BRANCH  25  27
ATOM     27  C   UNL     1      -6.183  -2.270   0.828  0.00  0.00    +0.014 A 
ATOM     28  C   UNL     1      -7.459  -2.745   0.517  0.00  0.00    +0.018 A 
ATOM     29  C   UNL     1      -8.262  -3.037   1.565  0.00  0.00    +0.046 A 
ATOM     30  S   UNL     1      -7.226  -2.644   2.961  0.00  0.00    -0.104 S 
ATOM     31  C   UNL     1      -5.847  -2.143   2.143  0.00  0.00    +0.055 A 
ENDBRANCH  25  27
ENDBRANCH  20  22
ENDBRANCH  19  20
ENDBRANCH  18  19
ENDBRANCH   1  18
TORSDOF 8
