REMARK  Name = ZINC36743400
REMARK  4 active torsions:
REMARK  status: ('A' for Active; 'I' for Inactive)
REMARK    1  A    between atoms: C_6  and  S_7
REMARK    2  A    between atoms: S_7  and  N_10
REMARK    3  A    between atoms: N_10  and  C_11
REMARK    4  A    between atoms: C_14  and  N_18
REMARK                            x       y       z     vdW  Elec       q    Type
REMARK                         _______ _______ _______ _____ _____    ______ ____
ROOT
ATOM      1  N   UNL     1      -1.948  -1.147  -1.567  0.00  0.00    -0.215 N 
ATOM      2  H   UNL     1      -2.761  -0.744  -1.911  0.00  0.00    +0.174 HD
ENDROOT
BRANCH   1   3
ATOM      3  C   UNL     1      -1.099  -1.855  -2.427  0.00  0.00    +0.062 A 
ATOM      4  C   UNL     1      -0.426  -2.979  -1.969  0.00  0.00    +0.027 A 
ATOM      5  C   UNL     1       0.411  -3.677  -2.817  0.00  0.00    +0.024 A 
ATOM      6  C   UNL     1       0.580  -3.254  -4.129  0.00  0.00    +0.026 A 
ATOM      7  C   UNL     1      -0.093  -2.130  -4.588  0.00  0.00    +0.040 A 
ATOM      8  C   UNL     1      -0.936  -1.435  -3.741  0.00  0.00    +0.042 A 
ATOM      9 BR   UNL     1      -1.859   0.091  -4.369  0.00  0.00    -0.048 Br
BRANCH   6  10
ATOM     10  N   UNL     1       1.429  -3.962  -4.989  0.00  0.00    -0.358 N 
ATOM     11  H   UNL     1       1.899  -4.747  -4.668  0.00  0.00    +0.142 HD
ATOM     12  H   UNL     1       1.546  -3.667  -5.905  0.00  0.00    +0.142 HD
ENDBRANCH   6  10
ENDBRANCH   1   3
BRANCH   1  13
ATOM     13  S   UNL     1      -1.565  -1.000   0.037  0.00  0.00    +0.072 S 
ATOM     14  O   UNL     1      -1.342  -2.316   0.524  0.00  0.00    -0.150 OA
ATOM     15  O   UNL     1      -2.533  -0.130   0.608  0.00  0.00    -0.150 OA
BRANCH  13  21
ATOM     16  C   UNL     1       0.015   1.219   0.204  0.00  0.00    +0.030 A 
ATOM     17  C   UNL     1       1.228   1.878   0.276  0.00  0.00    +0.022 A 
ATOM     18  C   UNL     1       2.409   1.156   0.272  0.00  0.00    +0.041 A 
ATOM     19  C   UNL     1       2.374  -0.225   0.197  0.00  0.00    +0.022 A 
ATOM     20  C   UNL     1       1.161  -0.882   0.125  0.00  0.00    +0.030 A 
ATOM     21  C   UNL     1      -0.018  -0.161   0.129  0.00  0.00    +0.109 A 
ATOM     22 CL   UNL     1       3.933   1.983   0.362  0.00  0.00    -0.084 Cl
ENDBRANCH  13  21
ENDBRANCH   1  13
TORSDOF 4
