REMARK  Name = ZINC07809515
REMARK  5 active torsions:
REMARK  status: ('A' for Active; 'I' for Inactive)
REMARK    1  A    between atoms: C_11  and  C_15
REMARK    2  A    between atoms: C_15  and  S_16
REMARK    3  A    between atoms: S_16  and  C_17
REMARK    4  A    between atoms: C_17  and  C_18
REMARK    5  A    between atoms: N_20  and  C_21
REMARK                            x       y       z     vdW  Elec       q    Type
REMARK                         _______ _______ _______ _____ _____    ______ ____
ROOT
ATOM      1  C   UNL     1      -1.405   2.987  15.099  0.00  0.00    +0.005 C 
ATOM      2  C   UNL     1      -2.388   1.813  15.117  0.00  0.00    +0.005 C 
ATOM      3  C   UNL     1      -3.224   1.850  13.829  0.00  0.00    +0.043 C 
ATOM      4  C   UNL     1      -2.296   2.040  12.668  0.00  0.00    -0.004 A 
ATOM      5  C   UNL     1      -1.006   2.435  12.710  0.00  0.00    -0.023 A 
ATOM      6  C   UNL     1      -0.305   2.546  11.431  0.00  0.00    +0.075 A 
ATOM      7  C   UNL     1       1.053   2.938  11.191  0.00  0.00    +0.260 A 
ATOM      8  O   UNL     1       1.785   3.235  12.119  0.00  0.00    -0.267 OA
ATOM      9  N   UNL     1       1.505   2.974   9.923  0.00  0.00    -0.310 N 
ATOM     10  H   UNL     1       2.450   3.248   9.748  0.00  0.00    +0.170 HD
ATOM     11  C   UNL     1       0.702   2.648   8.878  0.00  0.00    +0.121 A 
ATOM     12  N   UNL     1      -0.540   2.291   9.064  0.00  0.00    -0.226 NA
ATOM     13  C   UNL     1      -1.056   2.227  10.289  0.00  0.00    +0.116 A 
ATOM     14  S   UNL     1      -2.647   1.797  10.948  0.00  0.00    -0.073 S 
ATOM     15  C   UNL     1      -0.328   2.746  14.041  0.00  0.00    +0.037 C 
ENDROOT
BRANCH  11  16
ATOM     16  C   UNL     1       1.254   2.704   7.476  0.00  0.00    +0.143 C 
BRANCH  16  17
ATOM     17  S   UNL     1      -0.038   2.218   6.298  0.00  0.00    -0.144 S 
BRANCH  17  18
ATOM     18  C   UNL     1       0.776   2.337   4.682  0.00  0.00    +0.165 C 
BRANCH  18  19
ATOM     19  C   UNL     1      -0.200   1.954   3.599  0.00  0.00    +0.223 C 
ATOM     20  O   UNL     1      -1.333   1.633   3.889  0.00  0.00    -0.275 OA
ATOM     21  N   UNL     1       0.186   1.969   2.308  0.00  0.00    -0.312 N 
ATOM     22  H   UNL     1       1.092   2.226   2.075  0.00  0.00    +0.149 HD
BRANCH  21  23
ATOM     23  C   UNL     1      -0.763   1.597   1.255  0.00  0.00    +0.073 C 
ATOM     24  C   UNL     1      -0.013   1.086   0.008  0.00  0.00    +0.022 C 
ATOM     25  C   UNL     1      -0.784   1.609  -1.216  0.00  0.00    +0.002 C 
ATOM     26  C   UNL     1      -1.978   2.421  -0.670  0.00  0.00    +0.002 C 
ATOM     27  C   UNL     1      -1.531   2.845   0.750  0.00  0.00    +0.022 C 
ENDBRANCH  21  23
ENDBRANCH  18  19
ENDBRANCH  17  18
ENDBRANCH  16  17
ENDBRANCH  11  16
TORSDOF 5
