REMARK  Name = ZINC21234552
REMARK  6 active torsions:
REMARK  status: ('A' for Active; 'I' for Inactive)
REMARK    1  A    between atoms: C_1  and  C_2
REMARK    2  A    between atoms: C_2  and  C_3
REMARK    3  A    between atoms: C_2  and  O_4
REMARK    4  A    between atoms: O_4  and  C_5
REMARK    5  A    between atoms: C_8  and  C_11
REMARK    6  A    between atoms: C_16  and  C_26
REMARK                            x       y       z     vdW  Elec       q    Type
REMARK                         _______ _______ _______ _____ _____    ______ ____
ROOT
ATOM      1  C   UNL     1       6.145   0.241   3.491  0.00  0.00    +0.032 C 
ATOM      2  C   UNL     1       5.251  -0.967   3.215  0.00  0.00    +0.059 C 
ATOM      3  C   UNL     1       4.689  -0.885   1.805  0.00  0.00    +0.017 C 
ATOM      4  C   UNL     1       4.423   0.307   1.247  0.00  0.00    +0.036 C 
ATOM      5  C   UNL     1       3.843   0.532  -0.129  0.00  0.00    +0.136 C 
ATOM      6  N   UNL     1       3.814  -0.650  -0.965  0.00  0.00    -0.331 N 
ATOM      7  C   UNL     1       3.030  -1.749  -0.633  0.00  0.00    +0.049 A 
ATOM      8  C   UNL     1       1.927  -2.108  -1.392  0.00  0.00    +0.025 A 
ATOM      9  C   UNL     1       1.113  -3.141  -0.962  0.00  0.00    +0.002 A 
ATOM     10  C   UNL     1       1.395  -3.812   0.213  0.00  0.00    +0.002 A 
ATOM     11  C   UNL     1       2.509  -3.471   0.962  0.00  0.00    +0.025 A 
ATOM     12  C   UNL     1       3.334  -2.449   0.525  0.00  0.00    +0.052 A 
ATOM     13  N   UNL     1       4.490  -2.085   1.204  0.00  0.00    -0.316 N 
ATOM     14  C   UNL     1       4.690   1.502   1.956  0.00  0.00    +0.163 C 
ATOM     15  O   UNL     1       4.426   2.567   1.432  0.00  0.00    -0.292 OA
ATOM     16  C   UNL     1       5.288   1.502   3.331  0.00  0.00    +0.088 C 
ATOM     17  H   UNL     1       4.420  -0.690  -1.882  0.00  0.00    +0.147 HD
ATOM     18  H   UNL     1       5.278  -2.853   1.235  0.00  0.00    +0.152 HD
ENDROOT
BRANCH   5  19
ATOM     19  C   UNL     1       2.433   1.044   0.024  0.00  0.00    -0.015 A 
ATOM     20  C   UNL     1       1.780   0.903   1.210  0.00  0.00    +0.006 A 
ATOM     21  C   UNL     1       0.477   1.370   1.371  0.00  0.00    +0.001 A 
ATOM     22  C   UNL     1      -0.181   1.979   0.346  0.00  0.00    +0.008 A 
ATOM     23  C   UNL     1       0.461   2.142  -0.893  0.00  0.00    -0.018 A 
ATOM     24  C   UNL     1       1.787   1.667  -1.056  0.00  0.00    -0.013 A 
ATOM     25  C   UNL     1       2.429   1.830  -2.296  0.00  0.00    +0.009 A 
ATOM     26  C   UNL     1       1.772   2.439  -3.320  0.00  0.00    +0.001 A 
ATOM     27  C   UNL     1       0.468   2.906  -3.159  0.00  0.00    +0.001 A 
ATOM     28  C   UNL     1      -0.185   2.765  -1.974  0.00  0.00    +0.008 A 
ENDBRANCH   5  19
BRANCH   1  32
ATOM     29  C   UNL     1       7.684   0.025   7.471  0.00  0.00    +0.121 A 
ATOM     30  C   UNL     1       8.553   0.045   6.391  0.00  0.00    +0.046 A 
ATOM     31  C   UNL     1       8.053   0.115   5.105  0.00  0.00    +0.007 A 
ATOM     32  C   UNL     1       6.688   0.165   4.894  0.00  0.00    -0.043 A 
ATOM     33  C   UNL     1       5.819   0.151   5.970  0.00  0.00    +0.007 A 
ATOM     34  C   UNL     1       6.314   0.076   7.258  0.00  0.00    +0.046 A 
BRANCH  29  35
ATOM     35  O   UNL     1       8.174  -0.044   8.737  0.00  0.00    -0.489 OA
BRANCH  35  37
ATOM     36  C   UNL     1      10.264   1.167   8.811  0.00  0.00    +0.051 C 
ATOM     37  C   UNL     1       9.586  -0.203   8.879  0.00  0.00    +0.167 C 
ATOM     38  C   UNL     1       9.893  -0.858  10.227  0.00  0.00    +0.051 C 
ENDBRANCH  35  37
ENDBRANCH  29  35
ENDBRANCH   1  32
TORSDOF 4
