REMARK  Name = ZINC46644955
REMARK  7 active torsions:
REMARK  status: ('A' for Active; 'I' for Inactive)
REMARK    1  A    between atoms: C_1  and  C_2
REMARK    2  A    between atoms: C_2  and  C_4
REMARK    3  A    between atoms: C_2  and  N_22
REMARK    4  A    between atoms: C_4  and  N_5
REMARK    5  A    between atoms: C_6  and  C_8
REMARK    6  A    between atoms: N_17  and  S_18
REMARK    7  A    between atoms: S_18  and  C_21
REMARK                            x       y       z     vdW  Elec       q    Type
REMARK                         _______ _______ _______ _____ _____    ______ ____
ROOT
ATOM      1  N   UNL     1      -1.802  -2.029   0.021  0.00  0.00    -0.313 N 
ATOM      2  C   UNL     1      -3.047  -2.524  -0.126  0.00  0.00    +0.244 C 
ATOM      3  O   UNL     1      -4.012  -1.798   0.020  0.00  0.00    -0.270 OA
ATOM      4  H   UNL     1      -1.033  -2.608  -0.095  0.00  0.00    +0.149 HD
ENDROOT
BRANCH   2   5
ATOM      5  C   UNL     1      -3.240  -3.947  -0.466  0.00  0.00    +0.037 A 
ATOM      6  C   UNL     1      -2.132  -4.785  -0.629  0.00  0.00    +0.015 A 
ATOM      7  C   UNL     1      -2.319  -6.109  -0.946  0.00  0.00    +0.026 A 
ATOM      8  C   UNL     1      -3.607  -6.619  -1.105  0.00  0.00    +0.054 A 
ATOM      9  C   UNL     1      -4.712  -5.791  -0.940  0.00  0.00    -0.024 A 
ATOM     10  C   UNL     1      -4.529  -4.462  -0.619  0.00  0.00    +0.018 A 
ATOM     11  C   UNL     1      -6.116  -6.314  -1.094  0.00  0.00    +0.038 C 
ATOM     12  C   UNL     1      -6.118  -7.608  -1.909  0.00  0.00    +0.025 C 
ATOM     13  C   UNL     1      -5.094  -8.576  -1.303  0.00  0.00    +0.131 C 
ATOM     14  N   UNL     1      -3.765  -7.964  -1.431  0.00  0.00    -0.207 N 
BRANCH  14  15
ATOM     15  S   UNL     1      -2.474  -8.859  -1.956  0.00  0.00    +0.043 S 
ATOM     16  O   UNL     1      -3.052  -9.992  -2.589  0.00  0.00    -0.155 OA
ATOM     17  O   UNL     1      -1.676  -7.944  -2.695  0.00  0.00    -0.155 OA
ATOM     18  C   UNL     1      -1.610  -9.362  -0.443  0.00  0.00    +0.218 C 
ENDBRANCH  14  15
ENDBRANCH   2   5
BRANCH   1  19
ATOM     19  C   UNL     1      -1.611  -0.616   0.358  0.00  0.00    +0.089 C 
BRANCH  19  21
ATOM     20  C   UNL     1       0.077   1.207   0.614  0.00  0.00    -0.012 C 
ATOM     21  C   UNL     1      -0.118  -0.285   0.339  0.00  0.00    -0.054 C 
BRANCH  21  22
ATOM     22  N   UNL     1       0.441  -0.617  -0.978  0.00  0.00    +0.385 N 
ATOM     23  C   UNL     1       1.892  -0.393  -0.959  0.00  0.00    -0.073 C 
ATOM     24  C   UNL     1       2.514  -1.046  -2.205  0.00  0.00    +0.024 C 
ATOM     25  C   UNL     1       1.689  -0.641  -3.384  0.00  0.00    -0.011 A 
ATOM     26  C   UNL     1       0.455  -0.062  -3.347  0.00  0.00    -0.054 A 
ATOM     27  C   UNL     1      -0.128   0.236  -4.576  0.00  0.00    +0.009 A 
ATOM     28  C   UNL     1       0.528  -0.054  -5.725  0.00  0.00    +0.045 A 
ATOM     29  S   UNL     1       2.042  -0.780  -5.112  0.00  0.00    -0.101 S 
ATOM     30  C   UNL     1      -0.203   0.218  -2.000  0.00  0.00    -0.042 C 
ATOM     31  H   UNL     1       0.258  -1.589  -1.181  0.00  0.00    -0.081 HD
ENDBRANCH  21  22
ENDBRANCH  19  21
ENDBRANCH   1  19
TORSDOF 5
