REMARK  Name = ZINC40112934
REMARK  11 active torsions:
REMARK  status: ('A' for Active; 'I' for Inactive)
REMARK    1  A    between atoms: C_1  and  C_2
REMARK    2  A    between atoms: C_2  and  C_27
REMARK    3  A    between atoms: C_3  and  C_4
REMARK    4  A    between atoms: C_6  and  C_11
REMARK    5  A    between atoms: C_8  and  C_9
REMARK    6  A    between atoms: C_8  and  C_10
REMARK    7  A    between atoms: C_13  and  C_25
REMARK    8  A    between atoms: C_14  and  N_16
REMARK    9  A    between atoms: N_16  and  C_17
REMARK   10  A    between atoms: C_17  and  C_18
REMARK   11  A    between atoms: C_18  and  C_19
REMARK                            x       y       z     vdW  Elec       q    Type
REMARK                         _______ _______ _______ _____ _____    ______ ____
ROOT
ATOM      1  C   UNL     1      -0.168  -2.252   3.734  0.00  0.00    +0.203 A 
ATOM      2  N   UNL     1       0.164  -2.974   2.708  0.00  0.00    -0.200 NA
ATOM      3  C   UNL     1      -0.054  -4.286   3.008  0.00  0.00    +0.201 A 
ATOM      4  C   UNL     1      -0.548  -4.322   4.301  0.00  0.00    +0.225 A 
ATOM      5  O   UNL     1      -0.602  -3.047   4.726  0.00  0.00    -0.425 OA
ENDROOT
BRANCH   1   7
ATOM      6  C   UNL     1      -1.181  -0.008   4.558  0.00  0.00    +0.031 C 
ATOM      7  C   UNL     1      -0.075  -0.750   3.804  0.00  0.00    +0.089 C 
ATOM      8  C   UNL     1      -1.118   0.060   3.031  0.00  0.00    -0.016 C 
ATOM      9  C   UNL     1      -0.663   1.378   2.401  0.00  0.00    +0.012 C 
ATOM     10  C   UNL     1      -2.176  -0.717   2.245  0.00  0.00    +0.012 C 
BRANCH   6  13
ATOM     11  C   UNL     1      -2.915   1.141   6.457  0.00  0.00    +0.038 C 
ATOM     12  C   UNL     1      -3.086  -0.301   6.056  0.00  0.00    -0.079 C 
ATOM     13  C   UNL     1      -2.280  -0.836   5.173  0.00  0.00    -0.023 C 
ATOM     14  C   UNL     1      -4.185  -1.129   6.671  0.00  0.00    +0.038 C 
ENDBRANCH   6  13
ENDBRANCH   1   7
BRANCH   4  15
ATOM     15  N   UNL     1      -0.910  -5.446   5.014  0.00  0.00    -0.313 N 
ATOM     16  H   UNL     1      -1.247  -5.358   5.920  0.00  0.00    +0.149 HD
BRANCH  15  17
ATOM     17  C   UNL     1      -0.784  -6.772   4.405  0.00  0.00    +0.109 C 
BRANCH  17  18
ATOM     18  C   UNL     1      -1.248  -7.837   5.401  0.00  0.00    +0.054 C 
BRANCH  18  19
ATOM     19  C   UNL     1      -1.118  -9.201   4.775  0.00  0.00    -0.046 A 
ATOM     20  C   UNL     1      -2.172  -9.736   4.058  0.00  0.00    +0.004 A 
ATOM     21  C   UNL     1      -2.054 -10.988   3.483  0.00  0.00    +0.000 A 
ATOM     22  C   UNL     1      -0.880 -11.704   3.625  0.00  0.00    +0.000 A 
ATOM     23  C   UNL     1       0.174 -11.170   4.341  0.00  0.00    +0.000 A 
ATOM     24  C   UNL     1       0.057  -9.916   4.912  0.00  0.00    +0.004 A 
ENDBRANCH  18  19
ENDBRANCH  17  18
ENDBRANCH  15  17
ENDBRANCH   4  15
BRANCH   3  25
ATOM     25  C   UNL     1       0.182  -5.409   2.152  0.00  0.00    +0.124 C 
ATOM     26  N   UNL     1       0.369  -6.300   1.472  0.00  0.00    -0.189 NA
ENDBRANCH   3  25
TORSDOF 7
