REMARK  Name = ZINC17112397
REMARK  5 active torsions:
REMARK  status: ('A' for Active; 'I' for Inactive)
REMARK    1  A    between atoms: C_1  and  N_53
REMARK    2  A    between atoms: C_3  and  C_26
REMARK    3  A    between atoms: C_5  and  C_17
REMARK    4  A    between atoms: C_17  and  C_19
REMARK    5  A    between atoms: C_29  and  N_32
REMARK                            x       y       z     vdW  Elec       q    Type
REMARK                         _______ _______ _______ _____ _____    ______ ____
ROOT
ATOM      1  C   UNL     1      -3.070   4.434  -0.879  0.00  0.00    -0.094 C 
ATOM      2  C   UNL     1      -1.018   3.342  -1.607  0.00  0.00    -0.068 C 
ATOM      3  C   UNL     1       0.426   3.258  -1.052  0.00  0.00    +0.012 C 
ATOM      4  C   UNL     1       0.507   4.485  -0.112  0.00  0.00    +0.068 C 
ATOM      5  C   UNL     1      -0.950   4.813   0.234  0.00  0.00    +0.050 C 
ATOM      6  C   UNL     1      -1.171   4.795   1.722  0.00  0.00    -0.027 A 
ATOM      7  C   UNL     1      -1.027   3.824   2.687  0.00  0.00    +0.004 A 
ATOM      8  C   UNL     1      -1.317   4.114   4.009  0.00  0.00    +0.000 A 
ATOM      9  C   UNL     1      -1.751   5.380   4.356  0.00  0.00    +0.002 A 
ATOM     10  C   UNL     1      -1.895   6.356   3.393  0.00  0.00    +0.023 A 
ATOM     11  C   UNL     1      -1.605   6.073   2.060  0.00  0.00    +0.036 A 
ATOM     12  N   UNL     1      -1.671   6.878   0.921  0.00  0.00    -0.286 N 
ATOM     13  C   UNL     1      -1.302   6.215  -0.191  0.00  0.00    +0.212 C 
ATOM     14  O   UNL     1      -1.262   6.661  -1.319  0.00  0.00    -0.277 OA
ATOM     15  H   UNL     1      -1.951   7.806   0.930  0.00  0.00    +0.155 HD
ATOM     16  N   UNL     1      -1.778   3.822  -0.445  0.00  0.00    +0.391 N 
ATOM     17  H   UNL     1      -1.972   3.038   0.189  0.00  0.00    -0.080 HD
ENDROOT
BRANCH   3  18
ATOM     18  C   UNL     1       1.434   3.373  -2.166  0.00  0.00    -0.045 A 
ATOM     19  C   UNL     1       1.028   3.243  -3.481  0.00  0.00    +0.006 A 
ATOM     20  C   UNL     1       1.951   3.353  -4.504  0.00  0.00    +0.033 A 
ATOM     21  C   UNL     1       3.283   3.583  -4.211  0.00  0.00    +0.126 A 
ATOM     22  C   UNL     1       3.689   3.708  -2.896  0.00  0.00    +0.033 A 
ATOM     23  C   UNL     1       2.765   3.603  -1.874  0.00  0.00    +0.006 A 
BRANCH  21  24
ATOM     24  N   UNL     1       4.272   3.696  -5.306  0.00  0.00    +0.056 N 
ATOM     25  O   UNL     1       5.445   3.899  -5.048  0.00  0.00    -0.126 OA
ATOM     26  O   UNL     1       3.914   3.586  -6.465  0.00  0.00    -0.126 OA
ENDBRANCH  21  24
ENDBRANCH   3  18
BRANCH   4  27
ATOM     27  C   UNL     1       1.154   5.647  -0.821  0.00  0.00    +0.166 C 
ATOM     28  O   UNL     1       0.969   5.812  -2.008  0.00  0.00    -0.292 OA
BRANCH  27  29
ATOM     29  C   UNL     1       2.010   6.580  -0.073  0.00  0.00    +0.018 A 
ATOM     30  C   UNL     1       2.221   6.395   1.298  0.00  0.00    +0.014 A 
ATOM     31  C   UNL     1       3.029   7.270   1.991  0.00  0.00    +0.039 A 
ATOM     32  C   UNL     1       3.623   8.338   1.335  0.00  0.00    +0.123 A 
ATOM     33  C   UNL     1       3.413   8.530  -0.022  0.00  0.00    +0.039 A 
ATOM     34  C   UNL     1       2.612   7.660  -0.729  0.00  0.00    +0.014 A 
ATOM     35  F   UNL     1       4.409   9.196   2.022  0.00  0.00    -0.205 F 
ENDBRANCH  27  29
ENDBRANCH   4  27
TORSDOF 4
