REMARK  Name = ZINC38741922
REMARK  6 active torsions:
REMARK  status: ('A' for Active; 'I' for Inactive)
REMARK    1  A    between atoms: C_10  and  C_12
REMARK    2  A    between atoms: N_14  and  C_15
REMARK    3  A    between atoms: C_15  and  C_16
REMARK    4  A    between atoms: C_16  and  C_17
REMARK    5  A    between atoms: C_17  and  N_18
REMARK    6  A    between atoms: C_19  and  C_21
REMARK                            x       y       z     vdW  Elec       q    Type
REMARK                         _______ _______ _______ _____ _____    ______ ____
ROOT
ATOM      1  C   UNL     1       6.057  -6.149  -0.087  0.00  0.00    +0.037 C 
ENDROOT
BRANCH   1   2
ATOM      2  C   UNL     1       6.279  -4.635  -0.082  0.00  0.00    +0.106 C 
BRANCH   2   5
ATOM      3  C   UNL     1       4.932  -2.605  -0.059  0.00  0.00    +0.281 C 
ATOM      4  O   UNL     1       5.960  -1.958  -0.066  0.00  0.00    -0.267 OA
ATOM      5  N   UNL     1       4.983  -3.951  -0.066  0.00  0.00    -0.309 N 
ATOM      6  H   UNL     1       4.162  -4.468  -0.060  0.00  0.00    +0.149 HD
BRANCH   3  16
ATOM      7  C   UNL     1      -0.016   1.360   0.009  0.00  0.00    +0.001 A 
ATOM      8  C   UNL     1       1.168   2.092   0.002  0.00  0.00    +0.002 A 
ATOM      9  C   UNL     1       2.380   1.469  -0.013  0.00  0.00    +0.028 A 
ATOM     10  C   UNL     1       2.437   0.067  -0.021  0.00  0.00    +0.079 A 
ATOM     11  C   UNL     1       1.229  -0.677  -0.013  0.00  0.00    +0.067 A 
ATOM     12  C   UNL     1       0.002  -0.004   0.002  0.00  0.00    +0.015 A 
ATOM     13  C   UNL     1       1.311  -2.090  -0.021  0.00  0.00    +0.281 A 
ATOM     14  O   UNL     1       0.191  -2.849  -0.014  0.00  0.00    -0.265 OA
ATOM     15  N   UNL     1       2.509  -2.648  -0.035  0.00  0.00    -0.184 NA
ATOM     16  C   UNL     1       3.618  -1.912  -0.043  0.00  0.00    +0.219 A 
ATOM     17  N   UNL     1       3.600  -0.594  -0.036  0.00  0.00    -0.223 NA
ENDBRANCH   3  16
ENDBRANCH   2   5
ENDBRANCH   1   2
BRANCH   1  18
ATOM     18  C   UNL     1       7.410  -6.862  -0.104  0.00  0.00    +0.106 C 
BRANCH  18  19
ATOM     19  N   UNL     1       7.198  -8.312  -0.109  0.00  0.00    -0.314 N 
ATOM     20  C   UNL     1       8.255  -9.148  -0.124  0.00  0.00    +0.228 C 
ATOM     21  O   UNL     1       9.382  -8.700  -0.132  0.00  0.00    -0.275 OA
ATOM     22  H   UNL     1       6.296  -8.670  -0.102  0.00  0.00    +0.149 HD
BRANCH  20  23
ATOM     23  C   UNL     1       8.036 -10.639  -0.129  0.00  0.00    +0.159 C 
ATOM     24  C   UNL     1       9.184 -11.379   0.594  0.00  0.00    +0.133 C 
ATOM     25  C   UNL     1       9.505 -12.697  -0.068  0.00  0.00    -0.015 A 
ATOM     26  C   UNL     1      10.174 -13.778   0.511  0.00  0.00    +0.007 A 
ATOM     27  C   UNL     1      10.423 -14.928  -0.204  0.00  0.00    +0.020 A 
ATOM     28  C   UNL     1      10.016 -15.045  -1.522  0.00  0.00    +0.042 A 
ATOM     29  C   UNL     1       9.345 -13.990  -2.114  0.00  0.00    +0.035 A 
ATOM     30  C   UNL     1       9.090 -12.841  -1.390  0.00  0.00    +0.015 A 
ATOM     31  S   UNL     1       8.234 -11.340  -1.819  0.00  0.00    -0.110 S 
ATOM     32 CL   UNL     1      10.343 -16.495  -2.419  0.00  0.00    -0.084 Cl
ATOM     33 CL   UNL     1       8.701 -11.686   2.304  0.00  0.00    -0.115 Cl
ENDBRANCH  20  23
ENDBRANCH  18  19
ENDBRANCH   1  18
TORSDOF 6
