REMARK  Name = ZINC19125683
REMARK  6 active torsions:
REMARK  status: ('A' for Active; 'I' for Inactive)
REMARK    1  A    between atoms: C_1  and  C_2
REMARK    2  A    between atoms: C_9  and  O_31
REMARK    3  A    between atoms: C_18  and  C_19
REMARK    4  A    between atoms: C_18  and  N_60
REMARK    5  A    between atoms: C_19  and  C_21
REMARK    6  A    between atoms: C_19  and  O_30
REMARK                            x       y       z     vdW  Elec       q    Type
REMARK                         _______ _______ _______ _____ _____    ______ ____
ROOT
ATOM      1  C   UNL     1      -8.082   1.363   7.834  0.00  0.00    +0.045 C 
ATOM      2  C   UNL     1      -8.138   0.392   6.683  0.00  0.00    -0.029 A 
ATOM      3  C   UNL     1      -7.605   0.740   5.459  0.00  0.00    +0.050 A 
ATOM      4  C   UNL     1      -7.655  -0.153   4.394  0.00  0.00    +0.127 A 
ATOM      5  C   UNL     1      -8.238  -1.396   4.567  0.00  0.00    +0.024 A 
ATOM      6  C   UNL     1      -8.773  -1.740   5.797  0.00  0.00    +0.030 A 
ATOM      7  C   UNL     1      -8.724  -0.850   6.853  0.00  0.00    +0.044 A 
ATOM      8 CL   UNL     1      -9.397  -1.289   8.392  0.00  0.00    -0.083 Cl
ATOM      9  C   UNL     1      -8.306  -2.397   3.442  0.00  0.00    +0.152 C 
ATOM     10  C   UNL     1      -8.079  -1.688   2.105  0.00  0.00    +0.084 C 
ATOM     11  C   UNL     1      -6.847  -0.786   2.240  0.00  0.00    +0.110 C 
ATOM     12  O   UNL     1      -7.128   0.230   3.201  0.00  0.00    -0.485 OA
ATOM     13  C   UNL     1      -5.651  -1.620   2.704  0.00  0.00    +0.029 C 
ATOM     14  C   UNL     1      -4.410  -0.727   2.779  0.00  0.00    -0.075 C 
ATOM     15  C   UNL     1      -5.261   0.701   1.015  0.00  0.00    -0.075 C 
ATOM     16  C   UNL     1      -6.528  -0.148   0.887  0.00  0.00    +0.029 C 
ATOM     17  N   UNL     1      -4.141  -0.168   1.437  0.00  0.00    +0.382 N 
ATOM     18  H   UNL     1      -4.048  -0.940   0.767  0.00  0.00    -0.082 HD
ENDROOT
BRANCH   9  19
ATOM     19  O   UNL     1      -9.592  -3.020   3.437  0.00  0.00    -0.387 OA
ATOM     20  H   UNL     1      -9.805  -3.490   4.255  0.00  0.00    +0.210 HD
ENDBRANCH   9  19
BRANCH  17  21
ATOM     21  C   UNL     1      -2.882   0.605   1.455  0.00  0.00    -0.042 C 
BRANCH  21  22
ATOM     22  C   UNL     1      -2.514   0.982   0.019  0.00  0.00    +0.128 C 
BRANCH  22  23
ATOM     23  C   UNL     1      -1.219   1.751   0.017  0.00  0.00    -0.021 A 
ATOM     24  C   UNL     1      -0.013   1.076   0.008  0.00  0.00    +0.006 A 
ATOM     25  C   UNL     1       1.173   1.783   0.000  0.00  0.00    +0.004 A 
ATOM     26  C   UNL     1       1.159   3.168   0.008  0.00  0.00    -0.044 A 
ATOM     27  C   UNL     1      -0.047   3.844   0.023  0.00  0.00    -0.044 A 
ATOM     28  C   UNL     1      -1.235   3.132   0.031  0.00  0.00    +0.010 A 
ATOM     29  C   UNL     1       0.203   5.336   0.029  0.00  0.00    +0.036 C 
ATOM     30  C   UNL     1       1.669   5.503  -0.424  0.00  0.00    +0.009 C 
ATOM     31  C   UNL     1       2.302   4.161   0.003  0.00  0.00    +0.036 C 
ENDBRANCH  22  23
BRANCH  22  32
ATOM     32  O   UNL     1      -2.364  -0.206  -0.762  0.00  0.00    -0.389 OA
ATOM     33  H   UNL     1      -1.676  -0.804  -0.439  0.00  0.00    +0.210 HD
ENDBRANCH  22  32
ENDBRANCH  21  22
ENDBRANCH  17  21
TORSDOF 5
