REMARK  Name = ZINC20751831
REMARK  7 active torsions:
REMARK  status: ('A' for Active; 'I' for Inactive)
REMARK    1  A    between atoms: C_1  and  C_2
REMARK    2  A    between atoms: C_2  and  C_3
REMARK    3  A    between atoms: C_2  and  N_4
REMARK    4  A    between atoms: N_4  and  S_5
REMARK    5  A    between atoms: S_5  and  C_8
REMARK    6  A    between atoms: C_21  and  C_24
REMARK    7  A    between atoms: C_33  and  O_34
REMARK                            x       y       z     vdW  Elec       q    Type
REMARK                         _______ _______ _______ _____ _____    ______ ____
ROOT
ATOM      1  C   UNL     1       7.531  -0.028  -0.739  0.00  0.00    +0.106 A 
ATOM      2  C   UNL     1       6.972  -0.313  -1.972  0.00  0.00    +0.030 A 
ATOM      3  C   UNL     1       5.620  -0.573  -2.067  0.00  0.00    +0.025 A 
ATOM      4  C   UNL     1       4.825  -0.547  -0.927  0.00  0.00    +0.031 A 
ATOM      5  C   UNL     1       5.381  -0.263   0.311  0.00  0.00    -0.018 A 
ATOM      6  C   UNL     1       6.742  -0.004   0.393  0.00  0.00    +0.034 A 
ATOM      7  C   UNL     1       4.567  -0.228   1.565  0.00  0.00    +0.049 C 
ATOM      8  C   UNL     1       4.327   1.190   2.026  0.00  0.00    -0.023 C 
ATOM      9  C   UNL     1       3.128   1.303   2.542  0.00  0.00    -0.030 C 
ATOM     10  C   UNL     1       2.404  -0.029   2.500  0.00  0.00    +0.033 C 
ATOM     11  C   UNL     1       3.152  -0.811   1.381  0.00  0.00    +0.029 C 
ATOM     12  C   UNL     1       2.570  -0.358   0.039  0.00  0.00    +0.109 C 
ATOM     13  N   UNL     1       3.455  -0.808  -1.040  0.00  0.00    -0.336 N 
ATOM     14  H   UNL     1       3.038  -1.338  -1.909  0.00  0.00    +0.147 HD
ENDROOT
BRANCH  12  15
ATOM     15  C   UNL     1       2.470   1.146   0.015  0.00  0.00    +0.022 A 
ATOM     16  C   UNL     1       1.335   1.786   0.540  0.00  0.00    -0.009 A 
ATOM     17  C   UNL     1       0.275   1.051   1.097  0.00  0.00    +0.009 A 
ATOM     18  C   UNL     1      -0.812   1.704   1.591  0.00  0.00    +0.001 A 
ATOM     19  C   UNL     1      -0.885   3.096   1.565  0.00  0.00    +0.001 A 
ATOM     20  C   UNL     1       0.123   3.841   1.034  0.00  0.00    +0.008 A 
ATOM     21  C   UNL     1       1.258   3.201   0.508  0.00  0.00    -0.017 A 
ATOM     22  C   UNL     1       2.318   3.939  -0.048  0.00  0.00    +0.012 A 
ATOM     23  C   UNL     1       3.402   3.289  -0.549  0.00  0.00    +0.046 A 
ATOM     24  C   UNL     1       3.481   1.893  -0.518  0.00  0.00    +0.122 A 
BRANCH  24  25
ATOM     25  O   UNL     1       4.578   1.272  -1.026  0.00  0.00    -0.506 OA
ATOM     26  H   UNL     1       5.396   1.867  -1.457  0.00  0.00    +0.292 HD
ENDBRANCH  24  25
ENDBRANCH  12  15
BRANCH   1  27
ATOM     27  S   UNL     1       9.256   0.305  -0.614  0.00  0.00    +0.059 S 
ATOM     28  O   UNL     1       9.677   0.757  -1.894  0.00  0.00    -0.153 OA
ATOM     29  O   UNL     1       9.436   1.078   0.565  0.00  0.00    -0.153 OA
BRANCH  27  30
ATOM     30  N   UNL     1      10.017  -1.143  -0.351  0.00  0.00    -0.187 NA
ATOM     31  H   UNL     1      10.394  -1.376   0.656  0.00  0.00    +0.148 HD
BRANCH  30  33
ATOM     32  C   UNL     1      11.258  -2.088  -2.234  0.00  0.00    +0.025 C 
ATOM     33  C   UNL     1       9.990  -2.182  -1.383  0.00  0.00    +0.070 C 
ATOM     34  C   UNL     1       9.924  -3.559  -0.718  0.00  0.00    +0.025 C 
ENDBRANCH  30  33
ENDBRANCH  27  30
ENDBRANCH   1  27
TORSDOF 5
