REMARK  Name = ZINC22023468
REMARK  7 active torsions:
REMARK  status: ('A' for Active; 'I' for Inactive)
REMARK    1  A    between atoms: C_1  and  C_2
REMARK    2  A    between atoms: C_5  and  C_26
REMARK    3  A    between atoms: C_6  and  S_8
REMARK    4  A    between atoms: S_8  and  N_11
REMARK    5  A    between atoms: C_15  and  S_22
REMARK    6  A    between atoms: C_19  and  C_21
REMARK    7  A    between atoms: S_22  and  N_25
REMARK                            x       y       z     vdW  Elec       q    Type
REMARK                         _______ _______ _______ _____ _____    ______ ____
ROOT
ATOM      1  N   UNL     1       2.506   3.687  -0.006  0.00  0.00    -0.200 N 
ATOM      2  C   UNL     1       1.240   3.104   0.061  0.00  0.00    +0.055 A 
ATOM      3  C   UNL     1      -0.013   3.717   0.143  0.00  0.00    +0.027 A 
ATOM      4  C   UNL     1      -1.158   2.952   0.200  0.00  0.00    +0.030 A 
ATOM      5  C   UNL     1      -1.075   1.571   0.171  0.00  0.00    +0.105 A 
ATOM      6  C   UNL     1       0.161   0.958   0.095  0.00  0.00    +0.034 A 
ATOM      7  C   UNL     1       1.312   1.721   0.038  0.00  0.00    -0.021 A 
ATOM      8  C   UNL     1       2.766   1.316  -0.053  0.00  0.00    +0.061 C 
ATOM      9  C   UNL     1       3.536   2.647  -0.080  0.00  0.00    +0.099 C 
ATOM     10  C   UNL     1       4.476   2.743   1.123  0.00  0.00    +0.030 C 
ENDROOT
BRANCH   1  11
ATOM     11  S   UNL     1       2.803   5.316  -0.001  0.00  0.00    +0.075 S 
ATOM     12  O   UNL     1       4.126   5.490  -0.488  0.00  0.00    -0.150 OA
ATOM     13  O   UNL     1       1.679   5.936  -0.611  0.00  0.00    -0.150 OA
BRANCH  11  19
ATOM     14  C   UNL     1       1.803   4.499   5.064  0.00  0.00    +0.044 C 
ATOM     15  C   UNL     1       2.335   5.412   3.989  0.00  0.00    -0.049 A 
ATOM     16  C   UNL     1       2.831   6.658   4.323  0.00  0.00    +0.004 A 
ATOM     17  C   UNL     1       3.319   7.494   3.337  0.00  0.00    +0.005 A 
ATOM     18  C   UNL     1       3.314   7.083   2.017  0.00  0.00    -0.024 A 
ATOM     19  C   UNL     1       2.813   5.839   1.682  0.00  0.00    +0.112 A 
ATOM     20  C   UNL     1       2.326   5.002   2.669  0.00  0.00    +0.032 A 
ATOM     21  C   UNL     1       3.851   7.993   0.942  0.00  0.00    +0.046 C 
ENDBRANCH  11  19
ENDBRANCH   1  11
BRANCH   5  22
ATOM     22  S   UNL     1      -2.542   0.597   0.236  0.00  0.00    +0.056 S 
ATOM     23  O   UNL     1      -3.597   1.418  -0.247  0.00  0.00    -0.153 OA
ATOM     24  O   UNL     1      -2.223  -0.657  -0.351  0.00  0.00    -0.153 OA
BRANCH  22  25
ATOM     25  N   UNL     1      -2.865   0.304   1.834  0.00  0.00    -0.204 NA
ATOM     26  H   UNL     1      -3.777  -0.304   1.918  0.00  0.00    +0.144 HD
ATOM     27  H   UNL     1      -3.011   1.260   2.359  0.00  0.00    +0.144 HD
ENDBRANCH  22  25
ENDBRANCH   5  22
TORSDOF 4
