REMARK  Name = ZINC43763190
REMARK  1 active torsions:
REMARK  status: ('A' for Active; 'I' for Inactive)
REMARK    1  A    between atoms: C_12  and  O_16
REMARK                            x       y       z     vdW  Elec       q    Type
REMARK                         _______ _______ _______ _____ _____    ______ ____
ROOT
ATOM      1  C   UNL     1      -0.019   1.536   0.011  0.00  0.00    +0.004 C 
ATOM      2  C   UNL     1       1.462   2.003  -0.001  0.00  0.00    +0.004 C 
ATOM      3  C   UNL     1       2.229   0.658  -0.349  0.00  0.00    -0.004 C 
ATOM      4  C   UNL     1       1.420  -0.257   0.667  0.00  0.00    +0.008 C 
ATOM      5  C   UNL     1       0.002  -0.004   0.002  0.00  0.00    -0.003 C 
ATOM      6  C   UNL     1       0.355  -0.573  -1.365  0.00  0.00    +0.021 C 
ATOM      7  C   UNL     1       1.615   0.370  -1.674  0.00  0.00    +0.032 C 
ATOM      8  C   UNL     1       1.916  -0.002  -3.060  0.00  0.00    +0.141 C 
ATOM      9  C   UNL     1       0.480   0.001  -3.632  0.00  0.00    +0.000 C 
ATOM     10  C   UNL     1      -0.434  -0.315  -2.603  0.00  0.00    -0.025 C 
ENDROOT
BRANCH   8  11
ATOM     11  O   UNL     1       2.507  -1.301  -3.136  0.00  0.00    -0.387 OA
ATOM     12  H   UNL     1       2.721  -1.584  -4.036  0.00  0.00    +0.210 HD
ENDBRANCH   8  11
TORSDOF 1
