REMARK  Name = ZINC03405376
REMARK  7 active torsions:
REMARK  status: ('A' for Active; 'I' for Inactive)
REMARK    1  A    between atoms: C_1  and  C_2
REMARK    2  A    between atoms: C_2  and  N_3
REMARK    3  A    between atoms: C_11  and  S_12
REMARK    4  A    between atoms: S_12  and  C_13
REMARK    5  A    between atoms: C_13  and  C_14
REMARK    6  A    between atoms: N_20  and  C_21
REMARK    7  A    between atoms: C_26  and  C_27
REMARK                            x       y       z     vdW  Elec       q    Type
REMARK                         _______ _______ _______ _____ _____    ______ ____
ROOT
ATOM      1  C   UNL     1       0.265  -4.418  -0.025  0.00  0.00    +0.146 A 
ATOM      2  N   UNL     1       0.341  -5.065  -1.175  0.00  0.00    -0.199 NA
ATOM      3  C   UNL     1       0.521  -6.384  -1.188  0.00  0.00    +0.217 A 
ATOM      4  N   UNL     1       0.613  -7.051  -0.043  0.00  0.00    -0.181 NA
ATOM      5  C   UNL     1       0.530  -6.398   1.111  0.00  0.00    +0.224 A 
ATOM      6  N   UNL     1       0.356  -5.079   1.116  0.00  0.00    -0.198 NA
ATOM      7  N   UNL     1       0.626  -7.088   2.304  0.00  0.00    -0.283 N 
ATOM      8  N   UNL     1       0.606  -7.058  -2.389  0.00  0.00    -0.327 N 
ATOM      9  H   UNL     1       0.652  -6.603   3.144  0.00  0.00    +0.155 HD
ATOM     10  H   UNL     1       0.733  -8.019  -2.398  0.00  0.00    +0.145 HD
ATOM     11  H   UNL     1       0.538  -6.569  -3.225  0.00  0.00    +0.145 HD
ENDROOT
BRANCH   7  12
ATOM     12  C   UNL     1       0.685  -8.485   2.302  0.00  0.00    +0.036 A 
ATOM     13  C   UNL     1       0.151  -9.202   1.239  0.00  0.00    +0.023 A 
ATOM     14  C   UNL     1       0.216 -10.582   1.237  0.00  0.00    +0.002 A 
ATOM     15  C   UNL     1       0.803 -11.249   2.296  0.00  0.00    +0.000 A 
ATOM     16  C   UNL     1       1.331 -10.539   3.358  0.00  0.00    +0.005 A 
ATOM     17  C   UNL     1       1.274  -9.158   3.364  0.00  0.00    -0.029 A 
ATOM     18  C   UNL     1       1.849  -8.384   4.522  0.00  0.00    +0.045 C 
ENDBRANCH   7  12
BRANCH   1  19
ATOM     19  C   UNL     1       0.068  -2.924  -0.014  0.00  0.00    +0.153 C 
BRANCH  19  20
ATOM     20  S   UNL     1       1.681  -2.103  -0.016  0.00  0.00    -0.080 S 
BRANCH  20  29
ATOM     21  N   UNL     1       2.006   0.660  -0.000  0.00  0.00    -0.319 N 
ATOM     22  C   UNL     1       1.214   1.797   0.010  0.00  0.00    +0.069 A 
ATOM     23  C   UNL     1       1.485   3.157   0.018  0.00  0.00    +0.028 A 
ATOM     24  C   UNL     1       0.446   4.065   0.028  0.00  0.00    +0.002 A 
ATOM     25  C   UNL     1      -0.870   3.626   0.032  0.00  0.00    +0.002 A 
ATOM     26  C   UNL     1      -1.157   2.280   0.030  0.00  0.00    +0.030 A 
ATOM     27  C   UNL     1      -0.116   1.347   0.014  0.00  0.00    +0.090 A 
ATOM     28  N   UNL     1      -0.080  -0.011   0.005  0.00  0.00    -0.222 NA
ATOM     29  C   UNL     1       1.166  -0.417  -0.003  0.00  0.00    +0.170 A 
BRANCH  21  31
ATOM     30  C   UNL     1       3.973   0.617  -1.452  0.00  0.00    +0.027 C 
ATOM     31  C   UNL     1       3.470   0.621  -0.007  0.00  0.00    +0.121 C 
ENDBRANCH  21  31
ENDBRANCH  20  29
ENDBRANCH  19  20
ENDBRANCH   1  19
TORSDOF 5
