REMARK  Name = ZINC16357286
REMARK  5 active torsions:
REMARK  status: ('A' for Active; 'I' for Inactive)
REMARK    1  A    between atoms: C_5  and  N_7
REMARK    2  A    between atoms: N_10  and  C_14
REMARK    3  A    between atoms: C_14  and  N_15
REMARK    4  A    between atoms: N_18  and  C_21
REMARK    5  A    between atoms: C_26  and  N_27
REMARK                            x       y       z     vdW  Elec       q    Type
REMARK                         _______ _______ _______ _____ _____    ______ ____
ROOT
ATOM      1  C   UNL     1       4.786  -1.780  -0.287  0.00  0.00    +0.232 C 
ENDROOT
BRANCH   1   5
ATOM      2  N   UNL     1       6.285  -3.122  -4.758  0.00  0.00    -0.290 N 
ATOM      3  C   UNL     1       5.780  -3.299  -3.476  0.00  0.00    +0.185 A 
ATOM      4  N   UNL     1       5.551  -2.405  -2.550  0.00  0.00    -0.146 NA
ATOM      5  N   UNL     1       5.043  -2.779  -1.327  0.00  0.00    -0.234 N 
ATOM      6  C   UNL     1       4.791  -4.093  -1.103  0.00  0.00    +0.146 A 
ATOM      7  S   UNL     1       4.173  -4.859   0.298  0.00  0.00    -0.023 S 
ATOM      8  S   UNL     1       5.276  -4.809  -2.666  0.00  0.00    -0.026 S 
ATOM      9  H   UNL     1       6.661  -2.136  -5.068  0.00  0.00    +0.154 HD
BRANCH   2  14
ATOM     10  C   UNL     1       5.375  -6.245  -6.470  0.00  0.00    +0.002 A 
ATOM     11  C   UNL     1       6.372  -6.322  -7.425  0.00  0.00    +0.003 A 
ATOM     12  C   UNL     1       7.341  -5.339  -7.498  0.00  0.00    +0.040 A 
ATOM     13  C   UNL     1       7.313  -4.272  -6.618  0.00  0.00    +0.144 A 
ATOM     14  C   UNL     1       6.314  -4.196  -5.653  0.00  0.00    +0.068 A 
ATOM     15  C   UNL     1       5.343  -5.186  -5.585  0.00  0.00    +0.026 A 
ATOM     16  F   UNL     1       8.257  -3.308  -6.692  0.00  0.00    -0.204 F 
ENDBRANCH   2  14
ENDBRANCH   1   5
BRANCH   1  17
ATOM     17  N   UNL     1       3.413  -1.276  -0.421  0.00  0.00    -0.281 NA
ATOM     18  C   UNL     1       3.038  -0.454   0.737  0.00  0.00    +0.105 C 
ATOM     19  C   UNL     1       1.578  -0.016   0.597  0.00  0.00    +0.120 C 
ATOM     20  N   UNL     1       1.413   0.737  -0.654  0.00  0.00    -0.326 N 
ATOM     21  C   UNL     1       1.788  -0.085  -1.813  0.00  0.00    +0.120 C 
ATOM     22  C   UNL     1       3.248  -0.524  -1.673  0.00  0.00    +0.105 C 
BRANCH  20  23
ATOM     23  C   UNL     1       0.107   1.216  -0.782  0.00  0.00    +0.060 A 
ATOM     24  C   UNL     1      -0.961   0.328  -0.809  0.00  0.00    +0.027 A 
ATOM     25  C   UNL     1      -2.250   0.804  -0.942  0.00  0.00    +0.022 A 
ATOM     26  C   UNL     1      -2.480   2.166  -1.036  0.00  0.00    +0.043 A 
ATOM     27  C   UNL     1      -1.419   3.053  -1.009  0.00  0.00    +0.054 A 
ATOM     28  C   UNL     1      -0.126   2.582  -0.882  0.00  0.00    +0.148 A 
ATOM     29 CL   UNL     1      -4.103   2.761  -1.195  0.00  0.00    -0.083 Cl
BRANCH  28  30
ATOM     30  N   UNL     1       1.009   3.531  -0.853  0.00  0.00    +0.058 N 
ATOM     31  O   UNL     1       0.804   4.729  -0.940  0.00  0.00    -0.126 OA
ATOM     32  O   UNL     1       2.148   3.115  -0.740  0.00  0.00    -0.126 OA
ENDBRANCH  28  30
ENDBRANCH  20  23
ENDBRANCH   1  17
TORSDOF 5
