REMARK  Name = ZINC16022541
REMARK  3 active torsions:
REMARK  status: ('A' for Active; 'I' for Inactive)
REMARK    1  A    between atoms: N_11  and  C_14
REMARK    2  A    between atoms: C_14  and  C_15
REMARK    3  A    between atoms: N_17  and  C_18
REMARK                            x       y       z     vdW  Elec       q    Type
REMARK                         _______ _______ _______ _____ _____    ______ ____
ROOT
ATOM      1  C   UNL     1       2.337  -3.101  -4.227  0.00  0.00    +0.231 C 
ATOM      2  O   UNL     1       1.707  -2.159  -4.660  0.00  0.00    -0.274 OA
ATOM      3  N   UNL     1       2.687  -4.112  -5.047  0.00  0.00    -0.308 N 
ATOM      4  H   UNL     1       3.191  -4.865  -4.701  0.00  0.00    +0.149 HD
ENDROOT
BRANCH   3   5
ATOM      5  C   UNL     1       2.307  -4.073  -6.462  0.00  0.00    +0.035 C 
ATOM      6  C   UNL     1       0.782  -4.013  -6.578  0.00  0.00    +0.029 C 
ATOM      7  C   UNL     1       0.385  -3.972  -8.055  0.00  0.00    -0.008 C 
ATOM      8  C   UNL     1       0.902  -5.230  -8.757  0.00  0.00    +0.007 C 
ATOM      9  C   UNL     1       2.426  -5.290  -8.640  0.00  0.00    -0.008 C 
ATOM     10  C   UNL     1       2.823  -5.331  -7.163  0.00  0.00    +0.029 C 
ATOM     11  C   UNL     1       3.037  -4.051  -9.299  0.00  0.00    +0.007 C 
ATOM     12  C   UNL     1       2.521  -2.793  -8.597  0.00  0.00    -0.008 C 
ATOM     13  C   UNL     1       0.996  -2.734  -8.714  0.00  0.00    +0.007 C 
ATOM     14  C   UNL     1       2.918  -2.834  -7.120  0.00  0.00    +0.029 C 
ENDBRANCH   3   5
BRANCH   1  15
ATOM     15  C   UNL     1       2.728  -3.142  -2.772  0.00  0.00    +0.212 C 
BRANCH  15  24
ATOM     16  C   UNL     1      -0.019   1.538   0.011  0.00  0.00    +0.001 C 
ATOM     17  C   UNL     1       1.388   2.125   0.000  0.00  0.00    +0.001 C 
ATOM     18  C   UNL     1       2.242   1.563  -1.151  0.00  0.00    +0.013 C 
ATOM     19  C   UNL     1       2.243   0.061  -0.998  0.00  0.00    +0.087 C 
ATOM     20  C   UNL     1       0.777  -0.409  -1.233  0.00  0.00    +0.087 C 
ATOM     21  C   UNL     1       0.002  -0.004   0.002  0.00  0.00    +0.013 C 
ATOM     22  C   UNL     1       1.010  -1.860  -1.511  0.00  0.00    +0.226 C 
ATOM     23  O   UNL     1       0.261  -2.780  -1.263  0.00  0.00    -0.275 OA
ATOM     24  N   UNL     1       2.234  -1.937  -2.100  0.00  0.00    -0.233 N 
ATOM     25  C   UNL     1       2.961  -0.787  -1.999  0.00  0.00    +0.226 C 
ATOM     26  O   UNL     1       3.976  -0.506  -2.599  0.00  0.00    -0.275 OA
ENDBRANCH  15  24
ENDBRANCH   1  15
TORSDOF 3
