REMARK  Name = ZINC20874537
REMARK  7 active torsions:
REMARK  status: ('A' for Active; 'I' for Inactive)
REMARK    1  A    between atoms: C_1  and  C_2
REMARK    2  A    between atoms: C_5  and  C_8
REMARK    3  A    between atoms: C_8  and  O_9
REMARK    4  A    between atoms: O_9  and  C_10
REMARK    5  A    between atoms: C_15  and  C_16
REMARK    6  A    between atoms: C_16  and  N_17
REMARK    7  A    between atoms: N_17  and  C_18
REMARK                            x       y       z     vdW  Elec       q    Type
REMARK                         _______ _______ _______ _____ _____    ______ ____
ROOT
ATOM      1  C   UNL     1      -1.087   7.820  -1.488  0.00  0.00    +0.122 A 
ATOM      2  C   UNL     1      -1.092   9.207  -1.453  0.00  0.00    +0.047 A 
ATOM      3  C   UNL     1      -2.213   9.882  -1.013  0.00  0.00    +0.019 A 
ATOM      4  C   UNL     1      -3.334   9.176  -0.613  0.00  0.00    +0.018 A 
ATOM      5  C   UNL     1      -3.334   7.794  -0.652  0.00  0.00    +0.020 A 
ATOM      6  C   UNL     1      -2.214   7.115  -1.091  0.00  0.00    -0.022 A 
ATOM      7 BR   UNL     1      -4.868  10.103  -0.010  0.00  0.00    -0.050 Br
ENDROOT
BRANCH   1   8
ATOM      8  O   UNL     1       0.018   7.154  -1.915  0.00  0.00    -0.487 OA
BRANCH   8   9
ATOM      9  C   UNL     1       1.141   7.945  -2.308  0.00  0.00    +0.264 C 
BRANCH   9  14
ATOM     10  C   UNL     1       5.445   4.478  -3.995  0.00  0.00    +0.044 C 
ATOM     11  C   UNL     1       4.323   5.382  -3.555  0.00  0.00    -0.050 A 
ATOM     12  C   UNL     1       3.393   5.828  -4.476  0.00  0.00    +0.004 A 
ATOM     13  C   UNL     1       2.363   6.657  -4.072  0.00  0.00    +0.007 A 
ATOM     14  C   UNL     1       2.263   7.041  -2.748  0.00  0.00    -0.010 A 
ATOM     15  C   UNL     1       3.196   6.599  -1.828  0.00  0.00    +0.007 A 
ATOM     16  C   UNL     1       4.223   5.766  -2.231  0.00  0.00    +0.004 A 
ENDBRANCH   9  14
ENDBRANCH   8   9
ENDBRANCH   1   8
BRANCH   6  17
ATOM     17  C   UNL     1      -2.214   5.608  -1.135  0.00  0.00    -0.042 C 
BRANCH  17  18
ATOM     18  N   UNL     1      -1.510   5.085   0.044  0.00  0.00    +0.386 N 
ATOM     19  H   UNL     1      -0.472   5.452   0.044  0.00  0.00    -0.085 HD
ATOM     20  H   UNL     1      -2.019   5.426   0.957  0.00  0.00    -0.085 HD
BRANCH  18  21
ATOM     21  C   UNL     1      -1.490   3.616   0.036  0.00  0.00    -0.067 C 
ATOM     22  C   UNL     1      -0.773   3.123  -1.223  0.00  0.00    -0.009 C 
ATOM     23  C   UNL     1      -0.753   1.593  -1.232  0.00  0.00    -0.012 C 
ATOM     24  C   UNL     1      -0.013   1.086   0.008  0.00  0.00    +0.007 C 
ATOM     25  C   UNL     1      -0.729   1.579   1.267  0.00  0.00    -0.012 C 
ATOM     26  C   UNL     1      -0.750   3.109   1.275  0.00  0.00    -0.009 C 
ATOM     27  C   UNL     1      -2.164   1.050   1.278  0.00  0.00    +0.007 C 
ATOM     28  C   UNL     1      -2.904   1.556   0.038  0.00  0.00    -0.012 C 
ATOM     29  C   UNL     1      -2.188   1.063  -1.221  0.00  0.00    +0.007 C 
ATOM     30  C   UNL     1      -2.925   3.086   0.047  0.00  0.00    -0.009 C 
ENDBRANCH  18  21
ENDBRANCH  17  18
ENDBRANCH   6  17
TORSDOF 6
