REMARK  Name = ZINC63279913
REMARK  8 active torsions:
REMARK  status: ('A' for Active; 'I' for Inactive)
REMARK    1  A    between atoms: C_1  and  C_2
REMARK    2  A    between atoms: C_2  and  C_4
REMARK    3  A    between atoms: C_2  and  N_14
REMARK    4  A    between atoms: C_4  and  C_5
REMARK    5  A    between atoms: C_15  and  C_17
REMARK    6  A    between atoms: C_21  and  C_24
REMARK    7  A    between atoms: C_28  and  O_30
REMARK    8  A    between atoms: O_30  and  C_31
REMARK                            x       y       z     vdW  Elec       q    Type
REMARK                         _______ _______ _______ _____ _____    ______ ____
ROOT
ATOM      1  N   UNL     1       0.740  -0.323   1.236  0.00  0.00    -0.309 N 
ATOM      2  C   UNL     1       2.046  -0.645   1.161  0.00  0.00    +0.239 C 
ATOM      3  O   UNL     1       2.631  -0.572   0.095  0.00  0.00    -0.271 OA
ATOM      4  H   UNL     1       0.274  -0.381   2.084  0.00  0.00    +0.149 HD
ENDROOT
BRANCH   2   5
ATOM      5  C   UNL     1       2.738  -1.068   2.320  0.00  0.00    +0.086 C 
ATOM      6  C   UNL     1       4.070  -1.275   2.272  0.00  0.00    +0.020 C 
ATOM      7  C   UNL     1       4.841  -1.883   3.438  0.00  0.00    +0.121 C 
ATOM      8  S   UNL     1       6.226  -2.679   2.513  0.00  0.00    -0.128 S 
ATOM      9  C   UNL     1       6.099  -1.647   0.992  0.00  0.00    +0.159 C 
ATOM     10  N   UNL     1       4.810  -0.962   1.188  0.00  0.00    -0.331 N 
ATOM     11  H   UNL     1       4.501  -0.298   0.552  0.00  0.00    +0.147 HD
BRANCH   9  12
ATOM     12  C   UNL     1       6.066  -2.511  -0.243  0.00  0.00    -0.014 A 
ATOM     13  C   UNL     1       4.857  -2.976  -0.728  0.00  0.00    +0.006 A 
ATOM     14  C   UNL     1       4.823  -3.769  -1.860  0.00  0.00    +0.004 A 
ATOM     15  C   UNL     1       5.997  -4.099  -2.509  0.00  0.00    +0.045 A 
ATOM     16  C   UNL     1       7.211  -3.634  -2.024  0.00  0.00    +0.120 A 
ATOM     17  C   UNL     1       7.242  -2.833  -0.891  0.00  0.00    +0.052 A 
BRANCH  16  18
ATOM     18  O   UNL     1       8.367  -3.957  -2.661  0.00  0.00    -0.495 OA
ATOM     19  C   UNL     1       8.259  -4.780  -3.824  0.00  0.00    +0.277 C 
ENDBRANCH  16  18
ENDBRANCH   9  12
ENDBRANCH   2   5
BRANCH   1  21
ATOM     20  C   UNL     1       0.232   1.619  -0.163  0.00  0.00    +0.028 C 
ATOM     21  C   UNL     1       0.024   0.116   0.035  0.00  0.00    +0.074 C 
BRANCH  21  22
ATOM     22  C   UNL     1      -1.470  -0.175   0.198  0.00  0.00    +0.055 C 
BRANCH  22  23
ATOM     23  C   UNL     1      -1.687  -1.664   0.270  0.00  0.00    -0.040 C 
ATOM     24  C   UNL     1      -1.792  -2.417   1.388  0.00  0.00    -0.001 A 
ATOM     25  C   UNL     1      -1.738  -2.088   2.817  0.00  0.00    +0.010 A 
ATOM     26  C   UNL     1      -1.879  -3.081   3.725  0.00  0.00    +0.001 A 
ATOM     27  C   UNL     1      -2.075  -4.413   3.335  0.00  0.00    +0.002 A 
ATOM     28  C   UNL     1      -2.136  -4.793   2.042  0.00  0.00    +0.026 A 
ATOM     29  C   UNL     1      -2.001  -3.832   1.003  0.00  0.00    +0.043 A 
ATOM     30  N   UNL     1      -2.023  -3.948  -0.303  0.00  0.00    -0.380 N 
ATOM     31  C   UNL     1      -1.837  -2.618  -0.894  0.00  0.00    +0.144 C 
ATOM     32  H   UNL     1      -2.146  -4.774  -0.795  0.00  0.00    +0.160 HD
ENDBRANCH  22  23
ENDBRANCH  21  22
ENDBRANCH   1  21
TORSDOF 6
