REMARK  Name = ZINC10048492
REMARK  13 active torsions:
REMARK  status: ('A' for Active; 'I' for Inactive)
REMARK    1  A    between atoms: C_1  and  C_2
REMARK    2  A    between atoms: C_4  and  C_38
REMARK    3  A    between atoms: C_6  and  N_8
REMARK    4  A    between atoms: C_9  and  C_37
REMARK    5  A    between atoms: C_10  and  C_36
REMARK    6  A    between atoms: N_18  and  C_23
REMARK    7  A    between atoms: N_21  and  C_22
REMARK    8  A    between atoms: C_23  and  C_24
REMARK    9  A    between atoms: C_24  and  C_26
REMARK   10  A    between atoms: C_24  and  C_27
REMARK   11  A    between atoms: C_27  and  N_28
REMARK   12  A    between atoms: N_28  and  C_29
REMARK   13  A    between atoms: C_34  and  N_35
REMARK                            x       y       z     vdW  Elec       q    Type
REMARK                         _______ _______ _______ _____ _____    ______ ____
ROOT
ATOM      1  N   UNL     1      -1.290  -3.164  -0.003  0.00  0.00    -0.282 N 
ATOM      2  C   UNL     1      -2.528  -2.547   0.013  0.00  0.00    +0.043 A 
ATOM      3  C   UNL     1      -2.337  -1.232   0.018  0.00  0.00    +0.044 A 
ATOM      4  N   UNL     1      -0.974  -0.989   0.006  0.00  0.00    -0.274 N 
ATOM      5  C   UNL     1      -0.333  -2.181  -0.006  0.00  0.00    +0.223 A 
ATOM      6  N   UNL     1       0.976  -1.974  -0.018  0.00  0.00    -0.193 NA
ATOM      7  C   UNL     1       1.228  -0.667  -0.013  0.00  0.00    +0.170 A 
ATOM      8  C   UNL     1       0.002  -0.004   0.002  0.00  0.00    +0.157 A 
ATOM      9  C   UNL     1      -0.017   1.400   0.010  0.00  0.00    +0.283 A 
ATOM     10  O   UNL     1      -1.077   2.002   0.018  0.00  0.00    -0.265 OA
ATOM     11  N   UNL     1       1.150   2.077   0.002  0.00  0.00    -0.259 N 
ATOM     12  C   UNL     1       2.327   1.429  -0.013  0.00  0.00    +0.333 A 
ATOM     13  O   UNL     1       3.359   2.074  -0.019  0.00  0.00    -0.246 OA
ATOM     14  N   UNL     1       2.394   0.084  -0.020  0.00  0.00    -0.279 N 
ATOM     15  C   UNL     1       3.697  -0.585  -0.037  0.00  0.00    +0.155 C 
ATOM     16  C   UNL     1      -3.418  -0.183   0.034  0.00  0.00    +0.066 C 
ATOM     17  C   UNL     1      -3.864  -3.246   0.021  0.00  0.00    +0.066 C 
ENDROOT
BRANCH   1  23
ATOM     18  C   UNL     1      -1.646  -7.502  -2.291  0.00  0.00    +0.044 C 
ATOM     19  C   UNL     1      -1.218  -6.671  -1.109  0.00  0.00    -0.048 A 
ATOM     20  C   UNL     1      -0.594  -7.272  -0.032  0.00  0.00    +0.006 A 
ATOM     21  C   UNL     1      -0.200  -6.513   1.055  0.00  0.00    -0.048 A 
ATOM     22  C   UNL     1      -0.429  -5.152   1.067  0.00  0.00    +0.029 A 
ATOM     23  C   UNL     1      -1.056  -4.544  -0.013  0.00  0.00    +0.050 A 
ATOM     24  C   UNL     1      -1.455  -5.310  -1.101  0.00  0.00    +0.029 A 
ATOM     25  C   UNL     1       0.481  -7.173   2.226  0.00  0.00    +0.044 C 
ENDBRANCH   1  23
BRANCH  11  26
ATOM     26  C   UNL     1       1.133   3.542   0.010  0.00  0.00    +0.134 C 
BRANCH  26  27
ATOM     27  C   UNL     1       1.141   4.044   1.456  0.00  0.00    +0.023 C 
ATOM     28  C   UNL     1      -0.155   3.621   2.150  0.00  0.00    +0.011 C 
BRANCH  27  29
ATOM     29  C   UNL     1       1.250   5.570   1.464  0.00  0.00    +0.106 C 
BRANCH  29  30
ATOM     30  N   UNL     1       1.378   6.043   2.845  0.00  0.00    -0.342 N 
ATOM     31  H   UNL     1       1.383   5.406   3.577  0.00  0.00    +0.146 HD
BRANCH  30  32
ATOM     32  C   UNL     1       1.493   7.413   3.109  0.00  0.00    +0.048 A 
ATOM     33  C   UNL     1       1.492   8.325   2.064  0.00  0.00    +0.025 A 
ATOM     34  C   UNL     1       1.601   9.678   2.326  0.00  0.00    +0.002 A 
ATOM     35  C   UNL     1       1.721  10.126   3.629  0.00  0.00    +0.002 A 
ATOM     36  C   UNL     1       1.729   9.223   4.676  0.00  0.00    +0.024 A 
ATOM     37  C   UNL     1       1.615   7.865   4.423  0.00  0.00    +0.046 A 
BRANCH  37  38
ATOM     38  N   UNL     1       1.622   6.950   5.482  0.00  0.00    -0.357 N 
ATOM     39  H   UNL     1       1.543   6.000   5.303  0.00  0.00    +0.142 HD
ATOM     40  H   UNL     1       1.707   7.265   6.395  0.00  0.00    +0.142 HD
ENDBRANCH  37  38
ENDBRANCH  30  32
ENDBRANCH  29  30
ENDBRANCH  27  29
ENDBRANCH  26  27
ENDBRANCH  11  26
TORSDOF 7
