REMARK  Name = ZINC05437657
REMARK  4 active torsions:
REMARK  status: ('A' for Active; 'I' for Inactive)
REMARK    1  A    between atoms: C_1  and  C_2
REMARK    2  A    between atoms: C_2  and  C_3
REMARK    3  A    between atoms: C_2  and  N_4
REMARK    4  A    between atoms: C_16  and  C_23
REMARK                            x       y       z     vdW  Elec       q    Type
REMARK                         _______ _______ _______ _____ _____    ______ ____
ROOT
ATOM      1  N   UNL     1      -1.931   0.872  -3.390  0.00  0.00    -0.297 N 
ATOM      2  C   UNL     1      -0.682   1.369  -3.487  0.00  0.00    +0.302 C 
ATOM      3  O   UNL     1      -0.090   1.325  -4.549  0.00  0.00    -0.253 OA
ATOM      4  N   UNL     1      -0.088   1.916  -2.408  0.00  0.00    -0.285 N 
ATOM      5  C   UNL     1      -0.824   2.077  -1.148  0.00  0.00    +0.114 C 
ATOM      6  C   UNL     1      -0.016   1.508   0.010  0.00  0.00    +0.027 C 
ATOM      7  C   UNL     1       1.415   2.048  -0.001  0.00  0.00    +0.018 C 
ATOM      8  C   UNL     1       2.068   1.657  -1.329  0.00  0.00    +0.054 C 
ATOM      9  C   UNL     1       1.312   2.365  -2.466  0.00  0.00    +0.119 C 
ATOM     10  C   UNL     1       1.933   0.168  -1.544  0.00  0.00    +0.035 A 
ATOM     11  C   UNL     1       2.862  -0.445  -2.363  0.00  0.00    +0.009 A 
ATOM     12  C   UNL     1       2.717  -1.807  -2.702  0.00  0.00    +0.016 A 
ATOM     13  C   UNL     1       1.637  -2.488  -2.227  0.00  0.00    +0.071 A 
ATOM     14  C   UNL     1       0.721  -1.832  -1.394  0.00  0.00    +0.252 A 
ATOM     15  O   UNL     1      -0.273  -2.428  -1.009  0.00  0.00    -0.268 OA
ATOM     16  N   UNL     1       0.918  -0.548  -1.008  0.00  0.00    -0.311 N 
ATOM     17  C   UNL     1       0.005  -0.009  -0.001  0.00  0.00    +0.130 C 
ATOM     18  H   UNL     1      -2.430   0.974  -2.565  0.00  0.00    +0.150 HD
ENDROOT
BRANCH  11  19
ATOM     19  C   UNL     1       4.010   0.328  -2.886  0.00  0.00    +0.021 A 
ATOM     20  C   UNL     1       5.345   0.169  -2.629  0.00  0.00    +0.016 A 
ATOM     21  C   UNL     1       6.243   1.017  -3.242  0.00  0.00    +0.008 A 
ATOM     22  C   UNL     1       5.777   1.986  -4.070  0.00  0.00    +0.046 A 
ATOM     23  S   UNL     1       4.014   1.715  -4.010  0.00  0.00    -0.097 S 
ENDBRANCH  11  19
BRANCH   1  25
ATOM     24  C   UNL     1      -3.606  -0.791  -4.030  0.00  0.00    +0.027 C 
ATOM     25  C   UNL     1      -2.534   0.179  -4.531  0.00  0.00    +0.068 C 
ATOM     26  C   UNL     1      -3.172   1.203  -5.471  0.00  0.00    +0.027 C 
ENDBRANCH   1  25
TORSDOF 2
