REMARK  Name = ZINC39442816
REMARK  11 active torsions:
REMARK  status: ('A' for Active; 'I' for Inactive)
REMARK    1  A    between atoms: C_1  and  C_2
REMARK    2  A    between atoms: C_4  and  C_9
REMARK    3  A    between atoms: N_6  and  C_8
REMARK    4  A    between atoms: C_9  and  N_10
REMARK    5  A    between atoms: N_10  and  C_11
REMARK    6  A    between atoms: N_10  and  C_12
REMARK    7  A    between atoms: C_12  and  C_14
REMARK    8  A    between atoms: C_12  and  C_22
REMARK    9  A    between atoms: C_14  and  C_15
REMARK   10  A    between atoms: N_25  and  C_28
REMARK   11  A    between atoms: C_28  and  C_29
REMARK                            x       y       z     vdW  Elec       q    Type
REMARK                         _______ _______ _______ _____ _____    ______ ____
ROOT
ATOM      1  C   UNL     1      -4.460   1.047  -1.415  0.00  0.00    -0.061 C 
ENDROOT
BRANCH   1   2
ATOM      2  C   UNL     1      -3.995   0.605  -2.804  0.00  0.00    -0.028 C 
ATOM      3  C   UNL     1      -2.885   1.540  -3.294  0.00  0.00    -0.017 C 
ATOM      4  C   UNL     1      -2.480   1.141  -4.714  0.00  0.00    -0.078 C 
ATOM      5  N   UNL     1      -3.641   1.247  -5.606  0.00  0.00    +0.383 N 
ATOM      6  C   UNL     1      -4.681   0.301  -5.185  0.00  0.00    -0.078 C 
ATOM      7  C   UNL     1      -5.171   0.667  -3.783  0.00  0.00    -0.017 C 
ATOM      8  H   UNL     1      -4.007   2.186  -5.570  0.00  0.00    -0.081 HD
BRANCH   5   9
ATOM      9  C   UNL     1      -3.229   0.938  -6.982  0.00  0.00    -0.025 C 
BRANCH   9  10
ATOM     10  C   UNL     1      -4.389   1.165  -7.917  0.00  0.00    +0.000 A 
ATOM     11  H   UNL     1      -5.417  -0.643  -7.814  0.00  0.00    +0.166 HD
ATOM     12  C   UNL     1      -4.612   2.295  -8.608  0.00  0.00    +0.029 A 
ATOM     13  C   UNL     1      -5.838   2.086  -9.384  0.00  0.00    -0.000 A 
ATOM     14  C   UNL     1      -6.567   2.875 -10.275  0.00  0.00    +0.010 A 
ATOM     15  C   UNL     1      -7.702   2.376 -10.851  0.00  0.00    +0.001 A 
ATOM     16  C   UNL     1      -8.135   1.091 -10.555  0.00  0.00    +0.002 A 
ATOM     17  C   UNL     1      -7.430   0.295  -9.678  0.00  0.00    +0.026 A 
ATOM     18  C   UNL     1      -6.273   0.783  -9.081  0.00  0.00    +0.047 A 
ATOM     19  N   UNL     1      -5.367   0.249  -8.192  0.00  0.00    -0.360 N 
ENDBRANCH   9  10
ENDBRANCH   5   9
ENDBRANCH   1   2
BRANCH   1  20
ATOM     20  N   UNL     1      -3.488   0.602  -0.408  0.00  0.00    +0.383 N 
ATOM     21  C   UNL     1      -3.861   1.144   0.905  0.00  0.00    -0.095 C 
ATOM     22  H   UNL     1      -2.568   0.931  -0.659  0.00  0.00    -0.081 HD
BRANCH  20  23
ATOM     23  C   UNL     1      -3.483  -0.866  -0.348  0.00  0.00    -0.045 C 
BRANCH  23  26
ATOM     24  C   UNL     1      -0.304  -0.223  -0.205  0.00  0.00    +0.030 C 
ATOM     25  C   UNL     1      -0.940  -1.536   0.259  0.00  0.00    +0.095 C 
ATOM     26  C   UNL     1      -2.401  -1.326   0.595  0.00  0.00    -0.053 C 
ATOM     27  C   UNL     1      -2.545  -1.623   1.870  0.00  0.00    +0.086 C 
ATOM     28  N   UNL     1      -1.349  -2.011   2.443  0.00  0.00    -0.277 N 
ATOM     29  N   UNL     1      -0.332  -1.984   1.527  0.00  0.00    -0.234 NA
ATOM     30  C   UNL     1      -1.190  -2.401   3.846  0.00  0.00    +0.149 C 
ATOM     31  H   UNL     1       0.401  -1.356   1.819  0.00  0.00    +0.145 HD
ENDBRANCH  23  26
ENDBRANCH  20  23
ENDBRANCH   1  20
BRANCH   1  32
ATOM     32  C   UNL     1      -4.572   2.572  -1.377  0.00  0.00    +0.023 C 
BRANCH  32  33
ATOM     33  C   UNL     1      -5.687   3.017  -2.288  0.00  0.00    -0.014 A 
ATOM     34  C   UNL     1      -5.393   3.659  -3.477  0.00  0.00    +0.006 A 
ATOM     35  C   UNL     1      -6.415   4.067  -4.313  0.00  0.00    +0.000 A 
ATOM     36  C   UNL     1      -7.732   3.835  -3.962  0.00  0.00    +0.003 A 
ATOM     37  C   UNL     1      -8.028   3.193  -2.774  0.00  0.00    +0.038 A 
ATOM     38  C   UNL     1      -7.005   2.779  -1.938  0.00  0.00    +0.126 A 
ATOM     39  F   UNL     1      -7.293   2.147  -0.779  0.00  0.00    -0.205 F 
ENDBRANCH  32  33
ENDBRANCH   1  32
TORSDOF 8
