REMARK  Name = ZINC35723942
REMARK  5 active torsions:
REMARK  status: ('A' for Active; 'I' for Inactive)
REMARK    1  A    between atoms: C_1  and  C_2
REMARK    2  A    between atoms: C_6  and  C_22
REMARK    3  A    between atoms: C_8  and  S_11
REMARK    4  A    between atoms: S_11  and  C_12
REMARK    5  A    between atoms: C_22  and  N_23
REMARK                            x       y       z     vdW  Elec       q    Type
REMARK                         _______ _______ _______ _____ _____    ______ ____
ROOT
ATOM      1  C   UNL     1      -0.019   1.526   0.010  0.00  0.00    +0.007 C 
ATOM      2  C   UNL     1       0.002  -0.004   0.002  0.00  0.00    -0.013 C 
ATOM      3  C   UNL     1      -1.433  -0.534   0.013  0.00  0.00    +0.003 C 
ATOM      4  C   UNL     1      -1.413  -2.063   0.004  0.00  0.00    +0.003 C 
ATOM      5  C   UNL     1      -0.673  -2.570   1.244  0.00  0.00    -0.015 C 
ATOM      6  C   UNL     1       0.763  -2.041   1.233  0.00  0.00    +0.056 C 
ATOM      7  C   UNL     1       0.742  -0.511   1.242  0.00  0.00    +0.018 C 
ENDROOT
BRANCH   6   8
ATOM      8  S   UNL     1       1.640  -2.642   2.703  0.00  0.00    -0.082 S 
BRANCH   8   9
ATOM      9  C   UNL     1       3.294  -2.079   2.472  0.00  0.00    +0.192 A 
ATOM     10  N   UNL     1       3.749  -1.379   1.456  0.00  0.00    -0.122 NA
ATOM     11  N   UNL     1       5.002  -1.136   1.618  0.00  0.00    -0.134 NA
ATOM     12  C   UNL     1       5.414  -1.657   2.736  0.00  0.00    +0.134 A 
ATOM     13  N   UNL     1       4.344  -2.280   3.314  0.00  0.00    -0.306 N 
ATOM     14  C   UNL     1       4.346  -3.023   4.573  0.00  0.00    +0.125 C 
ATOM     15  C   UNL     1       5.436  -2.463   5.491  0.00  0.00    +0.022 C 
ATOM     16  C   UNL     1       6.753  -3.194   5.233  0.00  0.00    +0.002 C 
ATOM     17  C   UNL     1       7.212  -2.985   3.794  0.00  0.00    +0.008 C 
ATOM     18  C   UNL     1       6.803  -1.593   3.317  0.00  0.00    +0.076 C 
ENDBRANCH   8   9
ENDBRANCH   6   8
BRANCH   5  19
ATOM     19  C   UNL     1      -1.389  -2.077   2.503  0.00  0.00    -0.082 C 
BRANCH  19  20
ATOM     20  N   UNL     1      -2.726  -2.681   2.574  0.00  0.00    +0.378 N 
ATOM     21  H   UNL     1      -3.198  -2.356   3.404  0.00  0.00    -0.090 HD
ATOM     22  H   UNL     1      -3.258  -2.417   1.759  0.00  0.00    -0.090 HD
ATOM     23  H   UNL     1      -2.639  -3.686   2.608  0.00  0.00    -0.090 HD
ENDBRANCH  19  20
ENDBRANCH   5  19
TORSDOF 4
