REMARK  Name = ZINC21352180
REMARK  9 active torsions:
REMARK  status: ('A' for Active; 'I' for Inactive)
REMARK    1  A    between atoms: C_1  and  C_2
REMARK    2  A    between atoms: C_2  and  C_3
REMARK    3  A    between atoms: N_9  and  C_10
REMARK    4  A    between atoms: C_10  and  C_11
REMARK    5  A    between atoms: C_11  and  C_12
REMARK    6  A    between atoms: C_12  and  N_13
REMARK    7  A    between atoms: C_14  and  C_16
REMARK    8  A    between atoms: C_16  and  C_17
REMARK    9  A    between atoms: C_17  and  C_18
REMARK                            x       y       z     vdW  Elec       q    Type
REMARK                         _______ _______ _______ _____ _____    ______ ____
ROOT
ATOM      1  C   UNL     1       7.035  -4.225   3.192  0.00  0.00    +0.103 C 
ENDROOT
BRANCH   1   3
ATOM      2  N   UNL     1       9.325  -5.104   3.516  0.00  0.00    -0.315 N 
ATOM      3  C   UNL     1       8.024  -5.140   3.867  0.00  0.00    +0.213 C 
ATOM      4  O   UNL     1       7.649  -5.910   4.726  0.00  0.00    -0.276 OA
ATOM      5  H   UNL     1       9.665  -4.406   2.736  0.00  0.00    +0.149 HD
BRANCH   2   6
ATOM      6  C   UNL     1      10.285  -5.995   4.172  0.00  0.00    +0.102 C 
BRANCH   6   7
ATOM      7  C   UNL     1      11.681  -5.754   3.593  0.00  0.00    +0.000 C 
BRANCH   7   8
ATOM      8  C   UNL     1      12.685  -6.683   4.279  0.00  0.00    -0.077 C 
BRANCH   8  14
ATOM      9  C   UNL     1      15.059  -7.052   4.576  0.00  0.00    -0.069 C 
ATOM     10  C   UNL     1      16.443  -6.669   4.048  0.00  0.00    -0.015 C 
ATOM     11  C   UNL     1      16.591  -7.168   2.608  0.00  0.00    -0.003 C 
ATOM     12  C   UNL     1      15.473  -6.566   1.751  0.00  0.00    -0.019 C 
ATOM     13  C   UNL     1      14.117  -6.952   2.345  0.00  0.00    -0.078 C 
ATOM     14  N   UNL     1      14.025  -6.452   3.723  0.00  0.00    +0.382 N 
ATOM     15  H   UNL     1      14.199  -5.366   3.698  0.00  0.00    -0.081 HD
BRANCH   9  17
ATOM     16  C   UNL     1      14.947  -5.009   6.010  0.00  0.00    +0.002 C 
ATOM     17  C   UNL     1      14.899  -6.538   6.008  0.00  0.00    -0.019 C 
ENDBRANCH   9  17
ENDBRANCH   8  14
ENDBRANCH   7   8
ENDBRANCH   6   7
ENDBRANCH   2   6
ENDBRANCH   1   3
BRANCH   1  18
ATOM     18  C   UNL     1       5.640  -4.465   3.770  0.00  0.00    +0.083 C 
BRANCH  18  19
ATOM     19  C   UNL     1       4.651  -3.550   3.095  0.00  0.00    +0.111 A 
ATOM     20  N   UNL     1       3.344  -3.596   3.458  0.00  0.00    -0.310 N 
ATOM     21  H   UNL     1       3.014  -4.298   4.239  0.00  0.00    +0.170 HD
ATOM     22  C   UNL     1       2.428  -2.796   2.881  0.00  0.00    +0.260 A 
ATOM     23  O   UNL     1       1.258  -2.850   3.218  0.00  0.00    -0.267 OA
ATOM     24  C   UNL     1       2.853  -1.879   1.864  0.00  0.00    +0.075 A 
ATOM     25  C   UNL     1       2.038  -0.923   1.110  0.00  0.00    -0.023 A 
ATOM     26  C   UNL     1       2.681  -0.169   0.193  0.00  0.00    -0.004 A 
ATOM     27  S   UNL     1       4.379  -0.674   0.288  0.00  0.00    -0.073 S 
ATOM     28  C   UNL     1       4.221  -1.905   1.556  0.00  0.00    +0.116 A 
ATOM     29  N   UNL     1       5.068  -2.726   2.171  0.00  0.00    -0.227 NA
ATOM     30  C   UNL     1       2.096   0.860  -0.723  0.00  0.00    +0.043 C 
ATOM     31  C   UNL     1       1.209   1.815   0.087  0.00  0.00    +0.005 C 
ATOM     32  C   UNL     1      -0.207   1.249   0.113  0.00  0.00    +0.001 C 
ATOM     33  C   UNL     1      -0.160  -0.278   0.110  0.00  0.00    +0.005 C 
ATOM     34  C   UNL     1       0.538  -0.792   1.362  0.00  0.00    +0.037 C 
ENDBRANCH  18  19
ENDBRANCH   1  18
TORSDOF 8
