REMARK  Name = ZINC32912769
REMARK  3 active torsions:
REMARK  status: ('A' for Active; 'I' for Inactive)
REMARK    1  A    between atoms: C_3  and  C_8
REMARK    2  A    between atoms: C_13  and  C_25
REMARK    3  A    between atoms: C_29  and  O_31
REMARK                            x       y       z     vdW  Elec       q    Type
REMARK                         _______ _______ _______ _____ _____    ______ ____
ROOT
ATOM      1  C   UNL     1      -4.661   0.671   1.354  0.00  0.00    +0.183 A 
ATOM      2  N   UNL     1      -3.543   0.941   2.050  0.00  0.00    -0.193 NA
ATOM      3  C   UNL     1      -2.552   1.139   1.224  0.00  0.00    +0.215 A 
ATOM      4  N   UNL     1      -3.021   0.998  -0.040  0.00  0.00    -0.224 N 
ATOM      5  N   UNL     1      -4.379   0.698   0.067  0.00  0.00    -0.148 NA
ATOM      6  C   UNL     1      -2.199   1.145  -1.241  0.00  0.00    +0.153 C 
ATOM      7  C   UNL     1      -0.921   1.905  -0.890  0.00  0.00    +0.104 C 
ATOM      8  C   UNL     1      -0.273   1.321   0.372  0.00  0.00    +0.086 C 
ATOM      9  N   UNL     1      -1.216   1.425   1.504  0.00  0.00    -0.310 N 
ATOM     10  C   UNL     1       0.967   2.158   0.712  0.00  0.00    +0.023 C 
ATOM     11  C   UNL     1       0.534   3.573   1.102  0.00  0.00    +0.009 C 
ATOM     12  C   UNL     1      -0.133   4.258  -0.094  0.00  0.00    +0.075 C 
ATOM     13  C   UNL     1      -1.251   3.371  -0.599  0.00  0.00    +0.141 C 
ATOM     14  O   UNL     1      -2.362   3.810  -0.776  0.00  0.00    -0.297 OA
ATOM     15  H   UNL     1      -0.850   1.715   2.500  0.00  0.00    +0.149 HD
ENDROOT
BRANCH   1  18
ATOM     16  C   UNL     1      -8.320  -0.136   1.657  0.00  0.00    +0.002 A 
ATOM     17  C   UNL     1      -7.082   0.129   1.107  0.00  0.00    +0.012 A 
ATOM     18  C   UNL     1      -5.995   0.390   1.939  0.00  0.00    +0.022 A 
ATOM     19  C   UNL     1      -6.166   0.391   3.322  0.00  0.00    +0.031 A 
ATOM     20  C   UNL     1      -7.410   0.128   3.861  0.00  0.00    +0.042 A 
ATOM     21  C   UNL     1      -8.486  -0.135   3.029  0.00  0.00    +0.020 A 
ATOM     22 CL   UNL     1      -7.626   0.129   5.583  0.00  0.00    -0.084 Cl
ENDBRANCH   1  18
BRANCH   6  23
ATOM     23  C   UNL     1      -2.969   1.910  -2.286  0.00  0.00    -0.019 A 
ATOM     24  C   UNL     1      -4.120   2.593  -1.934  0.00  0.00    +0.006 A 
ATOM     25  C   UNL     1      -4.825   3.301  -2.889  0.00  0.00    +0.004 A 
ATOM     26  C   UNL     1      -4.388   3.319  -4.200  0.00  0.00    +0.045 A 
ATOM     27  C   UNL     1      -3.237   2.631  -4.556  0.00  0.00    +0.117 A 
ATOM     28  C   UNL     1      -2.528   1.925  -3.595  0.00  0.00    +0.051 A 
BRANCH  27  29
ATOM     29  O   UNL     1      -2.806   2.647  -5.845  0.00  0.00    -0.507 OA
ATOM     30  H   UNL     1      -1.894   2.101  -6.126  0.00  0.00    +0.292 HD
ENDBRANCH  27  29
ENDBRANCH   6  23
TORSDOF 3
