REMARK  Name = ZINC05446775
REMARK  10 active torsions:
REMARK  status: ('A' for Active; 'I' for Inactive)
REMARK    1  A    between atoms: C_1  and  C_2
REMARK    2  A    between atoms: C_6  and  C_29
REMARK    3  A    between atoms: C_8  and  O_11
REMARK    4  A    between atoms: O_11  and  P_12
REMARK    5  A    between atoms: P_12  and  C_14
REMARK    6  A    between atoms: P_12  and  C_20
REMARK    7  A    between atoms: C_20  and  C_22
REMARK    8  A    between atoms: C_20  and  O_28
REMARK    9  A    between atoms: C_29  and  C_30
REMARK   10  A    between atoms: C_29  and  C_31
REMARK                            x       y       z     vdW  Elec       q    Type
REMARK                         _______ _______ _______ _____ _____    ______ ____
ROOT
ATOM      1  P   UNL     1       3.956  -1.278  -1.857  0.00  0.00    +0.266 P 
ATOM      2  O   UNL     1       3.977  -0.011  -2.622  0.00  0.00    -0.283 OA
ENDROOT
BRANCH   1   3
ATOM      3  C   UNL     1       2.777  -2.425  -2.621  0.00  0.00    +0.039 A 
ATOM      4  C   UNL     1       2.989  -3.789  -2.542  0.00  0.00    +0.013 A 
ATOM      5  C   UNL     1       2.088  -4.663  -3.120  0.00  0.00    +0.001 A 
ATOM      6  C   UNL     1       0.979  -4.174  -3.785  0.00  0.00    +0.000 A 
ATOM      7  C   UNL     1       0.769  -2.810  -3.868  0.00  0.00    +0.001 A 
ATOM      8  C   UNL     1       1.668  -1.935  -3.286  0.00  0.00    +0.013 A 
ENDBRANCH   1   3
BRANCH   1   9
ATOM      9  O   UNL     1       5.426  -1.934  -1.867  0.00  0.00    -0.319 OA
BRANCH   9  15
ATOM     10  C   UNL     1       6.515  -3.828  -0.650  0.00  0.00    +0.007 C 
ATOM     11  C   UNL     1       7.284  -4.131  -1.938  0.00  0.00    -0.012 C 
ATOM     12  C   UNL     1       8.600  -3.350  -1.942  0.00  0.00    +0.004 C 
ATOM     13  C   UNL     1       8.303  -1.851  -1.866  0.00  0.00    +0.006 C 
ATOM     14  C   UNL     1       7.460  -1.436  -3.073  0.00  0.00    +0.021 C 
ATOM     15  C   UNL     1       6.144  -2.217  -3.069  0.00  0.00    +0.130 C 
ATOM     16  C   UNL     1       6.441  -3.716  -3.145  0.00  0.00    +0.035 C 
BRANCH  14  17
ATOM     17  C   UNL     1       7.163   0.063  -2.997  0.00  0.00    -0.012 C 
ATOM     18  C   UNL     1       8.479   0.844  -3.002  0.00  0.00    +0.007 C 
ATOM     19  C   UNL     1       6.320   0.477  -4.205  0.00  0.00    +0.007 C 
ENDBRANCH  14  17
ENDBRANCH   9  15
ENDBRANCH   1   9
BRANCH   1  20
ATOM     20  C   UNL     1       3.451  -0.942  -0.138  0.00  0.00    +0.235 C 
BRANCH  20  21
ATOM     21  C   UNL     1       2.075  -0.328  -0.129  0.00  0.00    -0.010 A 
ATOM     22  C   UNL     1       0.957  -1.137  -0.055  0.00  0.00    +0.007 A 
ATOM     23  C   UNL     1      -0.305  -0.573  -0.047  0.00  0.00    +0.000 A 
ATOM     24  C   UNL     1      -0.449   0.800  -0.112  0.00  0.00    +0.000 A 
ATOM     25  C   UNL     1       0.669   1.610  -0.185  0.00  0.00    +0.000 A 
ATOM     26  C   UNL     1       1.931   1.046  -0.195  0.00  0.00    +0.007 A 
ENDBRANCH  20  21
BRANCH  20  27
ATOM     27  O   UNL     1       3.431  -2.166   0.600  0.00  0.00    -0.377 OA
ATOM     28  H   UNL     1       2.821  -2.828   0.247  0.00  0.00    +0.211 HD
ENDBRANCH  20  27
ENDBRANCH   1  20
TORSDOF 7
