REMARK  Name = ZINC12048789
REMARK  9 active torsions:
REMARK  status: ('A' for Active; 'I' for Inactive)
REMARK    1  A    between atoms: C_1  and  C_2
REMARK    2  A    between atoms: C_2  and  C_3
REMARK    3  A    between atoms: C_2  and  C_6
REMARK    4  A    between atoms: C_2  and  O_29
REMARK    5  A    between atoms: C_3  and  N_59
REMARK    6  A    between atoms: C_4  and  N_59
REMARK    7  A    between atoms: C_5  and  N_59
REMARK    8  A    between atoms: C_16  and  C_17
REMARK    9  A    between atoms: C_16  and  N_61
REMARK                            x       y       z     vdW  Elec       q    Type
REMARK                         _______ _______ _______ _____ _____    ______ ____
ROOT
ATOM      1  C   UNL     1       0.618   8.291   1.543  0.00  0.00    -0.018 A 
ATOM      2  C   UNL     1       0.215   7.549   2.638  0.00  0.00    +0.010 A 
ATOM      3  C   UNL     1      -0.796   6.616   2.513  0.00  0.00    +0.046 A 
ATOM      4  C   UNL     1      -1.406   6.424   1.281  0.00  0.00    +0.122 A 
ATOM      5  C   UNL     1      -1.011   7.181   0.194  0.00  0.00    -0.022 A 
ATOM      6  C   UNL     1       0.003   8.108   0.317  0.00  0.00    +0.011 A 
ATOM      7  C   UNL     1      -1.710   6.985  -1.138  0.00  0.00    -0.039 C 
ATOM      8  C   UNL     1      -2.238   4.608  -1.116  0.00  0.00    -0.036 C 
ATOM      9  C   UNL     1      -2.016   4.339   0.357  0.00  0.00    +0.210 C 
ATOM     10  O   UNL     1      -2.379   5.484   1.140  0.00  0.00    -0.494 OA
ATOM     11  N   UNL     1      -1.335   5.648  -1.654  0.00  0.00    +0.388 N 
ATOM     12  H   UNL     1      -0.375   5.438  -1.357  0.00  0.00    -0.081 HD
ENDROOT
BRANCH   1  14
ATOM     13  C   UNL     1       3.071   8.624   1.399  0.00  0.00    +0.044 C 
ATOM     14  C   UNL     1       1.729   9.300   1.685  0.00  0.00    +0.074 C 
BRANCH  14  15
ATOM     15  O   UNL     1       1.525  10.366   0.755  0.00  0.00    -0.386 OA
ATOM     16  H   UNL     1       0.615  10.689   0.721  0.00  0.00    +0.211 HD
ENDBRANCH  14  15
BRANCH  14  17
ATOM     17  C   UNL     1       1.732   9.858   3.109  0.00  0.00    -0.040 C 
BRANCH  17  20
ATOM     18  C   UNL     1       0.325  10.071   5.067  0.00  0.00    -0.096 C 
ATOM     19  C   UNL     1      -0.367  11.056   2.967  0.00  0.00    -0.096 C 
ATOM     20  N   UNL     1       0.339   9.921   3.597  0.00  0.00    +0.378 N 
ATOM     21  H   UNL     1      -0.142   9.049   3.346  0.00  0.00    -0.083 HD
ENDBRANCH  17  20
ENDBRANCH  14  17
ENDBRANCH   1  14
BRANCH  11  22
ATOM     22  C   UNL     1      -1.389   5.643  -3.125  0.00  0.00    -0.023 C 
BRANCH  22  23
ATOM     23  C   UNL     1      -2.772   5.986  -3.617  0.00  0.00    +0.009 A 
ATOM     24  C   UNL     1      -3.377   7.185  -3.500  0.00  0.00    +0.021 A 
ATOM     25  C   UNL     1      -4.652   7.075  -4.092  0.00  0.00    +0.020 A 
ATOM     26  C   UNL     1      -4.782   5.810  -4.541  0.00  0.00    +0.093 A 
ATOM     27  N   UNL     1      -3.630   5.134  -4.253  0.00  0.00    -0.307 N 
ATOM     28  C   UNL     1      -3.373   3.795  -4.558  0.00  0.00    +0.138 A 
ATOM     29  C   UNL     1      -4.346   3.035  -5.195  0.00  0.00    +0.048 A 
ATOM     30  C   UNL     1      -4.077   1.711  -5.497  0.00  0.00    +0.025 A 
ATOM     31  C   UNL     1      -2.841   1.188  -5.139  0.00  0.00    +0.059 A 
ATOM     32  C   UNL     1      -1.923   2.001  -4.502  0.00  0.00    +0.133 A 
ATOM     33  N   UNL     1      -2.207   3.261  -4.233  0.00  0.00    -0.236 NA
ATOM     34 CL   UNL     1      -2.454  -0.468  -5.488  0.00  0.00    -0.082 Cl
ENDBRANCH  22  23
ENDBRANCH  11  22
TORSDOF 6
