REMARK  Name = ZINC14746989
REMARK  4 active torsions:
REMARK  status: ('A' for Active; 'I' for Inactive)
REMARK    1  A    between atoms: C_1  and  N_2
REMARK    2  A    between atoms: C_5  and  C_7
REMARK    3  A    between atoms: C_16  and  N_56
REMARK    4  A    between atoms: C_20  and  N_56
REMARK                            x       y       z     vdW  Elec       q    Type
REMARK                         _______ _______ _______ _____ _____    ______ ____
ROOT
ATOM      1  C   UNL     1       5.537   4.263   1.233  0.00  0.00    +0.172 C 
ATOM      2  N   UNL     1       4.892   2.948   1.240  0.00  0.00    -0.270 N 
ATOM      3  C   UNL     1       3.601   2.722   0.948  0.00  0.00    +0.043 A 
ATOM      4  C   UNL     1       3.391   1.387   1.063  0.00  0.00    +0.004 A 
ATOM      5  C   UNL     1       4.626   0.834   1.441  0.00  0.00    +0.151 A 
ATOM      6  N   UNL     1       5.481   1.838   1.527  0.00  0.00    -0.166 NA
ATOM      7  C   UNL     1       2.074   0.705   0.817  0.00  0.00    +0.023 C 
ATOM      8  C   UNL     1       1.168   1.672   0.043  0.00  0.00    -0.067 C 
ATOM      9  C   UNL     1       1.164   3.036   0.739  0.00  0.00    -0.009 C 
ATOM     10  C   UNL     1       2.531   3.710   0.560  0.00  0.00    +0.054 C 
ENDROOT
BRANCH   5  11
ATOM     11  C   UNL     1       4.913  -0.593   1.693  0.00  0.00    +0.267 C 
ATOM     12  O   UNL     1       4.061  -1.433   1.475  0.00  0.00    -0.268 OA
ATOM     13  N   UNL     1       6.120  -0.965   2.164  0.00  0.00    -0.296 N 
ATOM     14  C   UNL     1       7.198   0.021   2.322  0.00  0.00    +0.108 C 
ATOM     15  C   UNL     1       7.720  -0.051   3.765  0.00  0.00    +0.019 C 
ATOM     16  C   UNL     1       8.134  -1.491   4.080  0.00  0.00    +0.003 C 
ATOM     17  C   UNL     1       6.917  -2.411   3.961  0.00  0.00    +0.019 C 
ATOM     18  C   UNL     1       6.385  -2.364   2.525  0.00  0.00    +0.108 C 
ENDBRANCH   5  11
BRANCH   8  19
ATOM     19  N   UNL     1      -0.207   1.140   0.014  0.00  0.00    +0.383 N 
ATOM     20  H   UNL     1      -0.872   1.921  -0.026  0.00  0.00    -0.085 HD
ATOM     21  H   UNL     1      -0.376   0.590   0.864  0.00  0.00    -0.085 HD
BRANCH  19  22
ATOM     22  C   UNL     1      -0.398   0.278  -1.169  0.00  0.00    -0.071 C 
ATOM     23  C   UNL     1      -0.659   1.149  -2.399  0.00  0.00    -0.016 C 
ATOM     24  C   UNL     1      -0.865   0.254  -3.623  0.00  0.00    -0.002 C 
ATOM     25  C   UNL     1      -2.064  -0.666  -3.385  0.00  0.00    -0.000 C 
ATOM     26  C   UNL     1      -1.803  -1.537  -2.155  0.00  0.00    -0.002 C 
ATOM     27  C   UNL     1      -1.597  -0.642  -0.931  0.00  0.00    -0.016 C 
ENDBRANCH  19  22
ENDBRANCH   8  19
TORSDOF 3
