REMARK  Name = ZINC34757911
REMARK  6 active torsions:
REMARK  status: ('A' for Active; 'I' for Inactive)
REMARK    1  A    between atoms: C_2  and  C_3
REMARK    2  A    between atoms: C_3  and  N_4
REMARK    3  A    between atoms: C_17  and  S_19
REMARK    4  A    between atoms: S_19  and  C_20
REMARK    5  A    between atoms: C_20  and  C_21
REMARK    6  A    between atoms: N_23  and  C_24
REMARK                            x       y       z     vdW  Elec       q    Type
REMARK                         _______ _______ _______ _____ _____    ______ ____
ROOT
ATOM      1  N   UNL     1      -0.268  -1.700  -2.123  0.00  0.00    +0.384 N 
ATOM      2  C   UNL     1      -0.256  -2.361  -3.434  0.00  0.00    -0.059 C 
ATOM      3  C   UNL     1      -1.500  -3.243  -3.572  0.00  0.00    +0.088 C 
ATOM      4  N   UNL     1      -1.547  -4.166  -2.428  0.00  0.00    -0.318 N 
ATOM      5  C   UNL     1      -1.401  -3.603  -1.077  0.00  0.00    +0.088 C 
ATOM      6  C   UNL     1      -0.161  -2.704  -1.056  0.00  0.00    -0.059 C 
ATOM      7  C   UNL     1      -1.723  -5.525  -2.617  0.00  0.00    +0.134 A 
ATOM      8  C   UNL     1      -3.031  -6.074  -2.729  0.00  0.00    +0.051 A 
ATOM      9  C   UNL     1      -4.324  -5.371  -2.671  0.00  0.00    -0.025 A 
ATOM     10  C   UNL     1      -5.429  -6.122  -2.803  0.00  0.00    -0.004 A 
ATOM     11  S   UNL     1      -4.836  -7.785  -3.014  0.00  0.00    -0.073 S 
ATOM     12  C   UNL     1      -3.095  -7.465  -2.920  0.00  0.00    +0.115 A 
ATOM     13  N   UNL     1      -2.004  -8.205  -2.989  0.00  0.00    -0.214 NA
ATOM     14  C   UNL     1      -0.809  -7.641  -2.878  0.00  0.00    +0.191 A 
ATOM     15  N   UNL     1      -0.677  -6.331  -2.701  0.00  0.00    -0.206 NA
ATOM     16  C   UNL     1      -6.688  -5.301  -2.723  0.00  0.00    +0.043 C 
ATOM     17  C   UNL     1      -6.240  -3.966  -2.087  0.00  0.00    +0.010 C 
ATOM     18  C   UNL     1      -4.753  -3.912  -2.489  0.00  0.00    +0.037 C 
ATOM     19  H   UNL     1      -1.131  -1.187  -2.016  0.00  0.00    -0.081 HD
ENDROOT
BRANCH   1  20
ATOM     20  C   UNL     1       0.866  -0.771  -2.034  0.00  0.00    -0.052 C 
BRANCH  20  22
ATOM     21  C   UNL     1       0.715   1.583  -2.666  0.00  0.00    +0.002 C 
ATOM     22  C   UNL     1       0.694   0.330  -3.049  0.00  0.00    -0.053 C 
ENDBRANCH  20  22
ENDBRANCH   1  20
BRANCH  14  23
ATOM     23  S   UNL     1       0.634  -8.648  -2.973  0.00  0.00    -0.077 S 
BRANCH  23  24
ATOM     24  C   UNL     1      -0.017 -10.323  -3.218  0.00  0.00    +0.173 C 
BRANCH  24  25
ATOM     25  C   UNL     1       1.129 -11.298  -3.317  0.00  0.00    +0.224 C 
ATOM     26  O   UNL     1       2.272 -10.900  -3.230  0.00  0.00    -0.275 OA
ATOM     27  N   UNL     1       0.884 -12.610  -3.501  0.00  0.00    -0.312 N 
ATOM     28  H   UNL     1      -0.030 -12.928  -3.571  0.00  0.00    +0.149 HD
BRANCH  27  29
ATOM     29  C   UNL     1       1.998 -13.557  -3.597  0.00  0.00    +0.073 C 
ATOM     30  C   UNL     1       2.508 -13.600  -5.039  0.00  0.00    +0.022 C 
ATOM     31  C   UNL     1       3.671 -14.588  -5.139  0.00  0.00    +0.002 C 
ATOM     32  C   UNL     1       3.193 -15.982  -4.726  0.00  0.00    +0.000 C 
ATOM     33  C   UNL     1       2.682 -15.939  -3.284  0.00  0.00    +0.002 C 
ATOM     34  C   UNL     1       1.519 -14.950  -3.184  0.00  0.00    +0.022 C 
ENDBRANCH  27  29
ENDBRANCH  24  25
ENDBRANCH  23  24
ENDBRANCH  14  23
TORSDOF 6
