REMARK  Name = ZINC13251301
REMARK  8 active torsions:
REMARK  status: ('A' for Active; 'I' for Inactive)
REMARK    1  A    between atoms: C_4  and  O_28
REMARK    2  A    between atoms: C_5  and  C_7
REMARK    3  A    between atoms: C_7  and  N_8
REMARK    4  A    between atoms: N_8  and  C_9
REMARK    5  A    between atoms: N_8  and  S_16
REMARK    6  A    between atoms: C_9  and  C_10
REMARK    7  A    between atoms: S_16  and  C_19
REMARK    8  A    between atoms: C_21  and  C_26
REMARK                            x       y       z     vdW  Elec       q    Type
REMARK                         _______ _______ _______ _____ _____    ______ ____
ROOT
ATOM      1  N   UNL     1      -1.407   3.495   3.634  0.00  0.00    -0.170 NA
ENDROOT
BRANCH   1   2
ATOM      2  S   UNL     1      -1.089   1.962   4.172  0.00  0.00    +0.062 S 
ATOM      3  O   UNL     1      -0.212   2.095   5.282  0.00  0.00    -0.153 OA
ATOM      4  O   UNL     1      -2.341   1.297   4.267  0.00  0.00    -0.153 OA
BRANCH   2   5
ATOM      5  C   UNL     1      -0.178   1.143   2.906  0.00  0.00    +0.120 A 
ATOM      6  C   UNL     1       1.200   1.173   2.921  0.00  0.00    +0.044 A 
ATOM      7  C   UNL     1       1.921   0.519   1.920  0.00  0.00    +0.065 A 
ATOM      8  C   UNL     1       1.239  -0.153   0.902  0.00  0.00    +0.016 A 
ATOM      9  C   UNL     1      -0.139  -0.170   0.895  0.00  0.00    +0.018 A 
ATOM     10  C   UNL     1      -0.848   0.476   1.894  0.00  0.00    +0.044 A 
ATOM     11 BR   UNL     1      -2.739   0.447   1.877  0.00  0.00    -0.048 Br
BRANCH   7  12
ATOM     12  C   UNL     1       3.398   0.542   1.933  0.00  0.00    +0.387 C 
ATOM     13  O   UNL     1       3.988   1.126   2.819  0.00  0.00    -0.241 OA
ATOM     14  O   UNL     1       4.090  -0.086   0.962  0.00  0.00    -0.241 OA
ENDBRANCH   7  12
ENDBRANCH   2   5
ENDBRANCH   1   2
BRANCH   1  15
ATOM     15  C   UNL     1      -0.523   4.601   4.009  0.00  0.00    +0.148 C 
BRANCH  15  20
ATOM     16  C   UNL     1      -2.460   7.648   5.116  0.00  0.00    +0.001 A 
ATOM     17  C   UNL     1      -2.671   7.373   6.455  0.00  0.00    +0.004 A 
ATOM     18  C   UNL     1      -2.187   6.202   7.006  0.00  0.00    +0.046 A 
ATOM     19  C   UNL     1      -1.494   5.299   6.213  0.00  0.00    +0.121 A 
ATOM     20  C   UNL     1      -1.280   5.579   4.872  0.00  0.00    +0.010 A 
ATOM     21  C   UNL     1      -1.765   6.751   4.325  0.00  0.00    +0.008 A 
BRANCH  19  22
ATOM     22  O   UNL     1      -1.023   4.144   6.751  0.00  0.00    -0.506 OA
ATOM     23  H   UNL     1      -0.129   4.214   7.113  0.00  0.00    +0.292 HD
ENDBRANCH  19  22
ENDBRANCH  15  20
ENDBRANCH   1  15
BRANCH   1  24
ATOM     24  C   UNL     1      -2.572   3.745   2.782  0.00  0.00    +0.141 C 
BRANCH  24  25
ATOM     25  C   UNL     1      -2.104   4.204   1.399  0.00  0.00    +0.134 C 
ATOM     26  C   UNL     1      -3.318   4.510   0.486  0.00  0.00    +0.035 C 
ATOM     27  C   UNL     1      -2.717   4.318  -0.928  0.00  0.00    +0.031 C 
ATOM     28  C   UNL     1      -1.474   3.438  -0.693  0.00  0.00    +0.160 C 
ATOM     29  O   UNL     1      -1.423   3.131   0.710  0.00  0.00    -0.375 OA
ENDBRANCH  24  25
ENDBRANCH   1  24
TORSDOF 8
