REMARK  Name = ZINC44597235
REMARK  4 active torsions:
REMARK  status: ('A' for Active; 'I' for Inactive)
REMARK    1  A    between atoms: C_9  and  C_11
REMARK    2  A    between atoms: C_12  and  C_13
REMARK    3  A    between atoms: N_15  and  N_16
REMARK    4  A    between atoms: N_16  and  C_17
REMARK                            x       y       z     vdW  Elec       q    Type
REMARK                         _______ _______ _______ _____ _____    ______ ____
ROOT
ATOM      1  C   UNL     1       0.239  -4.202  -0.024  0.00  0.00    +0.033 C 
ATOM      2  C   UNL     1       1.440  -4.810  -0.038  0.00  0.00    +0.071 C 
ENDROOT
BRANCH   1  11
ATOM      3  C   UNL     1      -0.017   1.399   0.010  0.00  0.00    +0.011 A 
ATOM      4  C   UNL     1       1.157   2.090   0.002  0.00  0.00    +0.021 A 
ATOM      5  C   UNL     1       2.381   1.421  -0.013  0.00  0.00    +0.043 A 
ATOM      6  C   UNL     1       2.437   0.060  -0.021  0.00  0.00    +0.048 A 
ATOM      7  C   UNL     1       1.246  -0.688  -0.014  0.00  0.00    +0.073 A 
ATOM      8  C   UNL     1       0.002  -0.004   0.002  0.00  0.00    +0.001 A 
ATOM      9  C   UNL     1      -1.193  -0.751   0.009  0.00  0.00    +0.012 A 
ATOM     10  C   UNL     1      -1.105  -2.111   0.000  0.00  0.00    +0.028 A 
ATOM     11  C   UNL     1       0.158  -2.730  -0.015  0.00  0.00    +0.065 A 
ATOM     12  N   UNL     1       1.273  -2.021  -0.022  0.00  0.00    -0.247 NA
ATOM     13 CL   UNL     1       3.855   2.337  -0.022  0.00  0.00    -0.083 Cl
ENDBRANCH   1  11
BRANCH   2  14
ATOM     14  C   UNL     1       1.521  -6.275  -0.047  0.00  0.00    +0.253 C 
ATOM     15  O   UNL     1       0.502  -6.940  -0.041  0.00  0.00    -0.269 OA
ATOM     16  N   UNL     1       2.723  -6.883  -0.061  0.00  0.00    -0.233 N 
ATOM     17  H   UNL     1       3.535  -6.353  -0.066  0.00  0.00    +0.173 HD
BRANCH  16  18
ATOM     18  N   UNL     1       2.800  -8.282  -0.070  0.00  0.00    -0.264 N 
ATOM     19  H   UNL     1       1.988  -8.813  -0.065  0.00  0.00    +0.170 HD
BRANCH  18  20
ATOM     20  C   UNL     1       4.048  -8.914  -0.085  0.00  0.00    +0.045 A 
ATOM     21  C   UNL     1       5.211  -8.155  -0.086  0.00  0.00    +0.027 A 
ATOM     22  C   UNL     1       6.442  -8.781  -0.101  0.00  0.00    +0.040 A 
ATOM     23  C   UNL     1       6.517 -10.163  -0.116  0.00  0.00    +0.124 A 
ATOM     24  C   UNL     1       5.359 -10.922  -0.115  0.00  0.00    +0.040 A 
ATOM     25  C   UNL     1       4.125 -10.300  -0.093  0.00  0.00    +0.027 A 
ATOM     26  F   UNL     1       7.723 -10.773  -0.131  0.00  0.00    -0.205 F 
ENDBRANCH  18  20
ENDBRANCH  16  18
ENDBRANCH   2  14
TORSDOF 4
