REMARK  Name = ZINC04470575
REMARK  4 active torsions:
REMARK  status: ('A' for Active; 'I' for Inactive)
REMARK    1  A    between atoms: C_1  and  C_2
REMARK    2  A    between atoms: C_2  and  C_3
REMARK    3  A    between atoms: C_6  and  N_9
REMARK    4  A    between atoms: C_13  and  C_14
REMARK                            x       y       z     vdW  Elec       q    Type
REMARK                         _______ _______ _______ _____ _____    ______ ____
ROOT
ATOM      1  N   UNL     1       0.030   0.082   0.793  0.00  0.00    -0.184 N 
ATOM      2  C   UNL     1       0.022   1.419   0.638  0.00  0.00    +0.272 C 
ATOM      3  O   UNL     1      -0.933   2.159   0.776  0.00  0.00    -0.268 OA
ATOM      4  C   UNL     1       1.395   1.815   0.262  0.00  0.00    +0.102 C 
ATOM      5  C   UNL     1       1.859   3.084   0.001  0.00  0.00    +0.026 C 
ATOM      6  C   UNL     1       2.161   0.552   0.225  0.00  0.00    +0.266 C 
ATOM      7  O   UNL     1       3.340   0.428  -0.044  0.00  0.00    -0.268 OA
ATOM      8  N   UNL     1       1.302  -0.434   0.547  0.00  0.00    -0.223 N 
ATOM      9  H   UNL     1       1.537  -1.374   0.602  0.00  0.00    +0.174 HD
ENDROOT
BRANCH   5  10
ATOM     10  C   UNL     1       0.917   4.204  -0.095  0.00  0.00    -0.023 A 
ATOM     11  C   UNL     1      -0.334   4.023  -0.700  0.00  0.00    +0.008 A 
ATOM     12  C   UNL     1      -1.216   5.080  -0.781  0.00  0.00    +0.002 A 
ATOM     13  C   UNL     1      -0.864   6.320  -0.276  0.00  0.00    +0.015 A 
ATOM     14  C   UNL     1       0.372   6.510   0.319  0.00  0.00    +0.018 A 
ATOM     15  C   UNL     1       1.264   5.462   0.413  0.00  0.00    +0.023 A 
ATOM     16 BR   UNL     1       0.839   8.210   1.002  0.00  0.00    -0.050 Br
ENDBRANCH   5  10
BRANCH   1  20
ATOM     17  C   UNL     1      -3.288  -2.200   1.858  0.00  0.00    -0.047 A 
ATOM     18  C   UNL     1      -2.069  -2.816   1.637  0.00  0.00    +0.005 A 
ATOM     19  C   UNL     1      -0.967  -2.062   1.284  0.00  0.00    +0.025 A 
ATOM     20  C   UNL     1      -1.084  -0.684   1.150  0.00  0.00    +0.056 A 
ATOM     21  C   UNL     1      -2.308  -0.069   1.378  0.00  0.00    +0.025 A 
ATOM     22  C   UNL     1      -3.407  -0.829   1.726  0.00  0.00    +0.005 A 
BRANCH  17  24
ATOM     23  C   UNL     1      -4.559  -3.142   3.767  0.00  0.00    +0.009 C 
ATOM     24  C   UNL     1      -4.488  -3.026   2.243  0.00  0.00    +0.032 C 
ENDBRANCH  17  24
ENDBRANCH   1  20
TORSDOF 3
