REMARK  Name = ZINC08969579
REMARK  7 active torsions:
REMARK  status: ('A' for Active; 'I' for Inactive)
REMARK    1  A    between atoms: C_3  and  S_6
REMARK    2  A    between atoms: S_6  and  C_9
REMARK    3  A    between atoms: C_9  and  C_11
REMARK    4  A    between atoms: C_9  and  C_24
REMARK    5  A    between atoms: C_11  and  N_12
REMARK    6  A    between atoms: N_12  and  S_13
REMARK    7  A    between atoms: S_13  and  C_16
REMARK                            x       y       z     vdW  Elec       q    Type
REMARK                         _______ _______ _______ _____ _____    ______ ____
ROOT
ATOM      1  C   UNL     1       1.089  -2.225  -0.108  0.00  0.00    +0.182 C 
ENDROOT
BRANCH   1   2
ATOM      2  C   UNL     1       0.977  -0.723  -0.152  0.00  0.00    -0.018 A 
ATOM      3  C   UNL     1      -0.269  -0.125  -0.165  0.00  0.00    +0.009 A 
ATOM      4  C   UNL     1      -0.378   1.253  -0.205  0.00  0.00    +0.050 A 
ATOM      5  C   UNL     1       0.764   2.038  -0.232  0.00  0.00    +0.166 A 
ATOM      6  C   UNL     1       2.019   1.435  -0.219  0.00  0.00    +0.167 A 
ATOM      7  C   UNL     1       2.120   0.054  -0.179  0.00  0.00    +0.055 A 
ATOM      8  O   UNL     1       2.972   2.412  -0.252  0.00  0.00    -0.453 OA
ATOM      9  C   UNL     1       2.294   3.624   0.127  0.00  0.00    +0.466 C 
ATOM     10  O   UNL     1       0.930   3.392  -0.273  0.00  0.00    -0.453 OA
ENDBRANCH   1   2
BRANCH   1  11
ATOM     11  S   UNL     1       0.277  -2.935  -1.566  0.00  0.00    +0.011 S 
ATOM     12  O   UNL     1       0.773  -2.323  -2.749  0.00  0.00    -0.168 OA
ATOM     13  O   UNL     1       0.217  -4.350  -1.453  0.00  0.00    -0.168 OA
BRANCH  11  16
ATOM     14  C   UNL     1      -3.323  -1.068  -1.740  0.00  0.00    +0.009 A 
ATOM     15  C   UNL     1      -1.973  -1.279  -1.948  0.00  0.00    +0.035 A 
ATOM     16  C   UNL     1      -1.399  -2.403  -1.454  0.00  0.00    +0.126 A 
ATOM     17  S   UNL     1      -2.781  -3.202  -0.654  0.00  0.00    -0.078 S 
ATOM     18  C   UNL     1      -4.031  -1.987  -1.038  0.00  0.00    +0.047 A 
ENDBRANCH  11  16
ENDBRANCH   1  11
BRANCH   1  19
ATOM     19  C   UNL     1       0.413  -2.751   1.159  0.00  0.00    +0.137 C 
BRANCH  19  20
ATOM     20  N   UNL     1       0.522  -4.211   1.202  0.00  0.00    -0.192 NA
ATOM     21  H   UNL     1       0.722  -4.706   0.392  0.00  0.00    +0.148 HD
BRANCH  20  22
ATOM     22  S   UNL     1       0.305  -5.016   2.632  0.00  0.00    +0.034 S 
ATOM     23  O   UNL     1       0.528  -6.384   2.316  0.00  0.00    -0.158 OA
ATOM     24  O   UNL     1       1.144  -4.341   3.559  0.00  0.00    -0.158 OA
BRANCH  22  25
ATOM     25  C   UNL     1      -1.438  -4.750   3.058  0.00  0.00    +0.170 C 
ATOM     26  C   UNL     1      -1.750  -5.411   4.410  0.00  0.00    +0.052 C 
ATOM     27  C   UNL     1      -3.281  -5.470   4.629  0.00  0.00    +0.168 C 
ATOM     28  S   UNL     1      -3.932  -5.540   2.911  0.00  0.00    -0.029 S 
ATOM     29  O   UNL     1      -4.714  -4.380   2.665  0.00  0.00    -0.174 OA
ATOM     30  O   UNL     1      -4.494  -6.824   2.681  0.00  0.00    -0.174 OA
ATOM     31  C   UNL     1      -2.348  -5.403   1.979  0.00  0.00    +0.193 C 
ENDBRANCH  22  25
ENDBRANCH  20  22
ENDBRANCH  19  20
ENDBRANCH   1  19
TORSDOF 7
