REMARK  Name = ZINC63182518
REMARK  9 active torsions:
REMARK  status: ('A' for Active; 'I' for Inactive)
REMARK    1  A    between atoms: C_1  and  C_2
REMARK    2  A    between atoms: C_7  and  N_8
REMARK    3  A    between atoms: C_9  and  C_11
REMARK    4  A    between atoms: C_11  and  C_13
REMARK    5  A    between atoms: C_11  and  N_23
REMARK    6  A    between atoms: C_13  and  C_14
REMARK    7  A    between atoms: C_24  and  C_26
REMARK    8  A    between atoms: C_26  and  C_27
REMARK    9  A    between atoms: C_26  and  C_33
REMARK                            x       y       z     vdW  Elec       q    Type
REMARK                         _______ _______ _______ _____ _____    ______ ____
ROOT
ATOM      1  C   UNL     1      -0.892  -0.002   5.204  0.00  0.00    +0.163 C 
ENDROOT
BRANCH   1   3
ATOM      2  N   UNL     1      -1.169  -0.007   2.746  0.00  0.00    -0.284 N 
ATOM      3  C   UNL     1      -0.967  -0.712   3.877  0.00  0.00    +0.238 C 
ATOM      4  O   UNL     1      -0.845  -1.918   3.827  0.00  0.00    -0.273 OA
ATOM      5  H   UNL     1      -1.210   0.961   2.779  0.00  0.00    +0.155 HD
BRANCH   2  12
ATOM      6  C   UNL     1      -2.676   1.268   0.697  0.00  0.00    +0.045 C 
ATOM      7  C   UNL     1      -2.047  -0.087   0.498  0.00  0.00    -0.029 A 
ATOM      8  C   UNL     1      -2.189  -0.744  -0.709  0.00  0.00    +0.005 A 
ATOM      9  C   UNL     1      -1.612  -1.987  -0.893  0.00  0.00    +0.000 A 
ATOM     10  C   UNL     1      -0.891  -2.576   0.130  0.00  0.00    +0.002 A 
ATOM     11  C   UNL     1      -0.745  -1.924   1.339  0.00  0.00    +0.023 A 
ATOM     12  C   UNL     1      -1.319  -0.673   1.525  0.00  0.00    +0.036 A 
ENDBRANCH   2  12
ENDBRANCH   1   3
BRANCH   1  13
ATOM     13  N   UNL     1      -0.668  -0.981   6.271  0.00  0.00    -0.303 N 
ATOM     14  C   UNL     1       0.584  -1.385   6.563  0.00  0.00    +0.225 C 
ATOM     15  O   UNL     1       1.526  -0.938   5.943  0.00  0.00    -0.275 OA
ATOM     16  H   UNL     1      -1.421  -1.339   6.766  0.00  0.00    +0.149 HD
BRANCH  14  17
ATOM     17  C   UNL     1       0.814  -2.392   7.659  0.00  0.00    +0.135 C 
BRANCH  17  18
ATOM     18  C   UNL     1       0.088  -3.670   7.328  0.00  0.00    -0.031 A 
ATOM     19  C   UNL     1       0.212  -4.230   6.070  0.00  0.00    +0.005 A 
ATOM     20  C   UNL     1      -0.455  -5.402   5.767  0.00  0.00    +0.000 A 
ATOM     21  C   UNL     1      -1.245  -6.015   6.721  0.00  0.00    +0.000 A 
ATOM     22  C   UNL     1      -1.368  -5.456   7.979  0.00  0.00    +0.000 A 
ATOM     23  C   UNL     1      -0.698  -4.286   8.284  0.00  0.00    +0.005 A 
ENDBRANCH  17  18
BRANCH  17  24
ATOM     24  C   UNL     1       2.290  -2.671   7.783  0.00  0.00    -0.031 A 
ATOM     25  C   UNL     1       2.989  -3.186   6.708  0.00  0.00    +0.005 A 
ATOM     26  C   UNL     1       4.343  -3.442   6.821  0.00  0.00    +0.000 A 
ATOM     27  C   UNL     1       4.998  -3.183   8.011  0.00  0.00    +0.000 A 
ATOM     28  C   UNL     1       4.299  -2.667   9.086  0.00  0.00    +0.000 A 
ATOM     29  C   UNL     1       2.946  -2.407   8.971  0.00  0.00    +0.005 A 
ENDBRANCH  17  24
ENDBRANCH  14  17
ENDBRANCH   1  13
BRANCH   1  30
ATOM     30  C   UNL     1      -2.206   0.740   5.460  0.00  0.00    +0.065 C 
BRANCH  30  31
ATOM     31  C   UNL     1      -2.088   1.548   6.726  0.00  0.00    -0.039 C 
ATOM     32  C   UNL     1      -1.755   2.856   6.828  0.00  0.00    -0.001 A 
ATOM     33  C   UNL     1      -1.416   3.876   5.829  0.00  0.00    +0.010 A 
ATOM     34  C   UNL     1      -1.120   5.128   6.245  0.00  0.00    +0.001 A 
ATOM     35  C   UNL     1      -1.129   5.476   7.603  0.00  0.00    +0.002 A 
ATOM     36  C   UNL     1      -1.430   4.593   8.579  0.00  0.00    +0.026 A 
ATOM     37  C   UNL     1      -1.758   3.248   8.256  0.00  0.00    +0.043 A 
ATOM     38  N   UNL     1      -2.079   2.223   9.007  0.00  0.00    -0.380 N 
ATOM     39  C   UNL     1      -2.323   1.065   8.140  0.00  0.00    +0.144 C 
ATOM     40  H   UNL     1      -2.148   2.230   9.975  0.00  0.00    +0.160 HD
ENDBRANCH  30  31
ENDBRANCH   1  30
TORSDOF 8
