REMARK  Name = ZINC59273168
REMARK  8 active torsions:
REMARK  status: ('A' for Active; 'I' for Inactive)
REMARK    1  A    between atoms: C_4  and  O_7
REMARK    2  A    between atoms: O_7  and  C_8
REMARK    3  A    between atoms: C_13  and  N_14
REMARK    4  A    between atoms: N_14  and  C_15
REMARK    5  A    between atoms: C_15  and  N_17
REMARK    6  A    between atoms: N_17  and  C_18
REMARK    7  A    between atoms: C_18  and  C_19
REMARK    8  A    between atoms: C_19  and  C_20
REMARK                            x       y       z     vdW  Elec       q    Type
REMARK                         _______ _______ _______ _____ _____    ______ ____
ROOT
ATOM      1  C   UNL     1       7.082  -2.630   0.103  0.00  0.00    +0.135 C 
ATOM      2  S   UNL     1       7.053  -4.338   0.227  0.00  0.00    -0.019 S 
ENDROOT
BRANCH   1   3
ATOM      3  N   UNL     1       5.928  -1.934   0.115  0.00  0.00    -0.294 N 
ATOM      4  H   UNL     1       5.947  -0.964   0.120  0.00  0.00    +0.154 HD
BRANCH   3  10
ATOM      5  C   UNL     1       3.691  -2.230  -0.761  0.00  0.00    +0.150 A 
ATOM      6  C   UNL     1       2.482  -2.906  -0.756  0.00  0.00    +0.049 A 
ATOM      7  C   UNL     1       2.278  -3.953   0.125  0.00  0.00    +0.024 A 
ATOM      8  C   UNL     1       3.279  -4.328   1.003  0.00  0.00    +0.043 A 
ATOM      9  C   UNL     1       4.489  -3.658   1.004  0.00  0.00    +0.047 A 
ATOM     10  C   UNL     1       4.702  -2.611   0.120  0.00  0.00    +0.077 A 
ATOM     11 CL   UNL     1       3.016  -5.642   2.106  0.00  0.00    -0.083 Cl
BRANCH   5  12
ATOM     12  O   UNL     1       3.893  -1.202  -1.627  0.00  0.00    -0.454 OA
BRANCH  12  16
ATOM     13  C   UNL     1       0.872  -0.282  -4.282  0.00  0.00    +0.000 A 
ATOM     14  C   UNL     1       0.770   0.106  -2.958  0.00  0.00    +0.004 A 
ATOM     15  C   UNL     1       1.780  -0.200  -2.067  0.00  0.00    +0.046 A 
ATOM     16  C   UNL     1       2.898  -0.899  -2.501  0.00  0.00    +0.129 A 
ATOM     17  C   UNL     1       2.998  -1.288  -3.829  0.00  0.00    +0.046 A 
ATOM     18  C   UNL     1       1.985  -0.979  -4.716  0.00  0.00    +0.004 A 
ENDBRANCH  12  16
ENDBRANCH   5  12
ENDBRANCH   3  10
ENDBRANCH   1   3
BRANCH   1  19
ATOM     19  N   UNL     1       8.259  -1.983  -0.007  0.00  0.00    -0.326 N 
ATOM     20  H   UNL     1       8.276  -1.016  -0.078  0.00  0.00    +0.148 HD
BRANCH  19  21
ATOM     21  C   UNL     1       9.513  -2.740  -0.021  0.00  0.00    +0.108 C 
BRANCH  21  22
ATOM     22  C   UNL     1      10.691  -1.773  -0.154  0.00  0.00    +0.056 C 
BRANCH  22  23
ATOM     23  C   UNL     1      11.982  -2.552  -0.167  0.00  0.00    -0.021 A 
ATOM     24  C   UNL     1      12.768  -2.812   0.888  0.00  0.00    +0.087 A 
ATOM     25  N   UNL     1      13.854  -3.546   0.492  0.00  0.00    -0.360 N 
ATOM     26  H   UNL     1      14.562  -3.854   1.079  0.00  0.00    +0.165 HD
ATOM     27  C   UNL     1      13.790  -3.781  -0.863  0.00  0.00    +0.049 A 
ATOM     28  C   UNL     1      12.612  -3.174  -1.335  0.00  0.00    +0.003 A 
ATOM     29  C   UNL     1      12.279  -3.254  -2.688  0.00  0.00    +0.013 A 
ATOM     30  C   UNL     1      13.099  -3.927  -3.550  0.00  0.00    +0.039 A 
ATOM     31  C   UNL     1      14.263  -4.532  -3.089  0.00  0.00    +0.125 A 
ATOM     32  C   UNL     1      14.613  -4.457  -1.757  0.00  0.00    +0.064 A 
ATOM     33  F   UNL     1      15.061  -5.194  -3.955  0.00  0.00    -0.205 F 
ENDBRANCH  22  23
ENDBRANCH  21  22
ENDBRANCH  19  21
ENDBRANCH   1  19
TORSDOF 8
