REMARK  Name = ZINC12279013
REMARK  8 active torsions:
REMARK  status: ('A' for Active; 'I' for Inactive)
REMARK    1  A    between atoms: C_1  and  C_2
REMARK    2  A    between atoms: C_7  and  C_8
REMARK    3  A    between atoms: C_8  and  N_69
REMARK    4  A    between atoms: C_14  and  C_17
REMARK    5  A    between atoms: C_17  and  N_18
REMARK    6  A    between atoms: C_19  and  C_21
REMARK    7  A    between atoms: C_21  and  N_22
REMARK    8  A    between atoms: C_31  and  C_33
REMARK                            x       y       z     vdW  Elec       q    Type
REMARK                         _______ _______ _______ _____ _____    ______ ____
ROOT
ATOM      1  C   UNL     1      -0.013   1.086   0.008  0.00  0.00    -0.076 C 
ATOM      2  C   UNL     1      -0.730   1.580   1.268  0.00  0.00    +0.016 C 
ATOM      3  C   UNL     1      -2.173   1.085   1.254  0.00  0.00    +0.067 C 
ATOM      4  C   UNL     1      -2.925   1.607   2.492  0.00  0.00    +0.037 C 
ATOM      5  C   UNL     1      -3.840   0.428   2.896  0.00  0.00    +0.036 C 
ATOM      6  C   UNL     1      -3.533  -0.662   1.845  0.00  0.00    +0.136 C 
ATOM      7  O   UNL     1      -2.208  -0.349   1.360  0.00  0.00    -0.369 OA
ATOM      8  C   UNL     1      -2.880   1.538  -0.020  0.00  0.00    +0.016 C 
ATOM      9  C   UNL     1      -2.093   1.045  -1.238  0.00  0.00    -0.076 C 
ATOM     10  N   UNL     1      -0.724   1.603  -1.181  0.00  0.00    +0.383 N 
ATOM     11  H   UNL     1      -0.784   2.626  -1.113  0.00  0.00    -0.081 HD
ENDROOT
BRANCH  10  12
ATOM     12  C   UNL     1       0.018   1.246  -2.407  0.00  0.00    -0.043 C 
BRANCH  12  19
ATOM     13  C   UNL     1      -0.249   3.955  -3.375  0.00  0.00    +0.044 C 
ATOM     14  C   UNL     1      -0.973   2.832  -4.071  0.00  0.00    -0.049 A 
ATOM     15  C   UNL     1      -1.765   3.098  -5.173  0.00  0.00    +0.003 A 
ATOM     16  C   UNL     1      -2.429   2.067  -5.812  0.00  0.00    +0.000 A 
ATOM     17  C   UNL     1      -2.301   0.770  -5.349  0.00  0.00    +0.000 A 
ATOM     18  C   UNL     1      -1.506   0.504  -4.250  0.00  0.00    +0.002 A 
ATOM     19  C   UNL     1      -0.846   1.536  -3.608  0.00  0.00    -0.061 A 
ENDBRANCH  12  19
ENDBRANCH  10  12
BRANCH   6  20
ATOM     20  C   UNL     1      -3.549  -2.047   2.494  0.00  0.00    +0.135 C 
BRANCH  20  21
ATOM     21  N   UNL     1      -3.256  -3.065   1.481  0.00  0.00    -0.311 N 
ATOM     22  C   UNL     1      -3.217  -4.367   1.826  0.00  0.00    +0.235 C 
ATOM     23  O   UNL     1      -3.423  -4.697   2.975  0.00  0.00    -0.274 OA
ATOM     24  H   UNL     1      -3.091  -2.801   0.562  0.00  0.00    +0.149 HD
BRANCH  22  25
ATOM     25  C   UNL     1      -2.916  -5.414   0.784  0.00  0.00    +0.243 C 
BRANCH  25  26
ATOM     26  N   UNL     1      -2.931  -6.740   1.406  0.00  0.00    -0.220 N 
ATOM     27  C   UNL     1      -4.089  -7.432   1.450  0.00  0.00    +0.275 A 
ATOM     28  O   UNL     1      -5.110  -6.963   0.980  0.00  0.00    -0.266 OA
ATOM     29  C   UNL     1      -4.094  -8.760   2.075  0.00  0.00    +0.050 A 
ATOM     30  C   UNL     1      -5.251  -9.534   2.158  0.00  0.00    +0.014 A 
ATOM     31  C   UNL     1      -5.194 -10.773   2.757  0.00  0.00    +0.001 A 
ATOM     32  C   UNL     1      -4.000 -11.257   3.275  0.00  0.00    +0.001 A 
ATOM     33  C   UNL     1      -2.853 -10.516   3.204  0.00  0.00    +0.010 A 
ATOM     34  C   UNL     1      -2.880  -9.256   2.604  0.00  0.00    +0.010 A 
ATOM     35  C   UNL     1      -1.682  -8.423   2.503  0.00  0.00    +0.066 A 
ATOM     36  N   UNL     1      -1.747  -7.257   1.932  0.00  0.00    -0.172 NA
ATOM     37  C   UNL     1      -0.370  -8.919   3.055  0.00  0.00    +0.068 C 
ENDBRANCH  25  26
ENDBRANCH  22  25
ENDBRANCH  20  21
ENDBRANCH   6  20
TORSDOF 6
