REMARK  Name = ZINC16487713
REMARK  6 active torsions:
REMARK  status: ('A' for Active; 'I' for Inactive)
REMARK    1  A    between atoms: C_4  and  N_7
REMARK    2  A    between atoms: N_7  and  C_8
REMARK    3  A    between atoms: N_7  and  S_23
REMARK    4  A    between atoms: C_8  and  C_9
REMARK    5  A    between atoms: N_11  and  N_12
REMARK    6  A    between atoms: S_23  and  C_26
REMARK                            x       y       z     vdW  Elec       q    Type
REMARK                         _______ _______ _______ _____ _____    ______ ____
ROOT
ATOM      1  N   UNL     1       3.842  -0.979  -0.055  0.00  0.00    -0.194 N 
ENDROOT
BRANCH   1   5
ATOM      2  C   UNL     1      -0.098   0.364  -0.170  0.00  0.00    +0.000 A 
ATOM      3  C   UNL     1       0.880   1.032  -0.883  0.00  0.00    +0.002 A 
ATOM      4  C   UNL     1       2.188   0.590  -0.847  0.00  0.00    +0.025 A 
ATOM      5  C   UNL     1       2.520  -0.529  -0.093  0.00  0.00    +0.052 A 
ATOM      6  C   UNL     1       1.535  -1.198   0.622  0.00  0.00    +0.025 A 
ATOM      7  C   UNL     1       0.230  -0.750   0.582  0.00  0.00    +0.002 A 
ENDBRANCH   1   5
BRANCH   1   8
ATOM      8  S   UNL     1       4.212  -2.504  -0.585  0.00  0.00    +0.075 S 
ATOM      9  O   UNL     1       5.397  -2.894   0.096  0.00  0.00    -0.150 OA
ATOM     10  O   UNL     1       3.011  -3.260  -0.519  0.00  0.00    -0.150 OA
BRANCH   8  11
ATOM     11  C   UNL     1       4.632  -2.374  -2.292  0.00  0.00    +0.109 A 
ATOM     12  C   UNL     1       3.649  -2.493  -3.256  0.00  0.00    +0.030 A 
ATOM     13  C   UNL     1       3.978  -2.391  -4.595  0.00  0.00    +0.022 A 
ATOM     14  C   UNL     1       5.291  -2.170  -4.969  0.00  0.00    +0.041 A 
ATOM     15  C   UNL     1       6.275  -2.050  -4.004  0.00  0.00    +0.022 A 
ATOM     16  C   UNL     1       5.944  -2.147  -2.665  0.00  0.00    +0.030 A 
ATOM     17 CL   UNL     1       5.705  -2.042  -6.651  0.00  0.00    -0.084 Cl
ENDBRANCH   8  11
ENDBRANCH   1   8
BRANCH   1  18
ATOM     18  C   UNL     1       4.900  -0.104   0.455  0.00  0.00    +0.228 C 
BRANCH  18  19
ATOM     19  C   UNL     1       4.969  -0.220   1.956  0.00  0.00    +0.251 C 
ATOM     20  O   UNL     1       4.209  -0.961   2.542  0.00  0.00    -0.272 OA
ATOM     21  N   UNL     1       5.875   0.500   2.647  0.00  0.00    -0.205 N 
ATOM     22  H   UNL     1       6.482   1.093   2.178  0.00  0.00    +0.177 HD
BRANCH  21  23
ATOM     23  N   UNL     1       5.939   0.392   4.042  0.00  0.00    -0.174 NA
ATOM     24  C   UNL     1       6.889   1.005   4.704  0.00  0.00    +0.152 C 
ATOM     25  C   UNL     1       8.051   1.735   4.146  0.00  0.00    +0.028 A 
ATOM     26  C   UNL     1       8.482   1.990   2.849  0.00  0.00    +0.012 A 
ATOM     27  C   UNL     1       9.635   2.719   2.641  0.00  0.00    +0.001 A 
ATOM     28  C   UNL     1      10.359   3.195   3.721  0.00  0.00    +0.002 A 
ATOM     29  C   UNL     1       9.940   2.948   5.012  0.00  0.00    +0.024 A 
ATOM     30  C   UNL     1       8.780   2.215   5.241  0.00  0.00    +0.043 A 
ATOM     31  N   UNL     1       8.148   1.830   6.419  0.00  0.00    -0.280 N 
ATOM     32  C   UNL     1       7.032   1.125   6.169  0.00  0.00    +0.269 C 
ATOM     33  O   UNL     1       6.275   0.664   7.003  0.00  0.00    -0.268 OA
ATOM     34  H   UNL     1       8.470   2.048   7.308  0.00  0.00    +0.155 HD
ENDBRANCH  21  23
ENDBRANCH  18  19
ENDBRANCH   1  18
TORSDOF 6
