REMARK  Name = ZINC02334982
REMARK  16 active torsions:
REMARK  status: ('A' for Active; 'I' for Inactive)
REMARK    1  A    between atoms: C_1  and  C_2
REMARK    2  A    between atoms: C_2  and  O_3
REMARK    3  A    between atoms: O_3  and  C_4
REMARK    4  A    between atoms: C_4  and  C_6
REMARK    5  A    between atoms: C_7  and  C_24
REMARK    6  A    between atoms: C_9  and  N_23
REMARK    7  A    between atoms: C_10  and  C_21
REMARK    8  A    between atoms: C_11  and  C_13
REMARK    9  A    between atoms: C_18  and  O_19
REMARK   10  A    between atoms: O_19  and  C_20
REMARK   11  A    between atoms: C_24  and  S_25
REMARK   12  A    between atoms: S_25  and  C_26
REMARK   13  A    between atoms: C_27  and  C_35
REMARK   14  A    between atoms: C_28  and  C_34
REMARK   15  A    between atoms: C_29  and  C_33
REMARK   16  A    between atoms: C_30  and  C_32
REMARK                            x       y       z     vdW  Elec       q    Type
REMARK                         _______ _______ _______ _____ _____    ______ ____
ROOT
ATOM      1  C   UNL     1      -0.694   1.693   3.588  0.00  0.00    +0.088 C 
ATOM      2  C   UNL     1      -0.294   1.155   4.747  0.00  0.00    +0.128 C 
ATOM      3  O   UNL     1      -0.897   1.434   5.911  0.00  0.00    -0.444 OA
ATOM      4  C   UNL     1      -1.672   2.528   6.010  0.00  0.00    +0.198 C 
ATOM      5  C   UNL     1      -2.167   3.153   4.914  0.00  0.00    +0.098 C 
ATOM      6  C   UNL     1      -1.862   2.640   3.533  0.00  0.00    +0.108 C 
ENDROOT
BRANCH   6   7
ATOM      7  C   UNL     1      -3.068   1.919   2.988  0.00  0.00    +0.007 A 
ATOM      8  C   UNL     1      -3.563   0.808   3.644  0.00  0.00    +0.008 A 
ATOM      9  C   UNL     1      -4.672   0.148   3.148  0.00  0.00    +0.001 A 
ATOM     10  C   UNL     1      -5.282   0.592   1.989  0.00  0.00    +0.004 A 
ATOM     11  C   UNL     1      -4.787   1.698   1.327  0.00  0.00    +0.046 A 
ATOM     12  C   UNL     1      -3.678   2.365   1.825  0.00  0.00    +0.124 A 
BRANCH  12  13
ATOM     13  O   UNL     1      -3.189   3.455   1.176  0.00  0.00    -0.495 OA
ATOM     14  C   UNL     1      -3.868   3.858  -0.015  0.00  0.00    +0.277 C 
ENDBRANCH  12  13
ENDBRANCH   6   7
BRANCH   4  15
ATOM     15  N   UNL     1      -1.969   3.026   7.254  0.00  0.00    -0.328 N 
ATOM     16  H   UNL     1      -2.527   3.814   7.340  0.00  0.00    +0.145 HD
ATOM     17  H   UNL     1      -1.622   2.589   8.047  0.00  0.00    +0.145 HD
ENDBRANCH   4  15
BRANCH   1  18
ATOM     18  C   UNL     1      -0.011   1.361   2.393  0.00  0.00    +0.339 C 
ATOM     19  O   UNL     1       0.815   2.126   1.931  0.00  0.00    -0.245 OA
BRANCH  18  20
ATOM     20  O   UNL     1      -0.274   0.195   1.766  0.00  0.00    -0.462 OA
BRANCH  20  22
ATOM     21  C   UNL     1       0.021  -1.432   0.004  0.00  0.00    +0.048 C 
ATOM     22  C   UNL     1       0.453  -0.075   0.566  0.00  0.00    +0.229 C 
ENDBRANCH  20  22
ENDBRANCH  18  20
ENDBRANCH   1  18
BRANCH   5  23
ATOM     23  C   UNL     1      -2.989   4.314   5.073  0.00  0.00    +0.101 C 
ATOM     24  N   UNL     1      -3.642   5.236   5.199  0.00  0.00    -0.191 NA
ENDBRANCH   5  23
BRANCH   2  25
ATOM     25  C   UNL     1       0.878   0.208   4.742  0.00  0.00    +0.150 C 
BRANCH  25  26
ATOM     26  S   UNL     1       2.338   1.052   5.400  0.00  0.00    -0.097 S 
BRANCH  26  27
ATOM     27  C   UNL     1       3.522  -0.248   5.283  0.00  0.00    +0.115 A 
ATOM     28  C   UNL     1       4.848  -0.026   5.696  0.00  0.00    +0.087 A 
ATOM     29  C   UNL     1       5.768  -1.075   5.598  0.00  0.00    -0.026 A 
ATOM     30  C   UNL     1       5.333  -2.286   5.088  0.00  0.00    -0.025 A 
ATOM     31  C   UNL     1       4.014  -2.427   4.698  0.00  0.00    +0.043 A 
ATOM     32  N   UNL     1       3.159  -1.427   4.802  0.00  0.00    -0.244 NA
ATOM     33  C   UNL     1       3.543  -3.746   4.142  0.00  0.00    +0.066 C 
ATOM     34  C   UNL     1       6.290  -3.443   4.959  0.00  0.00    +0.046 C 
ATOM     35  C   UNL     1       7.199  -0.890   6.032  0.00  0.00    +0.045 C 
BRANCH  28  36
ATOM     36  C   UNL     1       5.247   1.249   6.211  0.00  0.00    +0.102 C 
ATOM     37  N   UNL     1       5.564   2.260   6.620  0.00  0.00    -0.191 NA
ENDBRANCH  28  36
ENDBRANCH  26  27
ENDBRANCH  25  26
ENDBRANCH   2  25
TORSDOF 11
