REMARK  Name = ZINC45606046
REMARK  9 active torsions:
REMARK  status: ('A' for Active; 'I' for Inactive)
REMARK    1  A    between atoms: C_6  and  N_7
REMARK    2  A    between atoms: N_7  and  C_8
REMARK    3  A    between atoms: C_8  and  C_9
REMARK    4  A    between atoms: C_9  and  C_10
REMARK    5  A    between atoms: C_13  and  C_15
REMARK    6  A    between atoms: C_15  and  N_16
REMARK    7  A    between atoms: N_19  and  C_22
REMARK    8  A    between atoms: C_25  and  C_31
REMARK    9  A    between atoms: C_27  and  N_28
REMARK                            x       y       z     vdW  Elec       q    Type
REMARK                         _______ _______ _______ _____ _____    ______ ____
ROOT
ATOM      1  N   UNL     1      -4.787   0.088   0.363  0.00  0.00    +0.387 N 
ATOM      2  C   UNL     1      -4.663   0.853   1.610  0.00  0.00    -0.059 C 
ATOM      3  C   UNL     1      -5.774   1.906   1.675  0.00  0.00    +0.086 C 
ATOM      4  N   UNL     1      -7.069   1.229   1.504  0.00  0.00    -0.332 N 
ATOM      5  C   UNL     1      -7.227   0.312   0.364  0.00  0.00    +0.086 C 
ATOM      6  C   UNL     1      -6.047  -0.666   0.361  0.00  0.00    -0.059 C 
ATOM      7  H   UNL     1      -4.776   0.724  -0.421  0.00  0.00    -0.081 HD
ENDROOT
BRANCH   4   8
ATOM      8  C   UNL     1      -8.120   1.451   2.397  0.00  0.00    +0.060 A 
ATOM      9  C   UNL     1      -9.033   2.470   2.158  0.00  0.00    +0.026 A 
ATOM     10  C   UNL     1     -10.071   2.687   3.043  0.00  0.00    +0.014 A 
ATOM     11  C   UNL     1     -10.201   1.891   4.166  0.00  0.00    +0.057 A 
ATOM     12  C   UNL     1      -9.293   0.876   4.407  0.00  0.00    +0.047 A 
ATOM     13  C   UNL     1      -8.257   0.650   3.523  0.00  0.00    +0.148 A 
BRANCH  11  14
ATOM     14  C   UNL     1     -11.335   2.130   5.130  0.00  0.00    +0.417 C 
ATOM     15  F   UNL     1     -12.113   3.201   4.678  0.00  0.00    -0.166 F 
ATOM     16  F   UNL     1     -12.127   0.980   5.213  0.00  0.00    -0.166 F 
ATOM     17  F   UNL     1     -10.816   2.431   6.394  0.00  0.00    -0.166 F 
ENDBRANCH  11  14
BRANCH  13  18
ATOM     18  N   UNL     1      -7.289  -0.440   3.779  0.00  0.00    +0.058 N 
ATOM     19  O   UNL     1      -7.409  -1.137   4.759  0.00  0.00    -0.126 OA
ATOM     20  O   UNL     1      -6.379  -0.634   3.007  0.00  0.00    -0.126 OA
ENDBRANCH  13  18
ENDBRANCH   4   8
BRANCH   1  21
ATOM     21  C   UNL     1      -3.659  -0.846   0.249  0.00  0.00    +0.019 C 
BRANCH  21  23
ATOM     22  N   UNL     1      -1.200  -0.722   0.010  0.00  0.00    -0.272 N 
ATOM     23  C   UNL     1      -2.374  -0.069   0.127  0.00  0.00    +0.203 C 
ATOM     24  O   UNL     1      -2.395   1.144   0.134  0.00  0.00    -0.277 OA
BRANCH  22  30
ATOM     25  C   UNL     1       0.428   0.657   1.143  0.00  0.00    +0.026 A 
ATOM     26  C   UNL     1       1.615   1.364   1.129  0.00  0.00    +0.040 A 
ATOM     27  C   UNL     1       2.378   1.415  -0.025  0.00  0.00    +0.124 A 
ATOM     28  C   UNL     1       1.955   0.757  -1.167  0.00  0.00    +0.040 A 
ATOM     29  C   UNL     1       0.769   0.049  -1.158  0.00  0.00    +0.026 A 
ATOM     30  C   UNL     1       0.002  -0.004  -0.002  0.00  0.00    +0.036 A 
ATOM     31  F   UNL     1       3.538   2.107  -0.036  0.00  0.00    -0.205 F 
ENDBRANCH  22  30
BRANCH  22  32
ATOM     32  C   UNL     1      -1.183  -2.182  -0.105  0.00  0.00    +0.123 C 
BRANCH  32  33
ATOM     33  C   UNL     1      -1.096  -2.802   1.291  0.00  0.00    +0.115 C 
BRANCH  33  34
ATOM     34  C   UNL     1      -1.078  -4.304   1.173  0.00  0.00    +0.212 C 
ATOM     35  O   UNL     1      -1.129  -4.828   0.080  0.00  0.00    -0.276 OA
ATOM     36  N   UNL     1      -1.004  -5.067   2.282  0.00  0.00    -0.329 N 
ATOM     37  H   UNL     1      -0.963  -4.649   3.156  0.00  0.00    +0.145 HD
ATOM     38  H   UNL     1      -0.993  -6.034   2.206  0.00  0.00    +0.145 HD
ENDBRANCH  33  34
ENDBRANCH  32  33
ENDBRANCH  22  32
ENDBRANCH  21  23
ENDBRANCH   1  21
TORSDOF 9
