REMARK  Name = ZINC36233242
REMARK  2 active torsions:
REMARK  status: ('A' for Active; 'I' for Inactive)
REMARK    1  A    between atoms: C_2  and  S_8
REMARK    2  A    between atoms: S_8  and  N_11
REMARK                            x       y       z     vdW  Elec       q    Type
REMARK                         _______ _______ _______ _____ _____    ______ ____
ROOT
ATOM      1  N   UNL     1       1.896   4.274   1.440  0.00  0.00    -0.103 NA
ATOM      2  C   UNL     1       2.038   5.548   1.708  0.00  0.00    +0.192 A 
ATOM      3  N   UNL     1       2.582   6.151   2.819  0.00  0.00    -0.336 N 
ATOM      4  C   UNL     1       2.630   7.524   2.892  0.00  0.00    +0.024 A 
ATOM      5  C   UNL     1       2.134   8.219   1.858  0.00  0.00    -0.005 A 
ATOM      6  S   UNL     1       1.585   6.971   0.726  0.00  0.00    -0.055 S 
ATOM      7  C   UNL     1       2.074   9.705   1.716  0.00  0.00    -0.038 C 
ATOM      8  N   UNL     1       2.305  10.311   3.040  0.00  0.00    +0.382 N 
ATOM      9  C   UNL     1       3.506   9.716   3.642  0.00  0.00    -0.076 C 
ATOM     10  C   UNL     1       3.218   8.279   4.083  0.00  0.00    +0.035 C 
ATOM     11  H   UNL     1       2.438  11.306   2.937  0.00  0.00    -0.085 HD
ATOM     12  H   UNL     1       2.929   5.611   3.546  0.00  0.00    +0.168 HD
ATOM     13  H   UNL     1       1.508  10.136   3.634  0.00  0.00    -0.085 HD
ENDROOT
BRANCH   1  14
ATOM     14  S   UNL     1       1.208   3.800   0.010  0.00  0.00    +0.103 S 
ATOM     15  O   UNL     1       2.099   4.200  -1.022  0.00  0.00    -0.146 OA
ATOM     16  O   UNL     1      -0.148   4.224   0.052  0.00  0.00    -0.146 OA
BRANCH  14  18
ATOM     17  C   UNL     1      -0.016   1.352   0.009  0.00  0.00    +0.058 A 
ATOM     18  C   UNL     1       1.185   2.038   0.002  0.00  0.00    +0.139 A 
ATOM     19  C   UNL     1       2.344   1.335  -0.013  0.00  0.00    +0.106 A 
ATOM     20  S   UNL     1       1.753  -0.350  -0.017  0.00  0.00    -0.063 S 
ATOM     21  C   UNL     1       0.002  -0.004   0.002  0.00  0.00    +0.081 A 
ATOM     22 CL   UNL     1      -1.332  -1.115   0.010  0.00  0.00    -0.076 Cl
ATOM     23 CL   UNL     1       3.978   1.920  -0.026  0.00  0.00    -0.074 Cl
ENDBRANCH  14  18
ENDBRANCH   1  14
TORSDOF 2
