REMARK  Name = ZINC39674771
REMARK  10 active torsions:
REMARK  status: ('A' for Active; 'I' for Inactive)
REMARK    1  A    between atoms: C_1  and  C_2
REMARK    2  A    between atoms: C_2  and  S_3
REMARK    3  A    between atoms: S_3  and  C_4
REMARK    4  A    between atoms: C_5  and  C_10
REMARK    5  A    between atoms: C_14  and  C_23
REMARK    6  A    between atoms: N_25  and  C_26
REMARK    7  A    between atoms: C_26  and  C_27
REMARK    8  A    between atoms: C_27  and  C_28
REMARK    9  A    between atoms: C_31  and  C_39
REMARK   10  A    between atoms: C_36  and  C_38
REMARK                            x       y       z     vdW  Elec       q    Type
REMARK                         _______ _______ _______ _____ _____    ______ ____
ROOT
ATOM      1  C   UNL     1       2.049  -2.321  -3.756  0.00  0.00    +0.249 C 
ATOM      2  O   UNL     1       2.046  -1.130  -4.004  0.00  0.00    -0.270 OA
ATOM      3  N   UNL     1       2.686  -3.179  -4.576  0.00  0.00    -0.296 N 
ATOM      4  C   UNL     1       2.711  -4.659  -4.501  0.00  0.00    +0.121 C 
ATOM      5  C   UNL     1       2.626  -5.126  -5.971  0.00  0.00    +0.100 C 
ATOM      6  C   UNL     1       3.159  -3.940  -6.792  0.00  0.00    -0.004 C 
ATOM      7  C   UNL     1       3.514  -2.857  -5.763  0.00  0.00    +0.115 C 
ATOM      8  C   UNL     1       2.081  -3.426  -7.740  0.00  0.00    -0.010 C 
ATOM      9  C   UNL     1       2.652  -2.284  -8.585  0.00  0.00    -0.082 C 
ATOM     10  N   UNL     1       3.811  -2.768  -9.346  0.00  0.00    +0.379 N 
ATOM     11  C   UNL     1       4.880  -3.175  -8.426  0.00  0.00    -0.082 C 
ATOM     12  C   UNL     1       4.402  -4.354  -7.574  0.00  0.00    -0.010 C 
ATOM     13  H   UNL     1       3.535  -3.559  -9.909  0.00  0.00    -0.086 HD
ATOM     14  H   UNL     1       4.148  -2.032  -9.947  0.00  0.00    -0.086 HD
ENDROOT
BRANCH   1  16
ATOM     15  C   UNL     1       0.161  -2.228  -2.116  0.00  0.00    +0.109 A 
ATOM     16  C   UNL     1       1.356  -2.825  -2.556  0.00  0.00    +0.069 A 
ATOM     17  C   UNL     1       1.875  -3.906  -1.835  0.00  0.00    +0.017 A 
ATOM     18  C   UNL     1       1.186  -4.341  -0.717  0.00  0.00    +0.020 A 
ATOM     19  C   UNL     1       0.016  -3.703  -0.345  0.00  0.00    +0.112 A 
ATOM     20  N   UNL     1      -0.455  -2.683  -1.035  0.00  0.00    -0.248 NA
BRANCH  15  21
ATOM     21  S   UNL     1      -0.517  -0.865  -3.003  0.00  0.00    -0.105 S 
BRANCH  21  23
ATOM     22  C   UNL     1      -2.714   0.745  -2.747  0.00  0.00    +0.015 C 
ATOM     23  C   UNL     1      -2.018  -0.441  -2.076  0.00  0.00    +0.072 C 
ENDBRANCH  21  23
ENDBRANCH  15  21
ENDBRANCH   1  16
BRANCH   5  24
ATOM     24  C   UNL     1       1.197  -5.426  -6.345  0.00  0.00    +0.218 C 
ATOM     25  O   UNL     1       0.291  -4.822  -5.810  0.00  0.00    -0.275 OA
ATOM     26  N   UNL     1       0.926  -6.364  -7.273  0.00  0.00    -0.315 N 
ATOM     27  H   UNL     1       1.650  -6.847  -7.701  0.00  0.00    +0.149 HD
BRANCH  26  28
ATOM     28  C   UNL     1      -0.463  -6.655  -7.637  0.00  0.00    +0.108 C 
BRANCH  28  29
ATOM     29  C   UNL     1      -0.492  -7.751  -8.704  0.00  0.00    +0.052 C 
BRANCH  29  30
ATOM     30  C   UNL     1      -1.921  -8.050  -9.078  0.00  0.00    -0.037 C 
ATOM     31  C   UNL     1      -3.037  -7.460  -8.577  0.00  0.00    +0.000 A 
ATOM     32  C   UNL     1      -3.214  -6.441  -7.605  0.00  0.00    +0.028 A 
ATOM     33  C   UNL     1      -4.480  -6.017  -7.272  0.00  0.00    +0.052 A 
ATOM     34  C   UNL     1      -5.662  -6.597  -7.900  0.00  0.00    +0.021 A 
ATOM     35  C   UNL     1      -5.555  -7.568  -8.830  0.00  0.00    +0.027 A 
ATOM     36  C   UNL     1      -4.228  -8.056  -9.222  0.00  0.00    +0.043 A 
ATOM     37  N   UNL     1      -3.867  -8.975 -10.085  0.00  0.00    -0.378 N 
ATOM     38  C   UNL     1      -2.403  -9.063 -10.091  0.00  0.00    +0.103 C 
ATOM     39  C   UNL     1      -1.857  -8.721 -11.479  0.00  0.00    +0.035 C 
ATOM     40  H   UNL     1      -4.468  -9.505 -10.631  0.00  0.00    +0.160 HD
BRANCH  33  41
ATOM     41  C   UNL     1      -4.640  -4.988  -6.289  0.00  0.00    +0.099 C 
ATOM     42  N   UNL     1      -4.767  -4.172  -5.510  0.00  0.00    -0.191 NA
ENDBRANCH  33  41
ENDBRANCH  29  30
ENDBRANCH  28  29
ENDBRANCH  26  28
ENDBRANCH   5  24
TORSDOF 8
