REMARK  Name = ZINC14832315
REMARK  12 active torsions:
REMARK  status: ('A' for Active; 'I' for Inactive)
REMARK    1  A    between atoms: C_1  and  C_2
REMARK    2  A    between atoms: C_2  and  C_3
REMARK    3  A    between atoms: C_3  and  C_5
REMARK    4  A    between atoms: C_3  and  C_6
REMARK    5  A    between atoms: C_9  and  O_13
REMARK    6  A    between atoms: O_13  and  C_14
REMARK    7  A    between atoms: C_14  and  C_15
REMARK    8  A    between atoms: N_17  and  N_18
REMARK    9  A    between atoms: C_19  and  C_21
REMARK   10  A    between atoms: C_21  and  O_22
REMARK   11  A    between atoms: O_22  and  C_23
REMARK   12  A    between atoms: C_26  and  C_29
REMARK                            x       y       z     vdW  Elec       q    Type
REMARK                         _______ _______ _______ _____ _____    ______ ____
ROOT
ATOM      1  N   UNL     1      -2.259   8.542   0.070  0.00  0.00    -0.231 N 
ATOM      2  C   UNL     1      -1.179   7.736   0.055  0.00  0.00    +0.267 C 
ATOM      3  O   UNL     1      -0.064   8.214   0.047  0.00  0.00    -0.271 OA
ATOM      4  H   UNL     1      -3.150   8.159   0.076  0.00  0.00    +0.173 HD
ENDROOT
BRANCH   1   7
ATOM      5  C   UNL     1      -3.174  10.740   0.090  0.00  0.00    +0.267 C 
ATOM      6  O   UNL     1      -4.288  10.261   0.099  0.00  0.00    -0.271 OA
ATOM      7  N   UNL     1      -2.094   9.933   0.076  0.00  0.00    -0.231 N 
ATOM      8  H   UNL     1      -1.203  10.316   0.069  0.00  0.00    +0.173 HD
BRANCH   5   9
ATOM      9  C   UNL     1      -2.997  12.236   0.097  0.00  0.00    +0.326 C 
BRANCH   9  10
ATOM     10  O   UNL     1      -4.278  12.868   0.113  0.00  0.00    -0.482 OA
BRANCH  10  14
ATOM     11  C   UNL     1      -4.334  16.993   0.135  0.00  0.00    -0.043 A 
ATOM     12  C   UNL     1      -3.127  16.319   0.120  0.00  0.00    +0.007 A 
ATOM     13  C   UNL     1      -3.106  14.938   0.118  0.00  0.00    +0.047 A 
ATOM     14  C   UNL     1      -4.297  14.227   0.120  0.00  0.00    +0.135 A 
ATOM     15  C   UNL     1      -5.507  14.905   0.135  0.00  0.00    +0.060 A 
ATOM     16  C   UNL     1      -5.523  16.288   0.143  0.00  0.00    +0.022 A 
ATOM     17 BR   UNL     1      -7.133  13.940   0.146  0.00  0.00    -0.047 Br
BRANCH  11  18
ATOM     18  C   UNL     1      -4.354  18.500   0.143  0.00  0.00    +0.016 C 
ATOM     19  C   UNL     1      -3.627  19.013   1.389  0.00  0.00    +0.012 C 
BRANCH  18  21
ATOM     20  C   UNL     1      -3.780  20.550  -1.165  0.00  0.00    +0.004 C 
ATOM     21  C   UNL     1      -3.651  19.026  -1.110  0.00  0.00    +0.004 C 
ENDBRANCH  18  21
ENDBRANCH  11  18
ENDBRANCH  10  14
ENDBRANCH   9  10
ENDBRANCH   5   9
ENDBRANCH   1   7
BRANCH   2  22
ATOM     22  C   UNL     1      -1.356   6.239   0.049  0.00  0.00    +0.326 C 
BRANCH  22  23
ATOM     23  O   UNL     1      -0.074   5.608   0.033  0.00  0.00    -0.483 OA
BRANCH  23  24
ATOM     24  C   UNL     1      -0.056   4.249   0.025  0.00  0.00    +0.121 A 
ATOM     25  C   UNL     1       1.157   3.573   0.010  0.00  0.00    +0.046 A 
ATOM     26  C   UNL     1       1.179   2.194   0.003  0.00  0.00    +0.012 A 
ATOM     27  C   UNL     1      -0.018   1.479   0.010  0.00  0.00    -0.018 A 
ATOM     28  C   UNL     1      -1.234   2.161   0.020  0.00  0.00    +0.012 A 
ATOM     29  C   UNL     1      -1.249   3.540   0.033  0.00  0.00    +0.046 A 
BRANCH  27  30
ATOM     30  C   UNL     1       0.002  -0.004   0.002  0.00  0.00    -0.018 A 
ATOM     31  C   UNL     1       1.217  -0.687  -0.019  0.00  0.00    +0.008 A 
ATOM     32  C   UNL     1       1.230  -2.067  -0.021  0.00  0.00    +0.001 A 
ATOM     33  C   UNL     1       0.040  -2.772  -0.013  0.00  0.00    +0.000 A 
ATOM     34  C   UNL     1      -1.169  -2.100   0.002  0.00  0.00    +0.001 A 
ATOM     35  C   UNL     1      -1.194  -0.720   0.010  0.00  0.00    +0.008 A 
ENDBRANCH  27  30
ENDBRANCH  23  24
ENDBRANCH  22  23
ENDBRANCH   2  22
TORSDOF 10
