REMARK  Name = ZINC03900528
REMARK  5 active torsions:
REMARK  status: ('A' for Active; 'I' for Inactive)
REMARK    1  A    between atoms: C_1  and  O_2
REMARK    2  A    between atoms: O_2  and  C_3
REMARK    3  A    between atoms: C_7  and  C_10
REMARK    4  A    between atoms: C_8  and  O_9
REMARK    5  A    between atoms: N_16  and  C_17
REMARK                            x       y       z     vdW  Elec       q    Type
REMARK                         _______ _______ _______ _____ _____    ______ ____
ROOT
ATOM      1  C   UNL     1      -2.592  -3.891  -3.221  0.00  0.00    +0.032 C 
ATOM      2  C   UNL     1      -1.382  -3.643  -2.659  0.00  0.00    +0.078 C 
ATOM      3  C   UNL     1      -0.339  -4.593  -2.226  0.00  0.00    +0.256 C 
ATOM      4  O   UNL     1      -0.485  -5.795  -2.345  0.00  0.00    -0.269 OA
ATOM      5  N   UNL     1       0.761  -4.078  -1.703  0.00  0.00    -0.260 N 
ATOM      6  C   UNL     1       0.907  -2.713  -1.577  0.00  0.00    +0.166 C 
ATOM      7  N   UNL     1       1.924  -2.042  -1.085  0.00  0.00    -0.224 NA
ATOM      8  S   UNL     1      -0.625  -2.079  -2.239  0.00  0.00    -0.049 S 
ATOM      9  H   UNL     1       1.472  -4.666  -1.405  0.00  0.00    +0.157 HD
ENDROOT
BRANCH   7  10
ATOM     10  C   UNL     1       1.885  -0.675  -1.043  0.00  0.00    +0.085 A 
ATOM     11  C   UNL     1       0.703  -0.016  -0.700  0.00  0.00    +0.029 A 
ATOM     12  C   UNL     1       0.671   1.362  -0.660  0.00  0.00    +0.002 A 
ATOM     13  C   UNL     1       1.807   2.093  -0.959  0.00  0.00    +0.002 A 
ATOM     14  C   UNL     1       2.983   1.448  -1.300  0.00  0.00    +0.022 A 
ATOM     15  C   UNL     1       3.029   0.069  -1.344  0.00  0.00    +0.066 A 
ATOM     16 CL   UNL     1       4.505  -0.738  -1.772  0.00  0.00    -0.081 Cl
ENDBRANCH   7  10
BRANCH   1  21
ATOM     17  C   UNL     1      -5.546  -1.897  -4.421  0.00  0.00    +0.162 A 
ATOM     18  C   UNL     1      -4.948  -0.674  -4.678  0.00  0.00    +0.049 A 
ATOM     19  C   UNL     1      -3.591  -0.498  -4.464  0.00  0.00    +0.004 A 
ATOM     20  C   UNL     1      -2.821  -1.536  -3.986  0.00  0.00    +0.012 A 
ATOM     21  C   UNL     1      -3.409  -2.780  -3.725  0.00  0.00    +0.021 A 
ATOM     22  C   UNL     1      -4.784  -2.957  -3.944  0.00  0.00    +0.166 A 
BRANCH  17  24
ATOM     23  C   UNL     1      -7.601  -0.930  -5.126  0.00  0.00    +0.277 C 
ATOM     24  O   UNL     1      -6.879  -2.061  -4.635  0.00  0.00    -0.491 OA
ENDBRANCH  17  24
BRANCH  22  25
ATOM     25  O   UNL     1      -5.366  -4.157  -3.690  0.00  0.00    -0.503 OA
ATOM     26  H   UNL     1      -5.700  -4.249  -2.787  0.00  0.00    +0.292 HD
ENDBRANCH  22  25
ENDBRANCH   1  21
TORSDOF 4
