REMARK  Name = ZINC49181591
REMARK  13 active torsions:
REMARK  status: ('A' for Active; 'I' for Inactive)
REMARK    1  A    between atoms: C_1  and  C_2
REMARK    2  A    between atoms: C_8  and  C_37
REMARK    3  A    between atoms: C_9  and  O_36
REMARK    4  A    between atoms: C_16  and  C_35
REMARK    5  A    between atoms: C_21  and  C_23
REMARK    6  A    between atoms: C_23  and  C_25
REMARK    7  A    between atoms: C_23  and  C_26
REMARK    8  A    between atoms: C_26  and  C_28
REMARK    9  A    between atoms: C_29  and  C_30
REMARK   10  A    between atoms: C_29  and  C_31
REMARK   11  A    between atoms: C_31  and  C_32
REMARK   12  A    between atoms: C_31  and  C_33
REMARK   13  A    between atoms: C_31  and  O_34
REMARK                            x       y       z     vdW  Elec       q    Type
REMARK                         _______ _______ _______ _____ _____    ______ ____
ROOT
ATOM      1  C   UNL     1      -1.923   3.309   4.151  0.00  0.00    +0.018 C 
ATOM      2  C   UNL     1      -2.035   1.896   3.576  0.00  0.00    +0.085 C 
ATOM      3  C   UNL     1      -1.957   1.958   2.067  0.00  0.00    +0.139 C 
ATOM      4  O   UNL     1      -2.921   1.714   1.382  0.00  0.00    -0.297 OA
ATOM      5  C   UNL     1      -0.630   2.335   1.443  0.00  0.00    +0.075 C 
ATOM      6  C   UNL     1       0.448   1.412   2.017  0.00  0.00    +0.021 C 
ATOM      7  C   UNL     1       0.451   1.501   3.547  0.00  0.00    +0.019 C 
ATOM      8  C   UNL     1      -0.891   1.039   4.105  0.00  0.00    +0.085 C 
ATOM      9  C   UNL     1      -1.079  -0.426   3.698  0.00  0.00    +0.040 C 
ATOM     10  C   UNL     1      -0.067  -1.248   4.490  0.00  0.00    +0.034 C 
ATOM     11  C   UNL     1       1.304  -0.620   4.475  0.00  0.00    -0.066 C 
ATOM     12  C   UNL     1       1.561   0.593   4.056  0.00  0.00    -0.061 C 
ATOM     13  C   UNL     1       2.942   1.207   4.002  0.00  0.00    +0.032 C 
ATOM     14  C   UNL     1       4.046   0.318   4.575  0.00  0.00    +0.012 C 
ATOM     15  C   UNL     1       3.701  -1.106   4.179  0.00  0.00    -0.022 C 
ATOM     16  C   UNL     1       2.432  -1.454   5.008  0.00  0.00    +0.021 C 
ATOM     17  C   UNL     1       2.327  -2.965   4.794  0.00  0.00    +0.009 C 
ATOM     18  C   UNL     1       3.804  -3.432   4.927  0.00  0.00    +0.005 C 
ATOM     19  C   UNL     1       4.684  -2.197   4.588  0.00  0.00    +0.006 C 
ATOM     20  C   UNL     1       3.416  -1.185   2.678  0.00  0.00    +0.012 C 
ATOM     21  C   UNL     1       0.728   2.943   3.977  0.00  0.00    +0.019 C 
ENDROOT
BRANCH  19  22
ATOM     22  C   UNL     1       5.479  -1.761   5.820  0.00  0.00    +0.060 C 
ATOM     23  C   UNL     1       6.320  -2.935   6.327  0.00  0.00    +0.016 C 
BRANCH  22  24
ATOM     24  C   UNL     1       6.385  -0.615   5.454  0.00  0.00    +0.159 C 
ATOM     25  O   UNL     1       6.908  -0.580   4.359  0.00  0.00    -0.292 OA
BRANCH  24  26
ATOM     26  C   UNL     1       6.636   0.457   6.418  0.00  0.00    +0.048 C 
ATOM     27  C   UNL     1       7.444   1.469   6.095  0.00  0.00    -0.039 C 
ATOM     28  C   UNL     1       8.241   1.419   4.818  0.00  0.00    +0.042 C 
BRANCH  27  29
ATOM     29  C   UNL     1       7.558   2.662   7.009  0.00  0.00    +0.082 C 
ATOM     30  C   UNL     1       9.009   2.812   7.473  0.00  0.00    +0.046 C 
ATOM     31  C   UNL     1       7.130   3.924   6.257  0.00  0.00    +0.046 C 
BRANCH  29  32
ATOM     32  O   UNL     1       6.712   2.475   8.145  0.00  0.00    -0.385 OA
ATOM     33  H   UNL     1       6.736   3.206   8.778  0.00  0.00    +0.211 HD
ENDBRANCH  29  32
ENDBRANCH  27  29
ENDBRANCH  24  26
ENDBRANCH  22  24
ENDBRANCH  19  22
BRANCH   8  34
ATOM     34  O   UNL     1      -0.863   1.118   5.531  0.00  0.00    -0.387 OA
ATOM     35  H   UNL     1      -1.673   0.810   5.958  0.00  0.00    +0.210 HD
ENDBRANCH   8  34
TORSDOF 6
