REMARK  Name = ZINC40916574
REMARK  4 active torsions:
REMARK  status: ('A' for Active; 'I' for Inactive)
REMARK    1  A    between atoms: C_4  and  O_22
REMARK    2  A    between atoms: C_5  and  C_7
REMARK    3  A    between atoms: O_22  and  C_23
REMARK    4  A    between atoms: C_23  and  C_24
REMARK                            x       y       z     vdW  Elec       q    Type
REMARK                         _______ _______ _______ _____ _____    ______ ____
ROOT
ATOM      1  C   UNL     1      -0.017   1.378   0.010  0.00  0.00    +0.001 A 
ATOM      2  C   UNL     1       1.170   2.088   0.002  0.00  0.00    +0.004 A 
ATOM      3  C   UNL     1       2.377   1.417  -0.013  0.00  0.00    +0.046 A 
ATOM      4  C   UNL     1       2.399   0.030  -0.021  0.00  0.00    +0.127 A 
ATOM      5  C   UNL     1       1.207  -0.680  -0.013  0.00  0.00    +0.023 A 
ATOM      6  C   UNL     1       0.002  -0.004   0.002  0.00  0.00    +0.009 A 
ENDROOT
BRANCH   5   7
ATOM      7  C   UNL     1       1.227  -2.187  -0.022  0.00  0.00    +0.179 C 
ATOM      8  C   UNL     1       0.537  -2.705   1.221  0.00  0.00    +0.041 C 
ATOM      9  C   UNL     1      -0.694  -3.257   1.181  0.00  0.00    +0.020 C 
ATOM     10  C   UNL     1      -1.365  -3.750   2.442  0.00  0.00    +0.052 C 
ATOM     11  C   UNL     1      -0.305  -4.246   3.428  0.00  0.00    +0.014 C 
ATOM     12  C   UNL     1       0.654  -3.089   3.728  0.00  0.00    +0.080 C 
ATOM     13  C   UNL     1       1.237  -2.590   2.436  0.00  0.00    +0.163 C 
ATOM     14  O   UNL     1       2.339  -2.076   2.441  0.00  0.00    -0.292 OA
ATOM     15  N   UNL     1      -1.387  -3.400   0.003  0.00  0.00    -0.287 N 
ATOM     16  C   UNL     1      -0.692  -3.237  -1.185  0.00  0.00    +0.218 A 
ATOM     17  N   UNL     1       0.538  -2.672  -1.211  0.00  0.00    -0.221 N 
ATOM     18  N   UNL     1       0.942  -2.672  -2.545  0.00  0.00    -0.156 NA
ATOM     19  C   UNL     1      -0.033  -3.212  -3.235  0.00  0.00    +0.247 A 
ATOM     20  N   UNL     1      -1.018  -3.551  -2.408  0.00  0.00    -0.201 NA
ATOM     21  H   UNL     1      -2.334  -3.609   0.002  0.00  0.00    +0.155 HD
ENDBRANCH   5   7
BRANCH   4  22
ATOM     22  O   UNL     1       3.586  -0.632  -0.037  0.00  0.00    -0.487 OA
BRANCH  22  23
ATOM     23  C   UNL     1       4.772   0.164  -0.045  0.00  0.00    +0.266 C 
BRANCH  23  24
ATOM     24  C   UNL     1       5.981  -0.737  -0.062  0.00  0.00    +0.008 A 
ATOM     25  C   UNL     1       5.819  -2.110  -0.073  0.00  0.00    +0.010 A 
ATOM     26  C   UNL     1       6.927  -2.936  -0.089  0.00  0.00    +0.020 A 
ATOM     27  C   UNL     1       8.198  -2.390  -0.094  0.00  0.00    +0.042 A 
ATOM     28  C   UNL     1       8.360  -1.016  -0.083  0.00  0.00    +0.040 A 
ATOM     29  C   UNL     1       7.251  -0.189  -0.072  0.00  0.00    +0.049 A 
ATOM     30 CL   UNL     1       7.454   1.535  -0.065  0.00  0.00    -0.083 Cl
ATOM     31 CL   UNL     1       9.589  -3.428  -0.113  0.00  0.00    -0.083 Cl
ENDBRANCH  23  24
ENDBRANCH  22  23
ENDBRANCH   4  22
TORSDOF 4
