REMARK  Name = ZINC13174747
REMARK  11 active torsions:
REMARK  status: ('A' for Active; 'I' for Inactive)
REMARK    1  A    between atoms: C_1  and  C_2
REMARK    2  A    between atoms: C_2  and  C_3
REMARK    3  A    between atoms: C_2  and  C_4
REMARK    4  A    between atoms: C_7  and  N_10
REMARK    5  A    between atoms: C_11  and  C_13
REMARK    6  A    between atoms: C_13  and  S_14
REMARK    7  A    between atoms: S_14  and  C_15
REMARK    8  A    between atoms: C_16  and  C_34
REMARK    9  A    between atoms: C_17  and  C_29
REMARK   10  A    between atoms: C_23  and  C_27
REMARK   11  A    between atoms: C_23  and  C_28
REMARK                            x       y       z     vdW  Elec       q    Type
REMARK                         _______ _______ _______ _____ _____    ______ ____
ROOT
ATOM      1  C   UNL     1      -9.265  -4.419  -2.483  0.00  0.00    +0.080 C 
ATOM      2  C   UNL     1      -9.852  -5.125  -3.486  0.00  0.00    +0.069 C 
ATOM      3  C   UNL     1     -11.302  -5.505  -3.420  0.00  0.00    +0.103 C 
ATOM      4  C   UNL     1     -12.038  -4.666  -2.405  0.00  0.00    +0.025 C 
ATOM      5  C   UNL     1     -11.368  -3.988  -1.449  0.00  0.00    +0.016 C 
ATOM      6  N   UNL     1     -10.001  -4.038  -1.385  0.00  0.00    -0.311 N 
ATOM      7  C   UNL     1     -12.104  -3.164  -0.421  0.00  0.00    +0.058 C 
ATOM      8  C   UNL     1     -13.394  -2.612  -1.032  0.00  0.00    -0.023 C 
ATOM      9  C   UNL     1     -14.246  -3.790  -1.516  0.00  0.00    +0.086 C 
ATOM     10  C   UNL     1     -13.440  -4.612  -2.485  0.00  0.00    +0.162 C 
ATOM     11  O   UNL     1     -14.013  -5.240  -3.353  0.00  0.00    -0.292 OA
ATOM     12  C   UNL     1     -13.053  -1.704  -2.216  0.00  0.00    +0.011 C 
ATOM     13  C   UNL     1     -14.165  -1.819   0.024  0.00  0.00    +0.011 C 
ATOM     14  H   UNL     1      -9.547  -3.800  -0.562  0.00  0.00    +0.152 HD
ENDROOT
BRANCH   3  15
ATOM     15  C   UNL     1     -11.416  -6.957  -3.035  0.00  0.00    +0.002 A 
ATOM     16  C   UNL     1     -11.979  -7.981  -3.723  0.00  0.00    +0.012 A 
ATOM     17  C   UNL     1     -11.968  -9.247  -3.169  0.00  0.00    +0.008 A 
ATOM     18  C   UNL     1     -11.393  -9.428  -1.955  0.00  0.00    +0.045 A 
ATOM     19  S   UNL     1     -10.837  -7.778  -1.560  0.00  0.00    -0.101 S 
ENDBRANCH   3  15
BRANCH   2  20
ATOM     20  C   UNL     1      -9.074  -5.513  -4.624  0.00  0.00    +0.098 C 
ATOM     21  N   UNL     1      -8.457  -5.821  -5.527  0.00  0.00    -0.191 NA
ENDBRANCH   2  20
BRANCH   1  22
ATOM     22  S   UNL     1      -7.557  -3.997  -2.587  0.00  0.00    -0.100 S 
BRANCH  22  23
ATOM     23  C   UNL     1      -7.236  -3.087  -1.052  0.00  0.00    +0.171 C 
BRANCH  23  25
ATOM     24  N   UNL     1      -5.320  -1.968   0.042  0.00  0.00    -0.285 N 
ATOM     25  C   UNL     1      -5.790  -2.663  -1.013  0.00  0.00    +0.227 C 
ATOM     26  O   UNL     1      -5.050  -2.946  -1.931  0.00  0.00    -0.275 OA
ATOM     27  H   UNL     1      -5.891  -1.807   0.810  0.00  0.00    +0.155 HD
BRANCH  24  31
ATOM     28  C   UNL     1      -1.418  -0.509   0.005  0.00  0.00    -0.045 A 
ATOM     29  C   UNL     1      -2.137  -0.586  -1.174  0.00  0.00    +0.006 A 
ATOM     30  C   UNL     1      -3.431  -1.069  -1.165  0.00  0.00    +0.023 A 
ATOM     31  C   UNL     1      -4.010  -1.478   0.030  0.00  0.00    +0.033 A 
ATOM     32  C   UNL     1      -3.284  -1.400   1.212  0.00  0.00    +0.023 A 
ATOM     33  C   UNL     1      -1.989  -0.920   1.195  0.00  0.00    +0.006 A 
BRANCH  28  35
ATOM     34  C   UNL     1       0.857  -0.856  -0.919  0.00  0.00    +0.012 C 
ATOM     35  C   UNL     1      -0.007   0.019  -0.009  0.00  0.00    +0.013 C 
ATOM     36  C   UNL     1      -0.005   1.457  -0.532  0.00  0.00    +0.012 C 
ENDBRANCH  28  35
ENDBRANCH  24  31
ENDBRANCH  23  25
ENDBRANCH  22  23
ENDBRANCH   1  22
TORSDOF 7
