REMARK  Name = ZINC19310141
REMARK  8 active torsions:
REMARK  status: ('A' for Active; 'I' for Inactive)
REMARK    1  A    between atoms: C_1  and  C_2
REMARK    2  A    between atoms: C_2  and  S_3
REMARK    3  A    between atoms: S_3  and  N_6
REMARK    4  A    between atoms: C_9  and  C_12
REMARK    5  A    between atoms: N_14  and  C_15
REMARK    6  A    between atoms: C_15  and  C_16
REMARK    7  A    between atoms: C_16  and  N_17
REMARK    8  A    between atoms: C_21  and  C_22
REMARK                            x       y       z     vdW  Elec       q    Type
REMARK                         _______ _______ _______ _____ _____    ______ ____
ROOT
ATOM      1  C   UNL     1       1.504   0.333   4.498  0.00  0.00    +0.123 C 
ENDROOT
BRANCH   1   4
ATOM      2  C   UNL     1       1.821   0.399   2.083  0.00  0.00    +0.216 C 
ATOM      3  O   UNL     1       2.871  -0.190   2.234  0.00  0.00    -0.276 OA
ATOM      4  N   UNL     1       1.062   0.708   3.152  0.00  0.00    -0.314 N 
ATOM      5  H   UNL     1       0.110   1.242   3.015  0.00  0.00    +0.149 HD
BRANCH   2   9
ATOM      6  N   UNL     1       1.633   2.123  -1.779  0.00  0.00    -0.181 NA
ATOM      7  C   UNL     1       1.922   0.682  -1.735  0.00  0.00    +0.110 C 
ATOM      8  C   UNL     1       2.403   0.319  -0.327  0.00  0.00    +0.030 C 
ATOM      9  C   UNL     1       1.367   0.784   0.699  0.00  0.00    +0.077 C 
ATOM     10  C   UNL     1       1.212   2.305   0.618  0.00  0.00    +0.030 C 
ATOM     11  C   UNL     1       0.718   2.691  -0.780  0.00  0.00    +0.110 C 
BRANCH   6  12
ATOM     12  S   UNL     1       2.326   3.087  -2.933  0.00  0.00    +0.032 S 
ATOM     13  O   UNL     1       2.356   4.383  -2.352  0.00  0.00    -0.158 OA
ATOM     14  O   UNL     1       3.533   2.422  -3.284  0.00  0.00    -0.158 OA
BRANCH  12  16
ATOM     15  C   UNL     1       1.711   3.920  -5.464  0.00  0.00    +0.029 C 
ATOM     16  C   UNL     1       1.166   3.054  -4.327  0.00  0.00    +0.182 C 
ENDBRANCH  12  16
ENDBRANCH   6  12
ENDBRANCH   2   9
ENDBRANCH   1   4
BRANCH   1  17
ATOM     17  C   UNL     1       0.468   0.798   5.523  0.00  0.00    +0.136 C 
BRANCH  17  18
ATOM     18  N   UNL     1       0.910   0.423   6.869  0.00  0.00    -0.227 N 
ATOM     19  C   UNL     1       1.656   1.266   7.562  0.00  0.00    +0.260 C 
ATOM     20  O   UNL     1       1.986   2.347   7.111  0.00  0.00    -0.269 OA
ATOM     21  C   UNL     1       2.069   0.829   8.911  0.00  0.00    +0.080 C 
ATOM     22  C   UNL     1       2.823   1.473   9.836  0.00  0.00    +0.031 C 
ATOM     23  S   UNL     1       1.299  -0.783   8.991  0.00  0.00    -0.026 S 
ATOM     24  C   UNL     1       0.542  -0.772   7.374  0.00  0.00    +0.286 C 
ATOM     25  O   UNL     1      -0.140  -1.635   6.854  0.00  0.00    -0.262 OA
BRANCH  22  26
ATOM     26  C   UNL     1       3.244   0.774  11.058  0.00  0.00    +0.011 A 
ATOM     27  C   UNL     1       3.210  -0.624  11.116  0.00  0.00    +0.011 A 
ATOM     28  C   UNL     1       3.611  -1.273  12.264  0.00  0.00    +0.001 A 
ATOM     29  C   UNL     1       4.036  -0.546  13.363  0.00  0.00    +0.003 A 
ATOM     30  C   UNL     1       4.068   0.836  13.319  0.00  0.00    +0.039 A 
ATOM     31  C   UNL     1       3.675   1.503  12.175  0.00  0.00    +0.131 A 
ATOM     32  F   UNL     1       3.705   2.853  12.132  0.00  0.00    -0.205 F 
ENDBRANCH  22  26
ENDBRANCH  17  18
ENDBRANCH   1  17
TORSDOF 7
