REMARK  Name = ZINC03229846
REMARK  4 active torsions:
REMARK  status: ('A' for Active; 'I' for Inactive)
REMARK    1  A    between atoms: C_1  and  C_2
REMARK    2  A    between atoms: C_5  and  S_8
REMARK    3  A    between atoms: S_8  and  C_11
REMARK    4  A    between atoms: N_16  and  C_17
REMARK                            x       y       z     vdW  Elec       q    Type
REMARK                         _______ _______ _______ _____ _____    ______ ____
ROOT
ATOM      1  C   UNL     1      -0.023   1.790   0.431  0.00  0.00    +0.209 A 
ATOM      2  C   UNL     1      -1.203   2.436   0.268  0.00  0.00    +0.125 A 
ATOM      3  S   UNL     1      -0.631   4.108  -0.005  0.00  0.00    -0.039 S 
ATOM      4  C   UNL     1       1.119   3.764   0.121  0.00  0.00    +0.166 A 
ATOM      5  N   UNL     1       1.109   2.462   0.353  0.00  0.00    -0.204 NA
ATOM      6  N   UNL     1       2.196   4.630   0.005  0.00  0.00    -0.293 N 
ATOM      7 CL   UNL     1      -2.823   1.812   0.312  0.00  0.00    -0.072 Cl
ATOM      8  H   UNL     1       3.101   4.280  -0.009  0.00  0.00    +0.154 HD
ENDROOT
BRANCH   6   9
ATOM      9  C   UNL     1       1.980   6.004  -0.091  0.00  0.00    +0.041 A 
ATOM     10  C   UNL     1       0.878   6.580   0.507  0.00  0.00    +0.024 A 
ATOM     11  C   UNL     1       0.657   7.951   0.421  0.00  0.00    +0.002 A 
ATOM     12  C   UNL     1       1.511   8.762  -0.263  0.00  0.00    +0.010 A 
ATOM     13  C   UNL     1       2.640   8.215  -0.891  0.00  0.00    +0.002 A 
ATOM     14  C   UNL     1       2.879   6.819  -0.805  0.00  0.00    +0.006 A 
ATOM     15  C   UNL     1       4.017   6.297  -1.443  0.00  0.00    +0.030 A 
ATOM     16  C   UNL     1       4.840   7.152  -2.114  0.00  0.00    +0.111 A 
ATOM     17  N   UNL     1       4.594   8.453  -2.179  0.00  0.00    -0.263 NA
ATOM     18  C   UNL     1       3.551   9.008  -1.608  0.00  0.00    +0.119 A 
ENDBRANCH   6   9
BRANCH   1  19
ATOM     19  S   UNL     1       0.000   0.056   0.742  0.00  0.00    +0.044 S 
ATOM     20  O   UNL     1      -1.219  -0.464   0.229  0.00  0.00    -0.163 OA
ATOM     21  O   UNL     1       1.270  -0.417   0.313  0.00  0.00    -0.163 OA
BRANCH  19  26
ATOM     22  C   UNL     1      -0.186  -0.689   6.726  0.00  0.00    +0.044 C 
ATOM     23  C   UNL     1      -0.140  -0.503   5.231  0.00  0.00    -0.050 A 
ATOM     24  C   UNL     1      -1.315  -0.441   4.506  0.00  0.00    +0.005 A 
ATOM     25  C   UNL     1      -1.272  -0.270   3.135  0.00  0.00    +0.028 A 
ATOM     26  C   UNL     1      -0.054  -0.162   2.489  0.00  0.00    +0.095 A 
ATOM     27  C   UNL     1       1.121  -0.230   3.214  0.00  0.00    +0.028 A 
ATOM     28  C   UNL     1       1.078  -0.397   4.586  0.00  0.00    +0.005 A 
ENDBRANCH  19  26
ENDBRANCH   1  19
TORSDOF 3
