REMARK  Name = ZINC25444368
REMARK  7 active torsions:
REMARK  status: ('A' for Active; 'I' for Inactive)
REMARK    1  A    between atoms: C_3  and  S_25
REMARK    2  A    between atoms: C_6  and  C_7
REMARK    3  A    between atoms: C_7  and  N_8
REMARK    4  A    between atoms: C_9  and  C_11
REMARK    5  A    between atoms: C_11  and  N_12
REMARK    6  A    between atoms: C_16  and  C_18
REMARK    7  A    between atoms: S_25  and  N_28
REMARK                            x       y       z     vdW  Elec       q    Type
REMARK                         _______ _______ _______ _____ _____    ______ ____
ROOT
ATOM      1  N   UNL     1      -3.055   4.694  -3.709  0.00  0.00    -0.313 N 
ATOM      2  C   UNL     1      -2.415   5.538  -2.876  0.00  0.00    +0.197 C 
ATOM      3  O   UNL     1      -2.424   6.730  -3.096  0.00  0.00    -0.278 OA
ATOM      4  H   UNL     1      -3.047   3.612  -3.509  0.00  0.00    +0.149 HD
ENDROOT
BRANCH   1   5
ATOM      5  C   UNL     1      -3.763   5.217  -4.880  0.00  0.00    +0.139 C 
BRANCH   5  11
ATOM      6  C   UNL     1      -3.681   3.444  -6.645  0.00  0.00    +0.007 A 
ATOM      7  C   UNL     1      -4.254   2.394  -7.338  0.00  0.00    +0.029 A 
ATOM      8  C   UNL     1      -5.538   1.983  -7.034  0.00  0.00    +0.105 A 
ATOM      9  C   UNL     1      -6.248   2.619  -6.032  0.00  0.00    +0.029 A 
ATOM     10  C   UNL     1      -5.674   3.665  -5.335  0.00  0.00    +0.007 A 
ATOM     11  C   UNL     1      -4.389   4.076  -5.640  0.00  0.00    -0.030 A 
BRANCH   8  12
ATOM     12  S   UNL     1      -6.270   0.649  -7.922  0.00  0.00    +0.056 S 
ATOM     13  O   UNL     1      -5.201  -0.132  -8.437  0.00  0.00    -0.153 OA
ATOM     14  O   UNL     1      -7.275   0.103  -7.078  0.00  0.00    -0.153 OA
BRANCH  12  15
ATOM     15  N   UNL     1      -7.052   1.301  -9.228  0.00  0.00    -0.204 NA
ATOM     16  H   UNL     1      -7.525   0.497  -9.811  0.00  0.00    +0.144 HD
ATOM     17  H   UNL     1      -6.327   1.835  -9.860  0.00  0.00    +0.144 HD
ENDBRANCH  12  15
ENDBRANCH   8  12
ENDBRANCH   5  11
ENDBRANCH   1   5
BRANCH   2  18
ATOM     18  C   UNL     1      -1.687   5.000  -1.671  0.00  0.00    +0.019 C 
BRANCH  18  19
ATOM     19  N   UNL     1      -1.076   6.112  -0.931  0.00  0.00    +0.390 N 
ATOM     20  C   UNL     1      -2.098   6.872  -0.179  0.00  0.00    -0.077 C 
ATOM     21  C   UNL     1      -1.374   7.343   1.107  0.00  0.00    -0.020 C 
ATOM     22  C   UNL     1      -0.465   6.123   1.423  0.00  0.00    -0.013 C 
ATOM     23  C   UNL     1      -0.063   5.620   0.021  0.00  0.00    -0.037 C 
ATOM     24  H   UNL     1      -0.598   6.765  -1.675  0.00  0.00    -0.080 HD
BRANCH  23  25
ATOM     25  C   UNL     1      -0.034   4.114   0.005  0.00  0.00    -0.061 A 
ATOM     26  C   UNL     1      -1.136   3.397   0.433  0.00  0.00    +0.005 A 
ATOM     27  C   UNL     1      -1.110   2.015   0.419  0.00  0.00    +0.038 A 
ATOM     28  C   UNL     1       0.020   1.349  -0.022  0.00  0.00    +0.123 A 
ATOM     29  C   UNL     1       1.126   2.067  -0.445  0.00  0.00    +0.038 A 
ATOM     30  C   UNL     1       1.096   3.449  -0.436  0.00  0.00    +0.005 A 
ATOM     31  F   UNL     1       0.046  -0.002  -0.036  0.00  0.00    -0.205 F 
ENDBRANCH  23  25
ENDBRANCH  18  19
ENDBRANCH   2  18
TORSDOF 7
