REMARK  Name = ZINC09704302
REMARK  8 active torsions:
REMARK  status: ('A' for Active; 'I' for Inactive)
REMARK    1  A    between atoms: C_1  and  C_2
REMARK    2  A    between atoms: C_2  and  O_3
REMARK    3  A    between atoms: O_3  and  C_4
REMARK    4  A    between atoms: C_6  and  C_12
REMARK    5  A    between atoms: C_9  and  O_10
REMARK    6  A    between atoms: C_13  and  C_14
REMARK    7  A    between atoms: C_13  and  S_16
REMARK    8  A    between atoms: S_16  and  C_19
REMARK                            x       y       z     vdW  Elec       q    Type
REMARK                         _______ _______ _______ _____ _____    ______ ____
ROOT
ATOM      1  C   UNL     1       1.142   2.118   0.003  0.00  0.00    +0.046 C 
ATOM      2  C   UNL     1       1.031   3.268   0.701  0.00  0.00    +0.170 C 
ENDROOT
BRANCH   1   5
ATOM      3  C   UNL     1       4.848   1.572  -0.217  0.00  0.00    +0.163 A 
ATOM      4  C   UNL     1       3.624   2.205  -0.116  0.00  0.00    +0.057 A 
ATOM      5  C   UNL     1       2.447   1.450  -0.111  0.00  0.00    -0.018 A 
ATOM      6  C   UNL     1       2.514   0.056  -0.220  0.00  0.00    +0.027 A 
ATOM      7  C   UNL     1       3.739  -0.568  -0.326  0.00  0.00    +0.063 A 
ATOM      8  C   UNL     1       4.907   0.183  -0.325  0.00  0.00    +0.173 A 
ATOM      9 BR   UNL     1       3.828  -2.451  -0.472  0.00  0.00    -0.046 Br
BRANCH   8  10
ATOM     10  O   UNL     1       6.111  -0.437  -0.429  0.00  0.00    -0.503 OA
ATOM     11  H   UNL     1       6.418  -0.550  -1.339  0.00  0.00    +0.292 HD
ENDBRANCH   8  10
BRANCH   3  12
ATOM     12  O   UNL     1       5.994   2.303  -0.217  0.00  0.00    -0.489 OA
BRANCH  12  14
ATOM     13  C   UNL     1       7.245   4.369  -0.122  0.00  0.00    +0.048 C 
ATOM     14  C   UNL     1       5.859   3.721  -0.103  0.00  0.00    +0.226 C 
ENDBRANCH  12  14
ENDBRANCH   3  12
ENDBRANCH   1   5
BRANCH   2  15
ATOM     15  S   UNL     1      -0.486   4.164   0.689  0.00  0.00    +0.035 S 
ATOM     16  O   UNL     1      -0.156   5.518   0.412  0.00  0.00    -0.164 OA
ATOM     17  O   UNL     1      -1.390   3.420  -0.117  0.00  0.00    -0.164 OA
BRANCH  15  18
ATOM     18  C   UNL     1      -1.127   4.126   2.329  0.00  0.00    +0.094 A 
ATOM     19  C   UNL     1      -1.976   3.106   2.717  0.00  0.00    +0.028 A 
ATOM     20  C   UNL     1      -2.475   3.074   4.005  0.00  0.00    +0.017 A 
ATOM     21  C   UNL     1      -2.133   4.068   4.904  0.00  0.00    +0.018 A 
ATOM     22  C   UNL     1      -1.287   5.091   4.515  0.00  0.00    +0.017 A 
ATOM     23  C   UNL     1      -0.785   5.120   3.228  0.00  0.00    +0.028 A 
ATOM     24 BR   UNL     1      -2.821   4.028   6.665  0.00  0.00    -0.050 Br
ENDBRANCH  15  18
ENDBRANCH   2  15
BRANCH   2  25
ATOM     25  C   UNL     1       2.145   3.756   1.458  0.00  0.00    +0.119 C 
ATOM     26  N   UNL     1       3.028   4.143   2.058  0.00  0.00    -0.189 NA
ENDBRANCH   2  25
TORSDOF 7
