REMARK  Name = ZINC04369738
REMARK  8 active torsions:
REMARK  status: ('A' for Active; 'I' for Inactive)
REMARK    1  A    between atoms: C_1  and  C_2
REMARK    2  A    between atoms: C_14  and  O_33
REMARK    3  A    between atoms: C_18  and  C_32
REMARK    4  A    between atoms: C_21  and  O_31
REMARK    5  A    between atoms: C_24  and  C_30
REMARK    6  A    between atoms: C_25  and  C_26
REMARK    7  A    between atoms: C_25  and  O_29
REMARK    8  A    between atoms: C_26  and  C_28
REMARK                            x       y       z     vdW  Elec       q    Type
REMARK                         _______ _______ _______ _____ _____    ______ ____
ROOT
ATOM      1  C   UNL     1       7.718   7.029   5.032  0.00  0.00    +0.011 C 
ATOM      2  C   UNL     1       7.293   6.945   3.566  0.00  0.00    +0.026 C 
ATOM      3  C   UNL     1       5.768   6.661   3.469  0.00  0.00    +0.011 C 
ATOM      4  C   UNL     1       5.707   5.182   3.038  0.00  0.00    +0.002 C 
ATOM      5  C   UNL     1       4.410   4.718   2.441  0.00  0.00    -0.001 C 
ATOM      6  C   UNL     1       3.489   5.818   1.928  0.00  0.00    +0.004 C 
ATOM      7  C   UNL     1       2.134   5.172   1.640  0.00  0.00    +0.004 C 
ATOM      8  C   UNL     1       2.210   3.982   0.698  0.00  0.00    -0.002 C 
ATOM      9  C   UNL     1       0.837   3.341   0.629  0.00  0.00    +0.035 C 
ATOM     10  C   UNL     1       0.889   1.818   0.575  0.00  0.00    +0.115 C 
ATOM     11  C   UNL     1       1.769   1.369   1.756  0.00  0.00    +0.032 C 
ATOM     12  C   UNL     1       3.214   1.694   1.388  0.00  0.00    +0.010 C 
ATOM     13  C   UNL     1       3.393   3.081   0.830  0.00  0.00    -0.024 C 
ATOM     14  C   UNL     1       4.664   3.759   1.281  0.00  0.00    +0.027 C 
ATOM     15  C   UNL     1       5.853   2.869   1.575  0.00  0.00    +0.119 C 
ATOM     16  C   UNL     1       7.145   3.719   1.548  0.00  0.00    +0.041 C 
ATOM     17  C   UNL     1       6.881   5.111   2.038  0.00  0.00    +0.009 C 
ATOM     18  C   UNL     1       8.004   5.755   2.872  0.00  0.00    +0.131 C 
ATOM     19  C   UNL     1       6.668   6.052   0.847  0.00  0.00    +0.015 C 
ATOM     20  C   UNL     1       3.727   2.798  -0.642  0.00  0.00    +0.012 C 
ENDROOT
BRANCH  18  21
ATOM     21  C   UNL     1       9.101   6.241   1.969  0.00  0.00    +0.162 C 
ATOM     22  O   UNL     1       8.831   6.691   0.881  0.00  0.00    -0.295 OA
ATOM     23  C   UNL     1      10.537   6.168   2.420  0.00  0.00    +0.089 C 
ENDBRANCH  18  21
BRANCH  18  24
ATOM     24  O   UNL     1       8.497   4.829   3.834  0.00  0.00    -0.380 OA
ATOM     25  H   UNL     1       9.207   5.179   4.390  0.00  0.00    +0.211 HD
ENDBRANCH  18  24
BRANCH  15  26
ATOM     26  O   UNL     1       5.730   2.279   2.877  0.00  0.00    -0.391 OA
ATOM     27  H   UNL     1       6.465   1.699   3.117  0.00  0.00    +0.210 HD
ENDBRANCH  15  26
BRANCH  10  28
ATOM     28  O   UNL     1      -0.430   1.281   0.717  0.00  0.00    -0.392 OA
ATOM     29  H   UNL     1      -0.464   0.315   0.714  0.00  0.00    +0.210 HD
ENDBRANCH  10  28
TORSDOF 4
