REMARK  Name = ZINC16571514
REMARK  10 active torsions:
REMARK  status: ('A' for Active; 'I' for Inactive)
REMARK    1  A    between atoms: C_1  and  C_2
REMARK    2  A    between atoms: C_2  and  C_3
REMARK    3  A    between atoms: C_3  and  C_5
REMARK    4  A    between atoms: C_3  and  C_6
REMARK    5  A    between atoms: C_6  and  C_8
REMARK    6  A    between atoms: C_6  and  N_23
REMARK    7  A    between atoms: C_14  and  C_16
REMARK    8  A    between atoms: C_24  and  C_26
REMARK    9  A    between atoms: C_26  and  C_27
REMARK   10  A    between atoms: C_27  and  C_28
REMARK                            x       y       z     vdW  Elec       q    Type
REMARK                         _______ _______ _______ _____ _____    ______ ____
ROOT
ATOM      1  C   UNL     1       8.443   2.575   0.936  0.00  0.00    +0.162 C 
ENDROOT
BRANCH   1   2
ATOM      2  C   UNL     1       8.804   4.005   1.243  0.00  0.00    +0.239 C 
ATOM      3  O   UNL     1       7.930   4.835   1.379  0.00  0.00    -0.273 OA
ATOM      4  N   UNL     1      10.098   4.362   1.368  0.00  0.00    -0.262 N 
ATOM      5  C   UNL     1      10.428   5.655   1.754  0.00  0.00    +0.188 A 
ATOM      6  N   UNL     1       9.643   6.685   2.042  0.00  0.00    -0.125 NA
ATOM      7  N   UNL     1      10.112   7.805   2.385  0.00  0.00    -0.140 NA
ATOM      8  C   UNL     1      11.419   8.022   2.469  0.00  0.00    +0.134 A 
ATOM      9  S   UNL     1      12.034   6.407   2.000  0.00  0.00    -0.030 S 
ATOM     10  H   UNL     1      10.798   3.716   1.187  0.00  0.00    +0.157 HD
BRANCH   8  11
ATOM     11  C   UNL     1      12.156   9.248   2.842  0.00  0.00    +0.009 A 
ATOM     12  C   UNL     1      13.551   9.246   2.868  0.00  0.00    +0.012 A 
ATOM     13  C   UNL     1      14.234  10.394   3.211  0.00  0.00    +0.016 A 
ATOM     14  C   UNL     1      13.537  11.544   3.541  0.00  0.00    +0.018 A 
ATOM     15  C   UNL     1      12.153  11.551   3.522  0.00  0.00    +0.016 A 
ATOM     16  C   UNL     1      11.459  10.410   3.175  0.00  0.00    +0.012 A 
ATOM     17 BR   UNL     1      14.480  13.112   4.018  0.00  0.00    -0.050 Br
ENDBRANCH   8  11
ENDBRANCH   1   2
BRANCH   1  18
ATOM     18  N   UNL     1       6.986   2.447   0.847  0.00  0.00    -0.304 N 
ATOM     19  C   UNL     1       6.438   1.546   0.008  0.00  0.00    +0.214 C 
ATOM     20  O   UNL     1       7.146   0.904  -0.739  0.00  0.00    -0.276 OA
ATOM     21  H   UNL     1       6.415   3.011   1.393  0.00  0.00    +0.149 HD
BRANCH  19  22
ATOM     22  C   UNL     1       4.946   1.336  -0.003  0.00  0.00    +0.096 C 
BRANCH  22  23
ATOM     23  C   UNL     1       4.589   0.268  -1.038  0.00  0.00    +0.013 C 
BRANCH  23  24
ATOM     24  C   UNL     1       3.074   0.054  -1.049  0.00  0.00    -0.011 C 
ATOM     25  C   UNL     1       2.353   1.268  -1.689  0.00  0.00    +0.003 C 
ATOM     26  C   UNL     1       1.010   0.693  -2.182  0.00  0.00    +0.000 C 
ATOM     27  C   UNL     1       1.224  -0.819  -2.378  0.00  0.00    +0.000 C 
ATOM     28  C   UNL     1       2.690  -1.109  -1.997  0.00  0.00    +0.003 C 
ENDBRANCH  23  24
ENDBRANCH  22  23
ENDBRANCH  19  22
ENDBRANCH   1  18
BRANCH   1  29
ATOM     29  C   UNL     1       8.967   1.666   2.050  0.00  0.00    +0.015 C 
ATOM     30  C   UNL     1       8.758   0.203   1.655  0.00  0.00    +0.010 C 
BRANCH  29  32
ATOM     31  C   UNL     1       8.566   3.361   3.841  0.00  0.00    +0.004 C 
ATOM     32  C   UNL     1       8.209   1.958   3.346  0.00  0.00    +0.002 C 
ENDBRANCH  29  32
ENDBRANCH   1  29
TORSDOF 8
