REMARK  Name = ZINC03019362
REMARK  4 active torsions:
REMARK  status: ('A' for Active; 'I' for Inactive)
REMARK    1  A    between atoms: N_15  and  C_17
REMARK    2  A    between atoms: C_20  and  C_24
REMARK    3  A    between atoms: C_22  and  N_23
REMARK    4  A    between atoms: N_26  and  C_27
REMARK                            x       y       z     vdW  Elec       q    Type
REMARK                         _______ _______ _______ _____ _____    ______ ____
ROOT
ATOM      1  C   UNL     1       3.447   0.450  -3.227  0.00  0.00    +0.051 A 
ATOM      2  C   UNL     1       3.819   0.897  -4.490  0.00  0.00    +0.026 A 
ATOM      3  C   UNL     1       3.098   0.514  -5.600  0.00  0.00    +0.015 A 
ATOM      4  C   UNL     1       1.990  -0.326  -5.459  0.00  0.00    +0.039 A 
ATOM      5  C   UNL     1       1.614  -0.777  -4.191  0.00  0.00    +0.037 A 
ATOM      6  C   UNL     1       2.343  -0.395  -3.080  0.00  0.00    +0.047 A 
ENDROOT
BRANCH   1  19
ATOM      7  C   UNL     1       7.861   0.804  -5.021  0.00  0.00    +0.007 A 
ATOM      8  C   UNL     1       7.599   0.470  -3.687  0.00  0.00    +0.022 A 
ATOM      9  C   UNL     1       6.834   1.281  -2.909  0.00  0.00    +0.027 A 
ATOM     10  N   UNL     1       6.361   2.452  -3.396  0.00  0.00    -0.312 N 
ATOM     11  C   UNL     1       6.516   2.749  -4.710  0.00  0.00    +0.251 A 
ATOM     12  O   UNL     1       5.961   3.730  -5.177  0.00  0.00    -0.268 OA
ATOM     13  C   UNL     1       7.309   1.940  -5.536  0.00  0.00    +0.070 A 
ATOM     14  C   UNL     1       5.726   3.468  -2.557  0.00  0.00    +0.130 C 
ATOM     15  C   UNL     1       5.204   2.897  -1.251  0.00  0.00    +0.027 C 
ATOM     16  C   UNL     1       6.277   2.022  -0.601  0.00  0.00    +0.018 C 
ATOM     17  C   UNL     1       6.528   0.813  -1.506  0.00  0.00    +0.053 C 
ATOM     18  C   UNL     1       5.238  -0.024  -1.563  0.00  0.00    +0.114 C 
ATOM     19  N   UNL     1       4.178   0.840  -2.107  0.00  0.00    -0.328 N 
ATOM     20  C   UNL     1       3.918   2.107  -1.448  0.00  0.00    +0.110 C 
ENDBRANCH   1  19
BRANCH   4  21
ATOM     21  C   UNL     1       1.219  -0.735  -6.648  0.00  0.00    +0.248 C 
ATOM     22  O   UNL     1       0.255  -1.466  -6.525  0.00  0.00    -0.270 OA
ATOM     23  N   UNL     1       1.582  -0.299  -7.870  0.00  0.00    -0.282 N 
ATOM     24  H   UNL     1       2.393   0.222  -7.978  0.00  0.00    +0.155 HD
BRANCH  23  25
ATOM     25  C   UNL     1       0.789  -0.598  -8.983  0.00  0.00    +0.034 A 
ATOM     26  C   UNL     1       1.381  -0.804 -10.223  0.00  0.00    +0.025 A 
ATOM     27  C   UNL     1       0.596  -1.100 -11.321  0.00  0.00    +0.022 A 
ATOM     28  C   UNL     1      -0.778  -1.191 -11.186  0.00  0.00    +0.041 A 
ATOM     29  C   UNL     1      -1.370  -0.986  -9.952  0.00  0.00    +0.022 A 
ATOM     30  C   UNL     1      -0.590  -0.696  -8.850  0.00  0.00    +0.025 A 
ATOM     31 CL   UNL     1      -1.762  -1.562 -12.567  0.00  0.00    -0.084 Cl
ENDBRANCH  23  25
ENDBRANCH   4  21
BRANCH   6  32
ATOM     32  N   UNL     1       1.973  -0.850  -1.809  0.00  0.00    -0.357 N 
ATOM     33  H   UNL     1       2.435  -0.520  -1.022  0.00  0.00    +0.142 HD
ATOM     34  H   UNL     1       1.255  -1.495  -1.714  0.00  0.00    +0.142 HD
ENDBRANCH   6  32
TORSDOF 4
