REMARK  Name = ZINC27688287
REMARK  9 active torsions:
REMARK  status: ('A' for Active; 'I' for Inactive)
REMARK    1  A    between atoms: C_1  and  C_2
REMARK    2  A    between atoms: C_2  and  C_4
REMARK    3  A    between atoms: C_2  and  N_19
REMARK    4  A    between atoms: C_4  and  C_5
REMARK    5  A    between atoms: C_5  and  C_6
REMARK    6  A    between atoms: N_9  and  C_16
REMARK    7  A    between atoms: C_16  and  C_17
REMARK    8  A    between atoms: C_20  and  C_22
REMARK    9  A    between atoms: C_22  and  C_27
REMARK                            x       y       z     vdW  Elec       q    Type
REMARK                         _______ _______ _______ _____ _____    ______ ____
ROOT
ATOM      1  C   UNL     1      -1.201   1.558   3.764  0.00  0.00    +0.028 C 
ATOM      2  C   UNL     1      -0.784   0.783   2.512  0.00  0.00    +0.070 C 
ENDROOT
BRANCH   2   3
ATOM      3  N   UNL     1      -0.904  -0.655   2.765  0.00  0.00    -0.312 N 
ATOM      4  C   UNL     1       0.107  -1.321   3.357  0.00  0.00    +0.224 C 
ATOM      5  O   UNL     1       1.077  -0.716   3.762  0.00  0.00    -0.275 OA
ATOM      6  H   UNL     1      -1.819  -1.191   2.473  0.00  0.00    +0.149 HD
BRANCH   4   7
ATOM      7  C   UNL     1       0.032  -2.818   3.516  0.00  0.00    +0.072 C 
ATOM      8  C   UNL     1      -1.251  -3.204   4.272  0.00  0.00    +0.021 C 
ATOM      9  C   UNL     1      -0.803  -3.926   5.560  0.00  0.00    +0.001 C 
ATOM     10  C   UNL     1       0.636  -3.409   5.804  0.00  0.00    +0.001 C 
ATOM     11  C   UNL     1       1.215  -3.319   4.370  0.00  0.00    +0.021 C 
BRANCH   7  12
ATOM     12  C   UNL     1       0.055  -3.482   2.163  0.00  0.00    -0.032 A 
ATOM     13  C   UNL     1       0.251  -2.724   1.024  0.00  0.00    +0.004 A 
ATOM     14  C   UNL     1       0.278  -3.333  -0.216  0.00  0.00    +0.000 A 
ATOM     15  C   UNL     1       0.095  -4.700  -0.319  0.00  0.00    +0.000 A 
ATOM     16  C   UNL     1      -0.107  -5.457   0.820  0.00  0.00    +0.000 A 
ATOM     17  C   UNL     1      -0.127  -4.848   2.061  0.00  0.00    +0.004 A 
ENDBRANCH   7  12
ENDBRANCH   4   7
ENDBRANCH   2   3
BRANCH   2  18
ATOM     18  C   UNL     1      -1.694   1.173   1.345  0.00  0.00    +0.022 C 
BRANCH  18  19
ATOM     19  C   UNL     1      -1.200   0.494   0.065  0.00  0.00    +0.011 C 
BRANCH  19  20
ATOM     20  C   UNL     1      -2.109   0.883  -1.102  0.00  0.00    +0.038 C 
ATOM     21  C   UNL     1      -1.635   0.214  -2.413  0.00  0.00    +0.113 C 
ATOM     22  N   UNL     1      -0.747   1.243  -2.997  0.00  0.00    -0.325 N 
ATOM     23  C   UNL     1      -1.178   2.494  -2.540  0.00  0.00    +0.033 A 
ATOM     24  C   UNL     1      -1.981   2.361  -1.412  0.00  0.00    -0.022 A 
ATOM     25  C   UNL     1      -2.502   3.475  -0.789  0.00  0.00    +0.006 A 
ATOM     26  C   UNL     1      -2.231   4.738  -1.286  0.00  0.00    +0.000 A 
ATOM     27  C   UNL     1      -1.438   4.880  -2.410  0.00  0.00    +0.002 A 
ATOM     28  C   UNL     1      -0.913   3.769  -3.036  0.00  0.00    +0.023 A 
BRANCH  22  29
ATOM     29  C   UNL     1      -0.767   1.183  -4.465  0.00  0.00    +0.131 C 
BRANCH  29  30
ATOM     30  C   UNL     1      -0.398  -0.206  -4.916  0.00  0.00    -0.016 C 
ATOM     31  C   UNL     1      -1.205  -0.875  -5.702  0.00  0.00    +0.005 C 
ENDBRANCH  29  30
ENDBRANCH  22  29
ENDBRANCH  19  20
ENDBRANCH  18  19
ENDBRANCH   2  18
TORSDOF 8
