REMARK  Name = ZINC02251944
REMARK  6 active torsions:
REMARK  status: ('A' for Active; 'I' for Inactive)
REMARK    1  A    between atoms: C_1  and  O_2
REMARK    2  A    between atoms: O_2  and  C_3
REMARK    3  A    between atoms: C_6  and  C_9
REMARK    4  A    between atoms: C_20  and  C_22
REMARK    5  A    between atoms: C_34  and  S_36
REMARK    6  A    between atoms: S_36  and  C_37
REMARK                            x       y       z     vdW  Elec       q    Type
REMARK                         _______ _______ _______ _____ _____    ______ ____
ROOT
ATOM      1  C   UNL     1       2.733  -1.730  -4.478  0.00  0.00    +0.172 C 
ATOM      2  C   UNL     1       3.522  -2.908  -3.964  0.00  0.00    +0.025 C 
ATOM      3  C   UNL     1       3.047  -4.154  -3.996  0.00  0.00    +0.050 C 
ATOM      4  C   UNL     1       3.899  -5.249  -3.475  0.00  0.00    +0.039 A 
ATOM      5  C   UNL     1       3.370  -6.494  -3.159  0.00  0.00    +0.033 A 
ATOM      6  C   UNL     1       4.205  -7.486  -2.676  0.00  0.00    +0.042 A 
ATOM      7  C   UNL     1       5.558  -7.241  -2.510  0.00  0.00    +0.023 A 
ATOM      8  C   UNL     1       6.091  -6.003  -2.822  0.00  0.00    +0.048 A 
ATOM      9  C   UNL     1       5.268  -5.003  -3.305  0.00  0.00    +0.131 A 
ATOM     10  O   UNL     1       5.752  -3.774  -3.619  0.00  0.00    -0.479 OA
ATOM     11  C   UNL     1       4.895  -2.658  -3.380  0.00  0.00    +0.234 C 
ATOM     12 CL   UNL     1       3.553  -9.045  -2.278  0.00  0.00    -0.084 Cl
ATOM     13  N   UNL     1       1.781  -4.456  -4.512  0.00  0.00    -0.283 N 
ATOM     14  C   UNL     1       1.145  -3.473  -5.254  0.00  0.00    +0.220 A 
ATOM     15  N   UNL     1       1.586  -2.194  -5.250  0.00  0.00    -0.220 N 
ATOM     16  N   UNL     1       0.736  -1.484  -6.097  0.00  0.00    -0.141 NA
ATOM     17  C   UNL     1      -0.153  -2.342  -6.549  0.00  0.00    +0.210 A 
ATOM     18  N   UNL     1       0.102  -3.545  -6.034  0.00  0.00    -0.187 NA
ATOM     19  H   UNL     1       1.366  -5.319  -4.357  0.00  0.00    +0.155 HD
ENDROOT
BRANCH  11  20
ATOM     20  C   UNL     1       4.770  -2.435  -1.895  0.00  0.00    -0.003 A 
ATOM     21  C   UNL     1       4.518  -3.504  -1.055  0.00  0.00    +0.010 A 
ATOM     22  C   UNL     1       4.404  -3.301   0.307  0.00  0.00    +0.039 A 
ATOM     23  C   UNL     1       4.543  -2.026   0.831  0.00  0.00    +0.123 A 
ATOM     24  C   UNL     1       4.795  -0.957  -0.012  0.00  0.00    +0.039 A 
ATOM     25  C   UNL     1       4.914  -1.163  -1.373  0.00  0.00    +0.010 A 
ATOM     26  F   UNL     1       4.431  -1.827   2.162  0.00  0.00    -0.205 F 
ENDBRANCH  11  20
BRANCH   1  30
ATOM     27  C   UNL     1       1.365   0.610  -1.175  0.00  0.00    +0.120 A 
ATOM     28  C   UNL     1       2.199   1.176  -2.129  0.00  0.00    +0.046 A 
ATOM     29  C   UNL     1       2.640   0.417  -3.196  0.00  0.00    +0.009 A 
ATOM     30  C   UNL     1       2.251  -0.904  -3.313  0.00  0.00    -0.019 A 
ATOM     31  C   UNL     1       1.420  -1.470  -2.364  0.00  0.00    +0.009 A 
ATOM     32  C   UNL     1       0.981  -0.718  -1.292  0.00  0.00    +0.046 A 
BRANCH  27  34
ATOM     33  C   UNL     1       1.366   2.714  -0.068  0.00  0.00    +0.277 C 
ATOM     34  O   UNL     1       0.930   1.355  -0.124  0.00  0.00    -0.495 OA
ENDBRANCH  27  34
ENDBRANCH   1  30
BRANCH  17  35
ATOM     35  S   UNL     1      -1.467  -1.963  -7.660  0.00  0.00    -0.088 S 
ATOM     36  C   UNL     1      -2.319  -3.549  -7.888  0.00  0.00    +0.093 C 
ENDBRANCH  17  35
TORSDOF 4
