REMARK  Name = ZINC64131333
REMARK  7 active torsions:
REMARK  status: ('A' for Active; 'I' for Inactive)
REMARK    1  A    between atoms: C_7  and  C_10
REMARK    2  A    between atoms: C_10  and  C_12
REMARK    3  A    between atoms: C_10  and  C_28
REMARK    4  A    between atoms: C_12  and  N_13
REMARK    5  A    between atoms: C_14  and  C_16
REMARK    6  A    between atoms: C_16  and  C_17
REMARK    7  A    between atoms: C_17  and  N_18
REMARK                            x       y       z     vdW  Elec       q    Type
REMARK                         _______ _______ _______ _____ _____    ______ ____
ROOT
ATOM      1  C   UNL     1       0.947  -4.042   1.218  0.00  0.00    +0.117 C 
ENDROOT
BRANCH   1   2
ATOM      2  N   UNL     1      -0.044  -5.118   1.282  0.00  0.00    -0.314 N 
ATOM      3  C   UNL     1      -0.013  -6.003   2.298  0.00  0.00    +0.215 C 
ATOM      4  O   UNL     1       0.836  -5.909   3.159  0.00  0.00    -0.276 OA
ATOM      5  H   UNL     1      -0.723  -5.194   0.593  0.00  0.00    +0.149 HD
BRANCH   3   6
ATOM      6  C   UNL     1      -1.034  -7.111   2.364  0.00  0.00    +0.117 C 
BRANCH   6   7
ATOM      7  C   UNL     1      -0.777  -7.967   3.606  0.00  0.00    +0.138 C 
BRANCH   7   8
ATOM      8  N   UNL     1      -1.769  -9.043   3.670  0.00  0.00    -0.274 N 
ATOM      9  C   UNL     1      -3.011  -8.983   4.301  0.00  0.00    +0.090 A 
ATOM     10  C   UNL     1      -3.671  -7.992   5.011  0.00  0.00    +0.030 A 
ATOM     11  C   UNL     1      -4.927  -8.239   5.529  0.00  0.00    +0.002 A 
ATOM     12  C   UNL     1      -5.527  -9.473   5.341  0.00  0.00    +0.004 A 
ATOM     13  C   UNL     1      -4.876 -10.465   4.635  0.00  0.00    +0.048 A 
ATOM     14  C   UNL     1      -3.615 -10.226   4.111  0.00  0.00    +0.157 A 
ATOM     15  O   UNL     1      -2.753 -10.987   3.393  0.00  0.00    -0.407 OA
ATOM     16  C   UNL     1      -1.650 -10.271   3.126  0.00  0.00    +0.421 A 
ATOM     17  O   UNL     1      -0.690 -10.668   2.494  0.00  0.00    -0.223 OA
ENDBRANCH   7   8
ENDBRANCH   6   7
ENDBRANCH   3   6
ENDBRANCH   1   2
BRANCH   1  18
ATOM     18  C   UNL     1       0.691  -3.186  -0.024  0.00  0.00    +0.071 C 
BRANCH  18  25
ATOM     19  C   UNL     1      -0.016   1.348   0.009  0.00  0.00    +0.001 A 
ATOM     20  C   UNL     1       1.166   2.101   0.002  0.00  0.00    +0.002 A 
ATOM     21  C   UNL     1       2.391   1.535  -0.013  0.00  0.00    +0.026 A 
ATOM     22  C   UNL     1       2.529   0.120  -0.022  0.00  0.00    +0.043 A 
ATOM     23  N   UNL     1       3.587  -0.654  -0.037  0.00  0.00    -0.380 N 
ATOM     24  C   UNL     1       3.143  -2.053  -0.041  0.00  0.00    +0.145 C 
ATOM     25  C   UNL     1       1.631  -2.008  -0.025  0.00  0.00    -0.032 C 
ATOM     26  C   UNL     1       1.295  -0.698  -0.014  0.00  0.00    -0.000 A 
ATOM     27  C   UNL     1       0.002  -0.004   0.002  0.00  0.00    +0.010 A 
ATOM     28  H   UNL     1       4.509  -0.353  -0.045  0.00  0.00    +0.160 HD
ENDBRANCH  18  25
BRANCH  18  29
ATOM     29  C   UNL     1       0.920  -4.014  -1.262  0.00  0.00    -0.002 A 
ATOM     30  C   UNL     1       0.053  -4.316  -2.259  0.00  0.00    +0.012 A 
ATOM     31  C   UNL     1       0.488  -5.102  -3.310  0.00  0.00    +0.008 A 
ATOM     32  C   UNL     1       1.769  -5.546  -3.312  0.00  0.00    +0.045 A 
ATOM     33  S   UNL     1       2.406  -4.845  -1.799  0.00  0.00    -0.101 S 
ENDBRANCH  18  29
ENDBRANCH   1  18
TORSDOF 7
