REMARK  Name = ZINC20034166
REMARK  4 active torsions:
REMARK  status: ('A' for Active; 'I' for Inactive)
REMARK    1  A    between atoms: C_1  and  C_2
REMARK    2  A    between atoms: C_9  and  C_13
REMARK    3  A    between atoms: C_9  and  O_17
REMARK    4  A    between atoms: C_18  and  C_20
REMARK                            x       y       z     vdW  Elec       q    Type
REMARK                         _______ _______ _______ _____ _____    ______ ____
ROOT
ATOM      1  C   UNL     1       3.049  10.810   1.592  0.00  0.00    +0.007 C 
ATOM      2  C   UNL     1       2.532   9.770   0.596  0.00  0.00    -0.013 C 
ATOM      3  C   UNL     1       1.079   9.436   0.929  0.00  0.00    +0.009 C 
ATOM      4  C   UNL     1       0.505   8.469  -0.120  0.00  0.00    +0.053 C 
ATOM      5  C   UNL     1       1.479   7.314  -0.224  0.00  0.00    +0.045 C 
ATOM      6  N   UNL     1       1.254   6.078  -0.099  0.00  0.00    -0.183 NA
ATOM      7  N   UNL     1       2.399   5.281  -0.096  0.00  0.00    -0.148 N 
ATOM      8  C   UNL     1       3.582   6.153  -0.220  0.00  0.00    +0.259 C 
ATOM      9  C   UNL     1       2.969   7.546  -0.423  0.00  0.00    +0.096 C 
ATOM     10  C   UNL     1       3.432   8.526   0.657  0.00  0.00    +0.017 C 
ATOM     11  C   UNL     1       2.421   3.937  -0.001  0.00  0.00    +0.269 C 
ATOM     12  O   UNL     1       3.482   3.351   0.091  0.00  0.00    -0.268 OA
ENDROOT
BRANCH  11  13
ATOM     13  C   UNL     1       1.154   3.175  -0.008  0.00  0.00    +0.040 A 
ATOM     14  C   UNL     1       1.175   1.779  -0.024  0.00  0.00    +0.013 A 
ATOM     15  C   UNL     1      -0.010   1.074  -0.032  0.00  0.00    +0.002 A 
ATOM     16  C   UNL     1      -1.219   1.746  -0.029  0.00  0.00    +0.015 A 
ATOM     17  C   UNL     1      -1.248   3.130  -0.007  0.00  0.00    +0.019 A 
ATOM     18  C   UNL     1      -0.069   3.848   0.000  0.00  0.00    +0.028 A 
ATOM     19 BR   UNL     1      -2.906   4.039   0.004  0.00  0.00    -0.050 Br
ENDBRANCH  11  13
BRANCH   8  20
ATOM     20  C   UNL     1       4.425   5.751  -1.432  0.00  0.00    +0.438 C 
ATOM     21  F   UNL     1       3.644   5.834  -2.590  0.00  0.00    -0.166 F 
ATOM     22  F   UNL     1       5.520   6.614  -1.545  0.00  0.00    -0.166 F 
ATOM     23  F   UNL     1       4.880   4.439  -1.268  0.00  0.00    -0.166 F 
ENDBRANCH   8  20
BRANCH   8  24
ATOM     24  O   UNL     1       4.364   6.116   0.976  0.00  0.00    -0.363 OA
ATOM     25  H   UNL     1       5.285   6.713   1.049  0.00  0.00    +0.212 HD
ENDBRANCH   8  24
TORSDOF 3
