REMARK  Name = ZINC08841379
REMARK  9 active torsions:
REMARK  status: ('A' for Active; 'I' for Inactive)
REMARK    1  A    between atoms: C_1  and  C_2
REMARK    2  A    between atoms: C_5  and  S_8
REMARK    3  A    between atoms: S_8  and  N_11
REMARK    4  A    between atoms: C_15  and  C_17
REMARK    5  A    between atoms: C_17  and  N_19
REMARK    6  A    between atoms: N_21  and  C_31
REMARK    7  A    between atoms: C_25  and  S_29
REMARK    8  A    between atoms: S_29  and  C_30
REMARK    9  A    between atoms: C_31  and  C_32
REMARK                            x       y       z     vdW  Elec       q    Type
REMARK                         _______ _______ _______ _____ _____    ______ ____
ROOT
ATOM      1  C   UNL     1       5.791   2.335  -0.042  0.00  0.00    +0.257 C 
ATOM      2  O   UNL     1       5.479   1.160  -0.045  0.00  0.00    -0.272 OA
ENDROOT
BRANCH   1   3
ATOM      3  N   UNL     1       4.850   3.273  -0.028  0.00  0.00    -0.155 NA
ATOM      4  C   UNL     1       3.564   2.925  -0.017  0.00  0.00    +0.167 A 
ATOM      5  N   UNL     1       2.473   3.735  -0.002  0.00  0.00    -0.317 N 
ATOM      6  C   UNL     1       1.202   3.186   0.008  0.00  0.00    +0.058 A 
ATOM      7  C   UNL     1      -0.033   3.854   0.023  0.00  0.00    +0.028 A 
ATOM      8  C   UNL     1      -1.214   3.151   0.030  0.00  0.00    +0.017 A 
ATOM      9  C   UNL     1      -1.223   1.760   0.017  0.00  0.00    +0.009 A 
ATOM     10  C   UNL     1      -0.013   1.076   0.008  0.00  0.00    +0.032 A 
ATOM     11  C   UNL     1       1.165   1.784   0.001  0.00  0.00    +0.040 A 
ATOM     12  S   UNL     1       2.882   1.331  -0.018  0.00  0.00    -0.052 S 
BRANCH   9  13
ATOM     13  S   UNL     1      -2.748   0.877   0.019  0.00  0.00    -0.129 S 
ATOM     14  C   UNL     1      -4.010   2.180   0.032  0.00  0.00    +0.090 C 
ENDBRANCH   9  13
BRANCH   5  15
ATOM     15  C   UNL     1       2.642   5.190   0.005  0.00  0.00    +0.151 C 
BRANCH  15  16
ATOM     16  C   UNL     1       2.714   5.681   1.428  0.00  0.00    -0.013 C 
ATOM     17  C   UNL     1       3.736   6.398   1.822  0.00  0.00    +0.005 C 
ENDBRANCH  15  16
ENDBRANCH   5  15
ENDBRANCH   1   3
BRANCH   1  22
ATOM     18  N   UNL     1       8.089   1.524  -0.052  0.00  0.00    -0.165 NA
ATOM     19  C   UNL     1       8.912   1.527   1.171  0.00  0.00    +0.110 C 
ATOM     20  C   UNL     1       9.003   3.017   1.585  0.00  0.00    +0.019 C 
ATOM     21  C   UNL     1       7.585   3.529   1.220  0.00  0.00    +0.031 C 
ATOM     22  C   UNL     1       7.246   2.729  -0.055  0.00  0.00    +0.167 C 
BRANCH  18  23
ATOM     23  S   UNL     1       8.111   0.358  -1.228  0.00  0.00    +0.062 S 
ATOM     24  O   UNL     1       8.589  -0.830  -0.612  0.00  0.00    -0.153 OA
ATOM     25  O   UNL     1       6.854   0.423  -1.887  0.00  0.00    -0.153 OA
BRANCH  23  30
ATOM     26  C   UNL     1      12.270   1.991  -5.283  0.00  0.00    +0.044 C 
ATOM     27  C   UNL     1      11.231   1.583  -4.271  0.00  0.00    -0.050 A 
ATOM     28  C   UNL     1      11.588   0.794  -3.193  0.00  0.00    +0.005 A 
ATOM     29  C   UNL     1      10.636   0.420  -2.264  0.00  0.00    +0.029 A 
ATOM     30  C   UNL     1       9.325   0.835  -2.412  0.00  0.00    +0.106 A 
ATOM     31  C   UNL     1       8.967   1.620  -3.492  0.00  0.00    +0.029 A 
ATOM     32  C   UNL     1       9.921   1.998  -4.419  0.00  0.00    +0.005 A 
ENDBRANCH  23  30
ENDBRANCH  18  23
ENDBRANCH   1  22
TORSDOF 7
