REMARK  Name = ZINC66937534
REMARK  5 active torsions:
REMARK  status: ('A' for Active; 'I' for Inactive)
REMARK    1  A    between atoms: C_4  and  C_7
REMARK    2  A    between atoms: N_12  and  S_15
REMARK    3  A    between atoms: S_15  and  C_18
REMARK    4  A    between atoms: C_21  and  S_24
REMARK    5  A    between atoms: S_24  and  N_27
REMARK                            x       y       z     vdW  Elec       q    Type
REMARK                         _______ _______ _______ _____ _____    ______ ____
ROOT
ATOM      1  S   UNL     1       6.392  -4.059  -0.668  0.00  0.00    +0.061 S 
ATOM      2  O   UNL     1       6.426  -4.425  -2.041  0.00  0.00    -0.153 OA
ATOM      3  O   UNL     1       7.525  -4.182   0.181  0.00  0.00    -0.153 OA
ENDROOT
BRANCH   1   8
ATOM      4  C   UNL     1       3.711  -0.707  -0.038  0.00  0.00    +0.020 C 
ATOM      5  C   UNL     1       3.813  -1.617   1.152  0.00  0.00    +0.009 C 
ATOM      6  C   UNL     1       5.264  -1.657   1.691  0.00  0.00    +0.018 C 
ATOM      7  C   UNL     1       6.271  -1.650   0.514  0.00  0.00    +0.109 C 
ATOM      8  N   UNL     1       5.929  -2.470  -0.613  0.00  0.00    -0.177 NA
ATOM      9  C   UNL     1       5.146  -1.863  -1.741  0.00  0.00    +0.110 C 
ATOM     10  C   UNL     1       3.790  -1.619  -1.257  0.00  0.00    +0.025 C 
BRANCH   4  14
ATOM     11  C   UNL     1      -0.017   1.378   0.010  0.00  0.00    +0.000 A 
ATOM     12  C   UNL     1       1.171   2.086   0.002  0.00  0.00    +0.000 A 
ATOM     13  C   UNL     1       2.377   1.411  -0.013  0.00  0.00    +0.004 A 
ATOM     14  C   UNL     1       2.396   0.029  -0.020  0.00  0.00    -0.044 A 
ATOM     15  C   UNL     1       1.208  -0.679  -0.012  0.00  0.00    +0.004 A 
ATOM     16  C   UNL     1       0.002  -0.004   0.002  0.00  0.00    +0.000 A 
ENDBRANCH   4  14
ENDBRANCH   1   8
BRANCH   1  17
ATOM     17  C   UNL     1       5.102  -5.003   0.073  0.00  0.00    +0.106 A 
ATOM     18  C   UNL     1       5.121  -5.252   1.433  0.00  0.00    +0.030 A 
ATOM     19  C   UNL     1       4.109  -5.993   2.014  0.00  0.00    +0.030 A 
ATOM     20  C   UNL     1       3.078  -6.484   1.236  0.00  0.00    +0.105 A 
ATOM     21  C   UNL     1       3.058  -6.234  -0.124  0.00  0.00    +0.030 A 
ATOM     22  C   UNL     1       4.068  -5.490  -0.704  0.00  0.00    +0.030 A 
BRANCH  20  23
ATOM     23  S   UNL     1       1.788  -7.429   1.977  0.00  0.00    +0.056 S 
ATOM     24  O   UNL     1       1.231  -8.234   0.947  0.00  0.00    -0.153 OA
ATOM     25  O   UNL     1       2.325  -7.983   3.170  0.00  0.00    -0.153 OA
BRANCH  23  26
ATOM     26  N   UNL     1       0.606  -6.366   2.439  0.00  0.00    -0.204 NA
ATOM     27  H   UNL     1      -0.322  -6.650   2.456  0.00  0.00    +0.144 HD
ATOM     28  H   UNL     1       0.840  -5.460   2.692  0.00  0.00    +0.144 HD
ENDBRANCH  23  26
ENDBRANCH  20  23
ENDBRANCH   1  17
TORSDOF 5
