REMARK  Name = ZINC06575744
REMARK  2 active torsions:
REMARK  status: ('A' for Active; 'I' for Inactive)
REMARK    1  A    between atoms: C_4  and  C_7
REMARK    2  A    between atoms: C_10  and  C_16
REMARK                            x       y       z     vdW  Elec       q    Type
REMARK                         _______ _______ _______ _____ _____    ______ ____
ROOT
ATOM      1  C   UNL     1      -1.273   1.732   0.017  0.00  0.00    +0.114 C 
ATOM      2  C   UNL     1      -1.311   2.573   1.296  0.00  0.00    +0.082 C 
ATOM      3  C   UNL     1      -0.068   3.369   1.503  0.00  0.00    +0.073 C 
ATOM      4  N   UNL     1       1.089   3.143   1.018  0.00  0.00    -0.122 NA
ATOM      5  S   UNL     1       1.389   1.869  -0.001  0.00  0.00    +0.137 S 
ATOM      6  O   UNL     1       2.397   1.077   0.612  0.00  0.00    -0.134 OA
ATOM      7  O   UNL     1       1.526   2.408  -1.309  0.00  0.00    -0.134 OA
ATOM      8  N   UNL     1      -0.011   0.966   0.007  0.00  0.00    -0.166 NA
ATOM      9  H   UNL     1       0.002  -0.004   0.002  0.00  0.00    +0.150 HD
ENDROOT
BRANCH   1  13
ATOM     10  C   UNL     1      -4.589  -0.960  -0.043  0.00  0.00    +0.000 A 
ATOM     11  C   UNL     1      -4.628   0.202  -0.791  0.00  0.00    +0.000 A 
ATOM     12  C   UNL     1      -3.555   1.073  -0.772  0.00  0.00    +0.005 A 
ATOM     13  C   UNL     1      -2.443   0.783  -0.004  0.00  0.00    -0.028 A 
ATOM     14  C   UNL     1      -2.402  -0.381   0.740  0.00  0.00    +0.005 A 
ATOM     15  C   UNL     1      -3.477  -1.250   0.725  0.00  0.00    +0.000 A 
ENDBRANCH   1  13
BRANCH   3  16
ATOM     16  C   UNL     1      -0.191   4.557   2.370  0.00  0.00    -0.002 A 
ATOM     17  C   UNL     1      -1.423   4.885   2.940  0.00  0.00    +0.010 A 
ATOM     18  C   UNL     1      -1.530   5.995   3.752  0.00  0.00    +0.001 A 
ATOM     19  C   UNL     1      -0.422   6.787   3.995  0.00  0.00    +0.000 A 
ATOM     20  C   UNL     1       0.800   6.471   3.430  0.00  0.00    +0.001 A 
ATOM     21  C   UNL     1       0.923   5.362   2.619  0.00  0.00    +0.010 A 
ENDBRANCH   3  16
TORSDOF 2
