REMARK  Name = ZINC33562582
REMARK  12 active torsions:
REMARK  status: ('A' for Active; 'I' for Inactive)
REMARK    1  A    between atoms: C_1  and  C_2
REMARK    2  A    between atoms: C_2  and  C_3
REMARK    3  A    between atoms: C_8  and  N_9
REMARK    4  A    between atoms: N_12  and  C_13
REMARK    5  A    between atoms: N_12  and  C_20
REMARK    6  A    between atoms: C_13  and  C_14
REMARK    7  A    between atoms: C_14  and  N_15
REMARK    8  A    between atoms: C_20  and  C_21
REMARK    9  A    between atoms: N_23  and  C_24
REMARK   10  A    between atoms: N_23  and  C_32
REMARK   11  A    between atoms: C_24  and  C_25
REMARK   12  A    between atoms: C_32  and  C_33
REMARK                            x       y       z     vdW  Elec       q    Type
REMARK                         _______ _______ _______ _____ _____    ______ ____
ROOT
ATOM      1  N   UNL     1       0.373  -6.403   3.020  0.00  0.00    -0.269 N 
ATOM      2  C   UNL     1      -0.069  -5.423   2.206  0.00  0.00    +0.307 C 
ATOM      3  O   UNL     1      -1.028  -5.618   1.485  0.00  0.00    -0.252 OA
ATOM      4  N   UNL     1       0.553  -4.228   2.192  0.00  0.00    -0.278 N 
ATOM      5  H   UNL     1       1.295  -6.260   3.603  0.00  0.00    +0.156 HD
ENDROOT
BRANCH   1  11
ATOM      6  C   UNL     1       0.307  -8.766   3.514  0.00  0.00    -0.026 A 
ATOM      7  C   UNL     1      -0.400  -9.948   3.615  0.00  0.00    +0.005 A 
ATOM      8  C   UNL     1      -1.752  -9.973   3.327  0.00  0.00    +0.000 A 
ATOM      9  C   UNL     1      -2.401  -8.815   2.936  0.00  0.00    +0.002 A 
ATOM     10  C   UNL     1      -1.700  -7.629   2.839  0.00  0.00    +0.023 A 
ATOM     11  C   UNL     1      -0.341  -7.602   3.122  0.00  0.00    +0.038 A 
BRANCH   6  13
ATOM     12  C   UNL     1       1.984  -8.312   5.284  0.00  0.00    +0.009 C 
ATOM     13  C   UNL     1       1.781  -8.740   3.829  0.00  0.00    +0.033 C 
ENDBRANCH   6  13
ENDBRANCH   1  11
BRANCH   4  14
ATOM     14  C   UNL     1       1.709  -3.993   3.060  0.00  0.00    +0.091 C 
BRANCH  14  15
ATOM     15  C   UNL     1       1.233  -3.441   4.405  0.00  0.00    -0.060 C 
BRANCH  15  16
ATOM     16  N   UNL     1       2.392  -3.206   5.276  0.00  0.00    +0.381 N 
ATOM     17  C   UNL     1       3.410  -2.368   4.592  0.00  0.00    -0.079 C 
ATOM     18  C   UNL     1       4.249  -1.800   5.765  0.00  0.00    -0.020 C 
ATOM     19  C   UNL     1       3.185  -1.542   6.857  0.00  0.00    -0.020 C 
ATOM     20  C   UNL     1       2.000  -2.454   6.489  0.00  0.00    -0.079 C 
ATOM     21  H   UNL     1       2.784  -4.202   5.529  0.00  0.00    -0.082 HD
ENDBRANCH  15  16
ENDBRANCH  14  15
ENDBRANCH   4  14
BRANCH   4  22
ATOM     22  C   UNL     1       0.073  -3.163   1.307  0.00  0.00    +0.205 C 
BRANCH  22  23
ATOM     23  C   UNL     1      -0.957  -2.335   2.031  0.00  0.00    +0.234 C 
ATOM     24  O   UNL     1      -1.261  -2.608   3.173  0.00  0.00    -0.274 OA
ATOM     25  N   UNL     1      -1.542  -1.292   1.409  0.00  0.00    -0.291 N 
BRANCH  25  26
ATOM     26  C   UNL     1      -2.543  -0.487   2.113  0.00  0.00    +0.143 C 
BRANCH  26  27
ATOM     27  C   UNL     1      -3.912  -1.070   1.877  0.00  0.00    -0.030 A 
ATOM     28  C   UNL     1      -4.669  -0.643   0.802  0.00  0.00    +0.008 A 
ATOM     29  C   UNL     1      -5.923  -1.181   0.581  0.00  0.00    +0.038 A 
ATOM     30  C   UNL     1      -6.426  -2.140   1.444  0.00  0.00    +0.123 A 
ATOM     31  C   UNL     1      -5.669  -2.563   2.523  0.00  0.00    +0.038 A 
ATOM     32  C   UNL     1      -4.413  -2.028   2.739  0.00  0.00    +0.008 A 
ATOM     33  F   UNL     1      -7.653  -2.663   1.232  0.00  0.00    -0.205 F 
ENDBRANCH  26  27
ENDBRANCH  25  26
BRANCH  25  34
ATOM     34  C   UNL     1      -1.175  -0.963   0.029  0.00  0.00    +0.150 C 
BRANCH  34  35
ATOM     35  C   UNL     1      -0.023   0.009   0.034  0.00  0.00    +0.007 A 
ATOM     36  C   UNL     1       1.308  -0.244   0.025  0.00  0.00    +0.013 A 
ATOM     37  C   UNL     1       2.193   0.817   0.032  0.00  0.00    +0.008 A 
ATOM     38  C   UNL     1       1.703   2.081   0.048  0.00  0.00    +0.045 A 
ATOM     39  S   UNL     1      -0.059   1.794   0.053  0.00  0.00    -0.100 S 
ENDBRANCH  34  35
ENDBRANCH  25  34
ENDBRANCH  22  23
ENDBRANCH   4  22
TORSDOF 11
