REMARK  Name = ZINC39502526
REMARK  9 active torsions:
REMARK  status: ('A' for Active; 'I' for Inactive)
REMARK    1  A    between atoms: C_1  and  C_2
REMARK    2  A    between atoms: C_2  and  O_3
REMARK    3  A    between atoms: O_3  and  C_4
REMARK    4  A    between atoms: C_4  and  C_6
REMARK    5  A    between atoms: C_7  and  C_25
REMARK    6  A    between atoms: C_11  and  O_24
REMARK    7  A    between atoms: C_12  and  O_23
REMARK    8  A    between atoms: C_15  and  C_16
REMARK    9  A    between atoms: C_25  and  N_26
REMARK                            x       y       z     vdW  Elec       q    Type
REMARK                         _______ _______ _______ _____ _____    ______ ____
ROOT
ATOM      1  C   UNL     1       1.453  -2.346  -2.523  0.00  0.00    +0.072 A 
ATOM      2  C   UNL     1       2.834  -2.601  -2.486  0.00  0.00    -0.011 A 
ATOM      3  C   UNL     1       3.481  -3.105  -3.567  0.00  0.00    +0.015 A 
ATOM      4  C   UNL     1       2.774  -3.384  -4.753  0.00  0.00    -0.013 A 
ATOM      5  C   UNL     1       3.432  -3.905  -5.878  0.00  0.00    +0.057 A 
ATOM      6  C   UNL     1       2.725  -4.168  -7.016  0.00  0.00    +0.159 A 
ATOM      7  C   UNL     1       1.345  -3.922  -7.077  0.00  0.00    +0.159 A 
ATOM      8  C   UNL     1       0.679  -3.415  -5.999  0.00  0.00    +0.058 A 
ATOM      9  C   UNL     1       1.380  -3.136  -4.815  0.00  0.00    -0.006 A 
ATOM     10  C   UNL     1       0.716  -2.616  -3.682  0.00  0.00    +0.004 A 
ENDROOT
BRANCH  10  11
ATOM     11  C   UNL     1      -0.739  -2.355  -3.721  0.00  0.00    -0.015 A 
ATOM     12  C   UNL     1      -1.603  -3.076  -2.895  0.00  0.00    +0.008 A 
ATOM     13  C   UNL     1      -2.959  -2.828  -2.936  0.00  0.00    +0.002 A 
ATOM     14  C   UNL     1      -3.465  -1.867  -3.793  0.00  0.00    +0.020 A 
ATOM     15  C   UNL     1      -2.614  -1.148  -4.615  0.00  0.00    +0.042 A 
ATOM     16  C   UNL     1      -1.254  -1.383  -4.580  0.00  0.00    +0.028 A 
ATOM     17 CL   UNL     1      -3.257   0.056  -5.688  0.00  0.00    -0.084 Cl
ENDBRANCH  10  11
BRANCH   1  18
ATOM     18  C   UNL     1       0.776  -1.799  -1.335  0.00  0.00    +0.340 C 
ATOM     19  O   UNL     1       0.312  -2.550  -0.500  0.00  0.00    -0.245 OA
BRANCH  18  20
ATOM     20  O   UNL     1       0.671  -0.465  -1.174  0.00  0.00    -0.461 OA
BRANCH  20  22
ATOM     21  C   UNL     1      -0.019   1.526   0.010  0.00  0.00    +0.048 C 
ATOM     22  C   UNL     1       0.002  -0.004   0.002  0.00  0.00    +0.229 C 
ENDBRANCH  20  22
ENDBRANCH  18  20
ENDBRANCH   1  18
BRANCH   7  23
ATOM     23  O   UNL     1       0.664  -4.191  -8.222  0.00  0.00    -0.503 OA
ATOM     24  H   UNL     1       0.308  -5.090  -8.266  0.00  0.00    +0.292 HD
ENDBRANCH   7  23
BRANCH   6  25
ATOM     25  O   UNL     1       3.365  -4.673  -8.103  0.00  0.00    -0.503 OA
ATOM     26  H   UNL     1       3.392  -5.639  -8.130  0.00  0.00    +0.292 HD
ENDBRANCH   6  25
BRANCH   2  27
ATOM     27  C   UNL     1       3.610  -2.309  -1.227  0.00  0.00    +0.181 C 
BRANCH  27  28
ATOM     28  N   UNL     1       3.513  -3.453  -0.317  0.00  0.00    -0.248 N 
ATOM     29  C   UNL     1       4.533  -4.132   0.235  0.00  0.00    +0.219 A 
ATOM     30  N   UNL     1       4.032  -5.080   0.984  0.00  0.00    -0.223 NA
ATOM     31  C   UNL     1       2.701  -5.038   0.936  0.00  0.00    +0.245 A 
ATOM     32  N   UNL     1       2.335  -4.055   0.156  0.00  0.00    -0.158 NA
ENDBRANCH  27  28
ENDBRANCH   2  27
TORSDOF 8
