REMARK  Name = ZINC10339361
REMARK  6 active torsions:
REMARK  status: ('A' for Active; 'I' for Inactive)
REMARK    1  A    between atoms: C_1  and  C_2
REMARK    2  A    between atoms: C_2  and  O_3
REMARK    3  A    between atoms: O_3  and  C_4
REMARK    4  A    between atoms: C_4  and  C_6
REMARK    5  A    between atoms: C_8  and  C_22
REMARK    6  A    between atoms: C_26  and  C_28
REMARK                            x       y       z     vdW  Elec       q    Type
REMARK                         _______ _______ _______ _____ _____    ______ ____
ROOT
ATOM      1  C   UNL     1       2.406   0.137   0.639  0.00  0.00    +0.211 C 
ATOM      2  C   UNL     1       2.474   1.505  -0.045  0.00  0.00    +0.143 C 
ATOM      3  N   UNL     1       1.146   2.122   0.003  0.00  0.00    -0.303 N 
ATOM      4  C   UNL     1       0.792   3.438   0.036  0.00  0.00    +0.071 A 
ATOM      5  C   UNL     1       1.529   4.617   0.058  0.00  0.00    +0.028 A 
ATOM      6  C   UNL     1       0.818   5.805   0.090  0.00  0.00    +0.002 A 
ATOM      7  C   UNL     1      -0.566   5.833   0.099  0.00  0.00    +0.002 A 
ATOM      8  C   UNL     1      -1.323   4.675   0.078  0.00  0.00    +0.030 A 
ATOM      9  C   UNL     1      -0.626   3.462   0.047  0.00  0.00    +0.091 A 
ATOM     10  N   UNL     1      -1.049   2.182   0.029  0.00  0.00    -0.214 NA
ATOM     11  C   UNL     1      -0.017   1.384   0.010  0.00  0.00    +0.204 A 
ATOM     12  N   UNL     1       0.002  -0.004   0.002  0.00  0.00    -0.255 N 
ATOM     13  C   UNL     1       1.184  -0.623   0.206  0.00  0.00    +0.236 C 
ATOM     14  O   UNL     1       1.262  -1.821   0.034  0.00  0.00    -0.274 OA
ATOM     15  H   UNL     1      -0.810  -0.514  -0.145  0.00  0.00    +0.158 HD
ENDROOT
BRANCH   2  16
ATOM     16  C   UNL     1       2.900   1.331  -1.480  0.00  0.00    -0.023 A 
ATOM     17  C   UNL     1       2.137   0.562  -2.339  0.00  0.00    +0.006 A 
ATOM     18  C   UNL     1       2.525   0.407  -3.657  0.00  0.00    +0.001 A 
ATOM     19  C   UNL     1       3.681   1.012  -4.113  0.00  0.00    +0.003 A 
ATOM     20  C   UNL     1       4.447   1.777  -3.252  0.00  0.00    -0.050 A 
ATOM     21  C   UNL     1       4.056   1.936  -1.936  0.00  0.00    +0.009 A 
ATOM     22  C   UNL     1       5.707   2.437  -3.750  0.00  0.00    +0.044 C 
ENDBRANCH   2  16
BRANCH   1  23
ATOM     23  C   UNL     1       3.636  -0.656   0.280  0.00  0.00    +0.322 C 
ATOM     24  O   UNL     1       4.461  -0.187  -0.468  0.00  0.00    -0.250 OA
BRANCH  23  25
ATOM     25  O   UNL     1       3.815  -1.885   0.791  0.00  0.00    -0.464 OA
BRANCH  25  27
ATOM     26  C   UNL     1       5.051  -3.963   1.077  0.00  0.00    +0.048 C 
ATOM     27  C   UNL     1       5.022  -2.591   0.401  0.00  0.00    +0.229 C 
ENDBRANCH  25  27
ENDBRANCH  23  25
ENDBRANCH   1  23
TORSDOF 4
