REMARK  Name = ZINC16909183
REMARK  7 active torsions:
REMARK  status: ('A' for Active; 'I' for Inactive)
REMARK    1  A    between atoms: C_1  and  C_2
REMARK    2  A    between atoms: C_2  and  C_4
REMARK    3  A    between atoms: C_2  and  O_6
REMARK    4  A    between atoms: O_6  and  C_7
REMARK    5  A    between atoms: C_11  and  C_13
REMARK    6  A    between atoms: N_17  and  N_21
REMARK    7  A    between atoms: C_22  and  C_24
REMARK                            x       y       z     vdW  Elec       q    Type
REMARK                         _______ _______ _______ _____ _____    ______ ____
ROOT
ATOM      1  C   UNL     1      -2.263   0.822   0.332  0.00  0.00    +0.028 C 
ATOM      2  C   UNL     1      -2.115  -0.498   0.606  0.00  0.00    +0.079 C 
ATOM      3  C   UNL     1      -0.883  -1.314   0.674  0.00  0.00    +0.275 C 
ATOM      4  O   UNL     1       0.215  -0.832   0.471  0.00  0.00    -0.267 OA
ATOM      5  N   UNL     1      -1.038  -2.595   0.966  0.00  0.00    -0.169 N 
ATOM      6  C   UNL     1      -2.257  -3.124   1.192  0.00  0.00    +0.138 C 
ATOM      7  S   UNL     1      -2.658  -4.742   1.581  0.00  0.00    -0.026 S 
ATOM      8  S   UNL     1      -3.353  -1.728   0.993  0.00  0.00    -0.059 S 
ENDROOT
BRANCH   1  13
ATOM      9  C   UNL     1       0.862   1.820  -1.490  0.00  0.00    +0.122 A 
ATOM     10  C   UNL     1       1.062   3.102  -0.993  0.00  0.00    +0.046 A 
ATOM     11  C   UNL     1       0.180   3.639  -0.073  0.00  0.00    +0.004 A 
ATOM     12  C   UNL     1      -0.905   2.905   0.359  0.00  0.00    +0.008 A 
ATOM     13  C   UNL     1      -1.112   1.611  -0.130  0.00  0.00    -0.020 A 
ATOM     14  C   UNL     1      -0.222   1.073  -1.065  0.00  0.00    +0.053 A 
BRANCH   9  15
ATOM     15  O   UNL     1       1.734   1.299  -2.393  0.00  0.00    -0.478 OA
BRANCH  15  17
ATOM     16  C   UNL     1       2.555   3.094  -3.787  0.00  0.00    +0.064 C 
ATOM     17  C   UNL     1       2.894   2.075  -2.698  0.00  0.00    +0.282 C 
BRANCH  17  18
ATOM     18  C   UNL     1       3.993   1.166  -3.185  0.00  0.00    +0.395 C 
ATOM     19  O   UNL     1       3.775  -0.011  -3.349  0.00  0.00    -0.242 OA
ATOM     20  O   UNL     1       5.214   1.664  -3.436  0.00  0.00    -0.242 OA
ENDBRANCH  17  18
ENDBRANCH  15  17
ENDBRANCH   9  15
ENDBRANCH   1  13
BRANCH   5  21
ATOM     21  N   UNL     1       0.092  -3.420   1.045  0.00  0.00    -0.222 N 
ATOM     22  C   UNL     1       0.557  -3.813   2.247  0.00  0.00    +0.261 C 
ATOM     23  O   UNL     1      -0.004  -3.452   3.263  0.00  0.00    -0.269 OA
ATOM     24  H   UNL     1       0.539  -3.708   0.234  0.00  0.00    +0.174 HD
BRANCH  22  25
ATOM     25  C   UNL     1       1.748  -4.683   2.330  0.00  0.00    +0.038 A 
ATOM     26  C   UNL     1       2.391  -5.104   1.164  0.00  0.00    +0.014 A 
ATOM     27  C   UNL     1       3.506  -5.912   1.248  0.00  0.00    +0.016 A 
ATOM     28  C   UNL     1       3.982  -6.314   2.485  0.00  0.00    +0.018 A 
ATOM     29  C   UNL     1       3.345  -5.905   3.644  0.00  0.00    +0.016 A 
ATOM     30  C   UNL     1       2.232  -5.093   3.574  0.00  0.00    +0.014 A 
ATOM     31 BR   UNL     1       5.507  -7.427   2.590  0.00  0.00    -0.050 Br
ENDBRANCH  22  25
ENDBRANCH   5  21
TORSDOF 6
