REMARK  Name = ZINC12735479
REMARK  8 active torsions:
REMARK  status: ('A' for Active; 'I' for Inactive)
REMARK    1  A    between atoms: C_3  and  N_27
REMARK    2  A    between atoms: C_6  and  C_7
REMARK    3  A    between atoms: C_8  and  C_9
REMARK    4  A    between atoms: N_11  and  C_12
REMARK    5  A    between atoms: C_15  and  S_18
REMARK    6  A    between atoms: S_18  and  N_21
REMARK    7  A    between atoms: N_21  and  C_22
REMARK    8  A    between atoms: C_22  and  C_23
REMARK                            x       y       z     vdW  Elec       q    Type
REMARK                         _______ _______ _______ _____ _____    ______ ____
ROOT
ATOM      1  C   UNL     1       2.411  -2.734  -0.123  0.00  0.00    +0.241 C 
ATOM      2  O   UNL     1       3.457  -2.111  -0.143  0.00  0.00    -0.270 OA
ATOM      3  N   UNL     1       1.240  -2.081   0.008  0.00  0.00    -0.282 N 
ATOM      4  H   UNL     1       0.413  -2.581   0.101  0.00  0.00    +0.155 HD
ENDROOT
BRANCH   3   5
ATOM      5  C   UNL     1       1.215  -0.683   0.010  0.00  0.00    +0.034 A 
ATOM      6  C   UNL     1       2.128   0.030  -0.755  0.00  0.00    +0.025 A 
ATOM      7  C   UNL     1       2.102   1.411  -0.750  0.00  0.00    +0.030 A 
ATOM      8  C   UNL     1       1.167   2.084   0.015  0.00  0.00    +0.105 A 
ATOM      9  C   UNL     1       0.256   1.376   0.779  0.00  0.00    +0.030 A 
ATOM     10  C   UNL     1       0.277  -0.004   0.778  0.00  0.00    +0.025 A 
BRANCH   8  11
ATOM     11  S   UNL     1       1.137   3.845   0.019  0.00  0.00    +0.059 S 
ATOM     12  O   UNL     1       0.522   4.239   1.238  0.00  0.00    -0.153 OA
ATOM     13  O   UNL     1       2.440   4.275  -0.350  0.00  0.00    -0.153 OA
BRANCH  11  14
ATOM     14  N   UNL     1       0.119   4.320  -1.198  0.00  0.00    -0.181 NA
ATOM     15  H   UNL     1       0.469   4.810  -1.959  0.00  0.00    +0.148 HD
BRANCH  14  16
ATOM     16  C   UNL     1      -1.308   4.000  -1.127  0.00  0.00    +0.219 C 
BRANCH  16  17
ATOM     17  C   UNL     1      -2.073   4.847  -2.145  0.00  0.00    +0.404 C 
ATOM     18  F   UNL     1      -1.597   4.572  -3.432  0.00  0.00    -0.169 F 
ATOM     19  F   UNL     1      -3.437   4.541  -2.077  0.00  0.00    -0.169 F 
ATOM     20  F   UNL     1      -1.885   6.204  -1.859  0.00  0.00    -0.169 F 
ENDBRANCH  16  17
ENDBRANCH  14  16
ENDBRANCH  11  14
ENDBRANCH   8  11
ENDBRANCH   3   5
BRANCH   1  22
ATOM     21  C   UNL     1       3.600  -4.846  -0.373  0.00  0.00    +0.013 C 
ATOM     22  C   UNL     1       2.426  -4.191  -0.242  0.00  0.00    +0.068 C 
BRANCH  21  28
ATOM     23  C   UNL     1       2.414  -7.030  -0.464  0.00  0.00    +0.010 A 
ATOM     24  C   UNL     1       2.433  -8.401  -0.581  0.00  0.00    +0.024 A 
ATOM     25  C   UNL     1       3.644  -9.073  -0.717  0.00  0.00    +0.036 A 
ATOM     26  C   UNL     1       4.840  -8.363  -0.740  0.00  0.00    +0.024 A 
ATOM     27  C   UNL     1       4.831  -6.991  -0.629  0.00  0.00    +0.010 A 
ATOM     28  C   UNL     1       3.615  -6.311  -0.492  0.00  0.00    -0.025 A 
BRANCH  25  29
ATOM     29  N   UNL     1       3.659 -10.464  -0.830  0.00  0.00    -0.271 N 
ATOM     30  C   UNL     1       4.878 -11.280  -0.855  0.00  0.00    +0.114 C 
ATOM     31  C   UNL     1       4.445 -12.651  -1.419  0.00  0.00    +0.029 C 
ATOM     32  C   UNL     1       2.945 -12.686  -1.044  0.00  0.00    +0.098 C 
ATOM     33  C   UNL     1       2.557 -11.229  -0.923  0.00  0.00    +0.220 C 
ATOM     34  O   UNL     1       1.419 -10.811  -0.914  0.00  0.00    -0.275 OA
ENDBRANCH  25  29
ENDBRANCH  21  28
ENDBRANCH   1  22
TORSDOF 8
