REMARK  Name = ZINC39143322
REMARK  7 active torsions:
REMARK  status: ('A' for Active; 'I' for Inactive)
REMARK    1  A    between atoms: C_1  and  O_2
REMARK    2  A    between atoms: O_2  and  C_3
REMARK    3  A    between atoms: C_9  and  C_12
REMARK    4  A    between atoms: C_13  and  C_14
REMARK    5  A    between atoms: N_25  and  C_26
REMARK    6  A    between atoms: C_26  and  C_27
REMARK    7  A    between atoms: C_27  and  C_28
REMARK                            x       y       z     vdW  Elec       q    Type
REMARK                         _______ _______ _______ _____ _____    ______ ____
ROOT
ATOM      1  C   UNL     1       0.862  -7.500  -1.443  0.00  0.00    +0.185 C 
ATOM      2  N   UNL     1       2.037  -8.296  -1.067  0.00  0.00    -0.322 N 
ATOM      3  C   UNL     1       2.642  -9.086  -2.038  0.00  0.00    +0.041 A 
ATOM      4  C   UNL     1       3.996  -9.373  -2.010  0.00  0.00    +0.024 A 
ATOM      5  C   UNL     1       4.548 -10.161  -3.002  0.00  0.00    +0.002 A 
ATOM      6  C   UNL     1       3.758 -10.665  -4.023  0.00  0.00    +0.001 A 
ATOM      7  C   UNL     1       2.407 -10.390  -4.065  0.00  0.00    +0.015 A 
ATOM      8  C   UNL     1       1.837  -9.599  -3.070  0.00  0.00    +0.058 A 
ATOM      9  C   UNL     1       0.398  -9.281  -3.062  0.00  0.00    +0.250 C 
ATOM     10  O   UNL     1      -0.372  -9.893  -3.777  0.00  0.00    -0.270 OA
ATOM     11  N   UNL     1      -0.053  -8.304  -2.253  0.00  0.00    -0.275 N 
ATOM     12  H   UNL     1       2.383  -8.272  -0.161  0.00  0.00    +0.148 HD
ENDROOT
BRANCH   1  14
ATOM     13  C   UNL     1       1.045  -5.063  -1.788  0.00  0.00    +0.005 C 
ATOM     14  C   UNL     1       1.307  -6.299  -2.238  0.00  0.00    +0.015 C 
BRANCH  13  21
ATOM     15  C   UNL     1       0.606  -0.607  -1.056  0.00  0.00    +0.121 A 
ATOM     16  C   UNL     1       1.174   0.186  -2.065  0.00  0.00    +0.047 A 
ATOM     17  C   UNL     1       1.788  -0.358  -3.141  0.00  0.00    +0.029 A 
ATOM     18  C   UNL     1       1.869  -1.771  -3.270  0.00  0.00    +0.043 A 
ATOM     19  N   UNL     1       2.402  -2.530  -4.202  0.00  0.00    -0.380 N 
ATOM     20  C   UNL     1       2.208  -3.939  -3.847  0.00  0.00    +0.149 C 
ATOM     21  C   UNL     1       1.462  -3.939  -2.531  0.00  0.00    -0.019 C 
ATOM     22  C   UNL     1       1.271  -2.603  -2.209  0.00  0.00    +0.006 A 
ATOM     23  C   UNL     1       0.650  -1.965  -1.110  0.00  0.00    +0.056 A 
ATOM     24  H   UNL     1       2.852  -2.209  -4.999  0.00  0.00    +0.160 HD
BRANCH  15  26
ATOM     25  C   UNL     1      -0.017   1.425   0.010  0.00  0.00    +0.277 C 
ATOM     26  O   UNL     1       0.002  -0.004   0.002  0.00  0.00    -0.495 OA
ENDBRANCH  15  26
ENDBRANCH  13  21
ENDBRANCH   1  14
BRANCH  11  27
ATOM     27  C   UNL     1      -1.493  -8.042  -2.184  0.00  0.00    +0.115 C 
BRANCH  27  28
ATOM     28  C   UNL     1      -1.873  -7.002  -3.240  0.00  0.00    +0.054 C 
BRANCH  28  29
ATOM     29  C   UNL     1      -3.354  -6.732  -3.169  0.00  0.00    -0.046 A 
ATOM     30  C   UNL     1      -4.231  -7.488  -3.925  0.00  0.00    +0.004 A 
ATOM     31  C   UNL     1      -5.589  -7.241  -3.860  0.00  0.00    +0.000 A 
ATOM     32  C   UNL     1      -6.071  -6.238  -3.039  0.00  0.00    +0.000 A 
ATOM     33  C   UNL     1      -5.194  -5.483  -2.284  0.00  0.00    +0.000 A 
ATOM     34  C   UNL     1      -3.836  -5.733  -2.345  0.00  0.00    +0.004 A 
ENDBRANCH  28  29
ENDBRANCH  27  28
ENDBRANCH  11  27
TORSDOF 6
