REMARK  Name = ZINC26457995
REMARK  9 active torsions:
REMARK  status: ('A' for Active; 'I' for Inactive)
REMARK    1  A    between atoms: C_1  and  C_2
REMARK    2  A    between atoms: C_4  and  C_29
REMARK    3  A    between atoms: C_5  and  N_9
REMARK    4  A    between atoms: C_6  and  C_8
REMARK    5  A    between atoms: C_10  and  C_12
REMARK    6  A    between atoms: C_12  and  N_13
REMARK    7  A    between atoms: N_13  and  C_14
REMARK    8  A    between atoms: C_15  and  C_17
REMARK    9  A    between atoms: C_17  and  C_22
REMARK                            x       y       z     vdW  Elec       q    Type
REMARK                         _______ _______ _______ _____ _____    ______ ____
ROOT
ATOM      1  N   UNL     1      -5.599   3.976  -1.290  0.00  0.00    -0.295 N 
ATOM      2  C   UNL     1      -5.964   3.534  -2.638  0.00  0.00    +0.132 C 
ATOM      3  C   UNL     1      -6.551   4.115  -0.346  0.00  0.00    +0.226 C 
ATOM      4  O   UNL     1      -6.238   4.367   0.798  0.00  0.00    -0.275 OA
ENDROOT
BRANCH   3   5
ATOM      5  C   UNL     1      -8.005   3.957  -0.713  0.00  0.00    +0.072 C 
ATOM      6  C   UNL     1      -8.870   3.939   0.560  0.00  0.00    +0.021 C 
ATOM      7  C   UNL     1      -9.589   2.574   0.584  0.00  0.00    +0.001 C 
ATOM      8  C   UNL     1      -8.691   1.656  -0.282  0.00  0.00    +0.001 C 
ATOM      9  C   UNL     1      -8.228   2.603  -1.417  0.00  0.00    +0.021 C 
BRANCH   5  10
ATOM     10  C   UNL     1      -8.435   5.085  -1.615  0.00  0.00    -0.032 A 
ATOM     11  C   UNL     1      -7.606   6.176  -1.799  0.00  0.00    +0.006 A 
ATOM     12  C   UNL     1      -7.998   7.209  -2.631  0.00  0.00    +0.020 A 
ATOM     13  C   UNL     1      -9.224   7.155  -3.269  0.00  0.00    +0.041 A 
ATOM     14  C   UNL     1     -10.055   6.066  -3.079  0.00  0.00    +0.020 A 
ATOM     15  C   UNL     1      -9.660   5.031  -2.252  0.00  0.00    +0.006 A 
ATOM     16 CL   UNL     1      -9.719   8.454  -4.309  0.00  0.00    -0.084 Cl
ENDBRANCH   5  10
ENDBRANCH   3   5
BRANCH   1  17
ATOM     17  C   UNL     1      -4.200   4.266  -0.968  0.00  0.00    +0.203 C 
BRANCH  17  19
ATOM     18  N   UNL     1      -2.231   3.042  -0.106  0.00  0.00    -0.284 N 
ATOM     19  C   UNL     1      -3.530   3.013  -0.466  0.00  0.00    +0.235 C 
ATOM     20  O   UNL     1      -4.159   1.980  -0.385  0.00  0.00    -0.274 OA
ATOM     21  H   UNL     1      -1.672   3.989  -0.138  0.00  0.00    +0.155 HD
BRANCH  18  26
ATOM     22  C   UNL     1       0.351  -1.722   1.575  0.00  0.00    +0.044 C 
ATOM     23  C   UNL     1      -0.335  -0.456   1.128  0.00  0.00    -0.050 A 
ATOM     24  C   UNL     1      -0.979  -0.415  -0.095  0.00  0.00    +0.008 A 
ATOM     25  C   UNL     1      -1.604   0.744  -0.509  0.00  0.00    -0.029 A 
ATOM     26  C   UNL     1      -1.594   1.867   0.308  0.00  0.00    +0.039 A 
ATOM     27  C   UNL     1      -0.947   1.822   1.536  0.00  0.00    -0.029 A 
ATOM     28  C   UNL     1      -0.320   0.661   1.943  0.00  0.00    +0.008 A 
ATOM     29  C   UNL     1      -0.929   3.040   2.424  0.00  0.00    +0.045 C 
ATOM     30  C   UNL     1      -2.300   0.790  -1.845  0.00  0.00    +0.045 C 
ENDBRANCH  18  26
ENDBRANCH  17  19
ENDBRANCH   1  17
TORSDOF 5
