REMARK  Name = ZINC12882374
REMARK  7 active torsions:
REMARK  status: ('A' for Active; 'I' for Inactive)
REMARK    1  A    between atoms: C_1  and  C_2
REMARK    2  A    between atoms: C_2  and  C_3
REMARK    3  A    between atoms: C_14  and  C_16
REMARK    4  A    between atoms: C_16  and  C_17
REMARK    5  A    between atoms: N_25  and  C_28
REMARK    6  A    between atoms: C_28  and  C_29
REMARK    7  A    between atoms: C_29  and  C_30
REMARK                            x       y       z     vdW  Elec       q    Type
REMARK                         _______ _______ _______ _____ _____    ______ ____
ROOT
ATOM      1  C   UNL     1       0.000   1.080   2.488  0.00  0.00    -0.047 A 
ATOM      2  C   UNL     1      -0.346  -0.133   3.054  0.00  0.00    +0.005 A 
ATOM      3  C   UNL     1       0.321  -0.598   4.168  0.00  0.00    +0.024 A 
ATOM      4  C   UNL     1       1.341   0.158   4.740  0.00  0.00    +0.036 A 
ATOM      5  C   UNL     1       1.678   1.380   4.165  0.00  0.00    -0.027 A 
ATOM      6  C   UNL     1       1.013   1.837   3.048  0.00  0.00    +0.008 A 
ATOM      7  C   UNL     1       2.795   1.935   5.002  0.00  0.00    +0.050 C 
ATOM      8  C   UNL     1       4.059   2.174   4.167  0.00  0.00    +0.088 C 
ATOM      9  C   UNL     1       4.688   3.462   4.768  0.00  0.00    +0.073 C 
ATOM     10  C   UNL     1       3.747   3.859   5.926  0.00  0.00    -0.053 C 
ATOM     11  C   UNL     1       6.000   2.973   5.340  0.00  0.00    +0.224 C 
ATOM     12  O   UNL     1       6.818   3.666   5.907  0.00  0.00    -0.275 OA
ATOM     13  N   UNL     1       6.118   1.658   5.123  0.00  0.00    -0.241 N 
ATOM     14  C   UNL     1       5.085   1.107   4.475  0.00  0.00    +0.225 C 
ATOM     15  O   UNL     1       4.987  -0.065   4.181  0.00  0.00    -0.275 OA
ATOM     16  C   UNL     1       3.029   0.905   6.074  0.00  0.00    +0.211 C 
ATOM     17  O   UNL     1       3.851   0.960   6.964  0.00  0.00    -0.277 OA
ATOM     18  N   UNL     1       2.147  -0.089   5.853  0.00  0.00    -0.286 N 
ATOM     19  H   UNL     1       2.081  -0.885   6.403  0.00  0.00    +0.155 HD
ATOM     20  N   UNL     1       2.471   3.229   5.576  0.00  0.00    +0.394 N 
ATOM     21  H   UNL     1       1.893   3.111   6.416  0.00  0.00    -0.083 HD
ATOM     22  H   UNL     1       1.967   3.805   4.892  0.00  0.00    -0.083 HD
ENDROOT
BRANCH   1  24
ATOM     23  C   UNL     1      -0.013   1.086   0.008  0.00  0.00    +0.009 C 
ATOM     24  C   UNL     1      -0.729   1.579   1.267  0.00  0.00    +0.032 C 
ENDBRANCH   1  24
BRANCH  10  25
ATOM     25  C   UNL     1       3.615   5.381   6.006  0.00  0.00    +0.020 C 
BRANCH  25  26
ATOM     26  C   UNL     1       2.731   5.747   7.170  0.00  0.00    -0.049 A 
ATOM     27  C   UNL     1       1.366   5.876   6.988  0.00  0.00    +0.003 A 
ATOM     28  C   UNL     1       0.554   6.207   8.057  0.00  0.00    +0.000 A 
ATOM     29  C   UNL     1       1.108   6.420   9.305  0.00  0.00    +0.000 A 
ATOM     30  C   UNL     1       2.473   6.297   9.486  0.00  0.00    +0.000 A 
ATOM     31  C   UNL     1       3.284   5.961   8.419  0.00  0.00    +0.003 A 
ENDBRANCH  25  26
ENDBRANCH  10  25
BRANCH  13  32
ATOM     32  C   UNL     1       7.283   0.885   5.559  0.00  0.00    +0.121 C 
BRANCH  32  33
ATOM     33  C   UNL     1       7.040   0.349   6.972  0.00  0.00    +0.054 C 
BRANCH  33  34
ATOM     34  C   UNL     1       8.238  -0.447   7.420  0.00  0.00    -0.046 A 
ATOM     35  C   UNL     1       8.298  -1.805   7.171  0.00  0.00    +0.004 A 
ATOM     36  C   UNL     1       9.400  -2.534   7.579  0.00  0.00    +0.000 A 
ATOM     37  C   UNL     1      10.436  -1.907   8.244  0.00  0.00    +0.000 A 
ATOM     38  C   UNL     1      10.374  -0.549   8.498  0.00  0.00    +0.000 A 
ATOM     39  C   UNL     1       9.275   0.181   8.086  0.00  0.00    +0.004 A 
ENDBRANCH  33  34
ENDBRANCH  32  33
ENDBRANCH  13  32
TORSDOF 6
