REMARK  Name = ZINC63409417
REMARK  7 active torsions:
REMARK  status: ('A' for Active; 'I' for Inactive)
REMARK    1  A    between atoms: C_1  and  C_2
REMARK    2  A    between atoms: C_7  and  C_12
REMARK    3  A    between atoms: C_12  and  C_24
REMARK    4  A    between atoms: C_13  and  C_14
REMARK    5  A    between atoms: C_16  and  O_22
REMARK    6  A    between atoms: C_17  and  O_21
REMARK    7  A    between atoms: O_22  and  C_23
REMARK                            x       y       z     vdW  Elec       q    Type
REMARK                         _______ _______ _______ _____ _____    ______ ____
ROOT
ATOM      1  C   UNL     1       1.347  -5.294   1.693  0.00  0.00    +0.072 C 
ATOM      2  C   UNL     1       1.217  -6.213   2.673  0.00  0.00    +0.027 C 
ENDROOT
BRANCH   1   9
ATOM      3  C   UNL     1      -0.402   0.200  -2.257  0.00  0.00    +0.044 C 
ATOM      4  C   UNL     1      -0.132  -1.223  -1.843  0.00  0.00    -0.048 A 
ATOM      5  C   UNL     1       0.353  -2.126  -2.805  0.00  0.00    +0.005 A 
ATOM      6  C   UNL     1       0.620  -3.417  -2.522  0.00  0.00    +0.027 A 
ATOM      7  C   UNL     1       0.403  -3.920  -1.158  0.00  0.00    +0.060 A 
ATOM      8  N   UNL     1       0.569  -5.088  -0.609  0.00  0.00    -0.359 N 
ATOM      9  C   UNL     1       0.176  -4.971   0.801  0.00  0.00    +0.216 C 
ATOM     10  N   UNL     1      -0.242  -3.578   1.001  0.00  0.00    -0.359 N 
ATOM     11  C   UNL     1      -0.111  -2.963  -0.139  0.00  0.00    +0.061 A 
ATOM     12  C   UNL     1      -0.361  -1.579  -0.563  0.00  0.00    +0.030 A 
ATOM     13  H   UNL     1       0.893  -5.888  -1.050  0.00  0.00    +0.162 HD
ATOM     14  H   UNL     1      -0.558  -3.187   1.830  0.00  0.00    +0.162 HD
ENDBRANCH   1   9
BRANCH   2  15
ATOM     15  C   UNL     1      -0.105  -6.781   2.976  0.00  0.00    -0.006 A 
ATOM     16  C   UNL     1      -1.235  -5.956   2.999  0.00  0.00    +0.058 A 
ATOM     17  C   UNL     1      -2.474  -6.495   3.285  0.00  0.00    +0.162 A 
ATOM     18  C   UNL     1      -2.597  -7.859   3.550  0.00  0.00    +0.160 A 
ATOM     19  C   UNL     1      -1.478  -8.679   3.527  0.00  0.00    +0.065 A 
ATOM     20  C   UNL     1      -0.237  -8.150   3.236  0.00  0.00    +0.029 A 
ATOM     21 BR   UNL     1       1.284  -9.273   3.199  0.00  0.00    -0.050 Br
BRANCH  18  22
ATOM     22  O   UNL     1      -3.817  -8.386   3.831  0.00  0.00    -0.503 OA
ATOM     23  H   UNL     1      -4.302  -8.694   3.052  0.00  0.00    +0.292 HD
ENDBRANCH  18  22
BRANCH  17  24
ATOM     24  O   UNL     1      -3.574  -5.696   3.308  0.00  0.00    -0.491 OA
ATOM     25  C   UNL     1      -3.374  -4.309   3.029  0.00  0.00    +0.277 C 
ENDBRANCH  17  24
ENDBRANCH   2  15
BRANCH   1  26
ATOM     26  C   UNL     1       2.599  -4.625   1.501  0.00  0.00    +0.099 C 
ATOM     27  N   UNL     1       3.592  -4.094   1.349  0.00  0.00    -0.191 NA
ENDBRANCH   1  26
TORSDOF 5
