REMARK  Name = ZINC19526389
REMARK  10 active torsions:
REMARK  status: ('A' for Active; 'I' for Inactive)
REMARK    1  A    between atoms: C_1  and  C_2
REMARK    2  A    between atoms: C_2  and  N_3
REMARK    3  A    between atoms: N_3  and  C_4
REMARK    4  A    between atoms: N_3  and  C_6
REMARK    5  A    between atoms: C_4  and  C_5
REMARK    6  A    between atoms: C_6  and  C_7
REMARK    7  A    between atoms: C_7  and  N_8
REMARK    8  A    between atoms: C_18  and  C_34
REMARK    9  A    between atoms: C_26  and  C_28
REMARK   10  A    between atoms: C_31  and  C_33
REMARK                            x       y       z     vdW  Elec       q    Type
REMARK                         _______ _______ _______ _____ _____    ______ ____
ROOT
ATOM      1  N   UNL     1       0.365   2.197   5.742  0.00  0.00    -0.272 N 
ATOM      2  C   UNL     1       0.930   3.446   5.985  0.00  0.00    +0.048 A 
ATOM      3  C   UNL     1       0.686   4.512   5.150  0.00  0.00    +0.024 A 
ATOM      4  C   UNL     1       1.274   5.733   5.421  0.00  0.00    +0.002 A 
ATOM      5  C   UNL     1       2.109   5.884   6.516  0.00  0.00    +0.001 A 
ATOM      6  C   UNL     1       2.363   4.818   7.355  0.00  0.00    +0.015 A 
ATOM      7  C   UNL     1       1.776   3.582   7.094  0.00  0.00    +0.058 A 
ATOM      8  C   UNL     1       2.016   2.417   7.963  0.00  0.00    +0.246 C 
ATOM      9  O   UNL     1       3.117   1.902   7.997  0.00  0.00    -0.270 OA
ATOM     10  N   UNL     1       1.019   1.921   8.717  0.00  0.00    -0.304 N 
ATOM     11  C   UNL     1      -0.229   2.647   8.899  0.00  0.00    +0.060 C 
ATOM     12  C   UNL     1       0.059   4.158   9.037  0.00  0.00    +0.134 C 
ATOM     13  N   UNL     1      -1.087   4.816   8.366  0.00  0.00    -0.298 N 
ATOM     14  C   UNL     1      -1.353   3.970   7.179  0.00  0.00    +0.122 C 
ATOM     15  C   UNL     1      -1.151   2.523   7.683  0.00  0.00    +0.117 C 
ATOM     16  C   UNL     1      -0.544   1.695   6.595  0.00  0.00    +0.226 C 
ATOM     17  O   UNL     1      -0.882   0.536   6.480  0.00  0.00    -0.275 OA
ATOM     18  C   UNL     1      -1.740   5.932   8.749  0.00  0.00    +0.219 C 
ATOM     19  O   UNL     1      -1.400   6.518   9.755  0.00  0.00    -0.275 OA
ATOM     20  C   UNL     1      -0.948   2.138  10.150  0.00  0.00    +0.034 C 
ATOM     21  H   UNL     1       1.164   0.945   9.203  0.00  0.00    +0.150 HD
ENDROOT
BRANCH  18  22
ATOM     22  C   UNL     1      -2.891   6.450   7.927  0.00  0.00    +0.078 C 
ATOM     23  C   UNL     1      -4.291   6.363   8.538  0.00  0.00    +0.017 C 
ATOM     24  C   UNL     1      -3.592   7.720   8.415  0.00  0.00    -0.002 C 
ATOM     25  C   UNL     1      -3.070   8.365   9.700  0.00  0.00    +0.008 C 
ENDBRANCH  18  22
BRANCH   1  26
ATOM     26  C   UNL     1       0.765   1.428   4.560  0.00  0.00    +0.095 C 
BRANCH  26  27
ATOM     27  C   UNL     1      -0.152   1.780   3.388  0.00  0.00    -0.059 C 
BRANCH  27  28
ATOM     28  N   UNL     1       0.165   0.917   2.242  0.00  0.00    +0.380 N 
ATOM     29  H   UNL     1       0.306  -0.106   2.619  0.00  0.00    -0.082 HD
BRANCH  28  31
ATOM     30  C   UNL     1       1.842   0.281   0.575  0.00  0.00    -0.017 C 
ATOM     31  C   UNL     1       1.415   1.338   1.596  0.00  0.00    -0.082 C 
ENDBRANCH  28  31
BRANCH  28  32
ATOM     32  C   UNL     1      -0.944   0.894   1.278  0.00  0.00    -0.082 C 
ATOM     33  C   UNL     1      -2.106   0.085   1.857  0.00  0.00    -0.017 C 
ENDBRANCH  28  32
ENDBRANCH  27  28
ENDBRANCH  26  27
ENDBRANCH   1  26
TORSDOF 6
