REMARK  Name = ZINC49121367
REMARK  4 active torsions:
REMARK  status: ('A' for Active; 'I' for Inactive)
REMARK    1  A    between atoms: C_1  and  C_2
REMARK    2  A    between atoms: C_2  and  C_3
REMARK    3  A    between atoms: C_9  and  N_11
REMARK    4  A    between atoms: C_12  and  C_17
REMARK                            x       y       z     vdW  Elec       q    Type
REMARK                         _______ _______ _______ _____ _____    ______ ____
ROOT
ATOM      1  N   UNL     1      -0.741  -2.444   1.374  0.00  0.00    -0.299 N 
ATOM      2  C   UNL     1       0.400  -3.218   1.471  0.00  0.00    +0.170 A 
ATOM      3  N   UNL     1       0.704  -3.350   2.735  0.00  0.00    -0.153 NA
ATOM      4  N   UNL     1      -0.253  -2.653   3.485  0.00  0.00    -0.254 N 
ATOM      5  C   UNL     1      -1.126  -2.101   2.619  0.00  0.00    +0.176 A 
ATOM      6  S   UNL     1      -2.483  -1.139   3.027  0.00  0.00    -0.011 S 
ATOM      7  H   UNL     1      -0.279  -2.578   4.452  0.00  0.00    +0.191 HD
ENDROOT
BRANCH   1  13
ATOM      8  C   UNL     1      -1.433  -0.534   0.013  0.00  0.00    +0.012 C 
ATOM      9  C   UNL     1      -2.135  -0.131  -1.286  0.00  0.00    +0.005 C 
ATOM     10  C   UNL     1      -3.571  -0.661  -1.275  0.00  0.00    +0.000 C 
ATOM     11  C   UNL     1      -3.551  -2.186  -1.157  0.00  0.00    +0.002 C 
ATOM     12  C   UNL     1      -2.849  -2.589   0.141  0.00  0.00    +0.025 C 
ATOM     13  C   UNL     1      -1.413  -2.059   0.130  0.00  0.00    +0.094 C 
BRANCH   8  15
ATOM     14  C   UNL     1      -0.019   1.526   0.010  0.00  0.00    +0.004 C 
ATOM     15  C   UNL     1       0.002  -0.004   0.002  0.00  0.00    +0.002 C 
ENDBRANCH   8  15
ENDBRANCH   1  13
BRANCH   2  16
ATOM     16  C   UNL     1       1.148  -3.795   0.341  0.00  0.00    +0.056 A 
ATOM     17  C   UNL     1       2.278  -4.572   0.359  0.00  0.00    +0.019 A 
ATOM     18  C   UNL     1       2.804  -5.002  -0.838  0.00  0.00    +0.008 A 
ATOM     19  C   UNL     1       2.191  -4.645  -1.997  0.00  0.00    +0.046 A 
ATOM     20  S   UNL     1       0.815  -3.672  -1.409  0.00  0.00    -0.094 S 
ENDBRANCH   2  16
TORSDOF 3
