REMARK  Name = ZINC05800457
REMARK  3 active torsions:
REMARK  status: ('A' for Active; 'I' for Inactive)
REMARK    1  A    between atoms: C_8  and  C_24
REMARK    2  A    between atoms: C_14  and  C_19
REMARK    3  A    between atoms: C_28  and  N_30
REMARK                            x       y       z     vdW  Elec       q    Type
REMARK                         _______ _______ _______ _____ _____    ______ ____
ROOT
ATOM      1  C   UNL     1      -0.294  -2.410   6.220  0.00  0.00    +0.002 A 
ATOM      2  C   UNL     1      -1.472  -2.248   5.514  0.00  0.00    +0.002 A 
ATOM      3  C   UNL     1      -1.627  -1.178   4.650  0.00  0.00    +0.025 A 
ATOM      4  C   UNL     1      -0.591  -0.273   4.497  0.00  0.00    +0.052 A 
ATOM      5  C   UNL     1       0.606  -0.456   5.175  0.00  0.00    +0.049 A 
ATOM      6  C   UNL     1       0.750  -1.516   6.055  0.00  0.00    +0.025 A 
ATOM      7  N   UNL     1       1.665   0.404   4.891  0.00  0.00    -0.331 N 
ATOM      8  C   UNL     1       2.278   0.427   3.580  0.00  0.00    +0.136 C 
ATOM      9  C   UNL     1       1.367   0.895   2.471  0.00  0.00    +0.036 C 
ATOM     10  C   UNL     1       0.037   1.065   2.562  0.00  0.00    +0.017 C 
ATOM     11  N   UNL     1      -0.696   0.848   3.684  0.00  0.00    -0.316 N 
ATOM     12  C   UNL     1      -0.763   1.543   1.361  0.00  0.00    +0.063 C 
ATOM     13  C   UNL     1      -0.123   1.033   0.072  0.00  0.00    +0.068 C 
ATOM     14  C   UNL     1       1.307   1.582   0.012  0.00  0.00    +0.091 C 
ATOM     15  C   UNL     1       2.035   1.151   1.250  0.00  0.00    +0.163 C 
ATOM     16  O   UNL     1       3.242   1.016   1.204  0.00  0.00    -0.292 OA
ATOM     17  H   UNL     1       1.998   0.996   5.584  0.00  0.00    +0.147 HD
ATOM     18  H   UNL     1      -1.341   1.527   3.936  0.00  0.00    +0.152 HD
ENDROOT
BRANCH   8  19
ATOM     19  C   UNL     1       2.755  -0.964   3.251  0.00  0.00    -0.021 A 
ATOM     20  C   UNL     1       4.100  -1.200   3.036  0.00  0.00    +0.006 A 
ATOM     21  C   UNL     1       4.539  -2.477   2.740  0.00  0.00    +0.003 A 
ATOM     22  C   UNL     1       3.631  -3.516   2.647  0.00  0.00    +0.033 A 
ATOM     23  C   UNL     1       2.285  -3.278   2.857  0.00  0.00    +0.127 A 
ATOM     24  C   UNL     1       1.847  -2.002   3.159  0.00  0.00    +0.038 A 
BRANCH  23  25
ATOM     25  N   UNL     1       1.313  -4.390   2.757  0.00  0.00    +0.056 N 
ATOM     26  O   UNL     1       0.128  -4.181   2.942  0.00  0.00    -0.126 OA
ATOM     27  O   UNL     1       1.699  -5.514   2.491  0.00  0.00    -0.126 OA
ENDBRANCH  23  25
ENDBRANCH   8  19
BRANCH  13  28
ATOM     28  C   UNL     1      -0.908   1.522  -1.118  0.00  0.00    +0.109 A 
ATOM     29  C   UNL     1      -1.498   0.746  -2.044  0.00  0.00    +0.045 A 
ATOM     30  C   UNL     1      -2.119   1.615  -2.972  0.00  0.00    +0.041 A 
ATOM     31  C   UNL     1      -1.870   2.870  -2.556  0.00  0.00    +0.195 A 
ATOM     32  O   UNL     1      -1.141   2.808  -1.430  0.00  0.00    -0.468 OA
ENDBRANCH  13  28
TORSDOF 3
