REMARK  Name = ZINC53649855
REMARK  10 active torsions:
REMARK  status: ('A' for Active; 'I' for Inactive)
REMARK    1  A    between atoms: C_1  and  C_2
REMARK    2  A    between atoms: C_2  and  C_3
REMARK    3  A    between atoms: C_2  and  C_4
REMARK    4  A    between atoms: C_2  and  N_5
REMARK    5  A    between atoms: N_5  and  C_6
REMARK    6  A    between atoms: C_6  and  C_7
REMARK    7  A    between atoms: N_12  and  C_13
REMARK    8  A    between atoms: C_13  and  C_14
REMARK    9  A    between atoms: C_19  and  O_20
REMARK   10  A    between atoms: O_20  and  C_21
REMARK                            x       y       z     vdW  Elec       q    Type
REMARK                         _______ _______ _______ _____ _____    ______ ____
ROOT
ATOM      1  C   UNL     1       2.971  -0.422  -2.613  0.00  0.00    -0.086 C 
ATOM      2  C   UNL     1       4.363   0.193  -2.865  0.00  0.00    -0.019 C 
ATOM      3  C   UNL     1       4.383   0.395  -4.403  0.00  0.00    -0.020 C 
ATOM      4  C   UNL     1       2.909   0.778  -4.688  0.00  0.00    -0.078 C 
ATOM      5  N   UNL     1       2.115  -0.057  -3.757  0.00  0.00    +0.383 N 
ATOM      6  H   UNL     1       1.315   0.464  -3.429  0.00  0.00    -0.081 HD
ENDROOT
BRANCH   1   7
ATOM      7  C   UNL     1       2.379   0.141  -1.319  0.00  0.00    -0.098 C 
BRANCH   7   8
ATOM      8  N   UNL     1       0.994  -0.325  -1.171  0.00  0.00    +0.381 N 
ATOM      9  H   UNL     1       0.980  -1.333  -1.137  0.00  0.00    -0.085 HD
ATOM     10  H   UNL     1       0.447  -0.007  -1.957  0.00  0.00    -0.085 HD
BRANCH   8  12
ATOM     11  C   UNL     1       0.448   1.745   0.019  0.00  0.00    -0.011 C 
ATOM     12  C   UNL     1       0.426   0.216   0.071  0.00  0.00    -0.077 C 
ATOM     13  C   UNL     1       1.256  -0.266   1.263  0.00  0.00    -0.011 C 
ATOM     14  C   UNL     1      -1.017  -0.269   0.226  0.00  0.00    -0.011 C 
ENDBRANCH   8  12
ENDBRANCH   7   8
ENDBRANCH   1   7
BRANCH   5  15
ATOM     15  C   UNL     1       1.661  -1.274  -4.443  0.00  0.00    -0.039 C 
BRANCH  15  16
ATOM     16  C   UNL     1       0.678  -0.904  -5.524  0.00  0.00    -0.021 A 
ATOM     17  C   UNL     1       1.067  -0.924  -6.849  0.00  0.00    +0.020 A 
ATOM     18  C   UNL     1       0.166  -0.585  -7.841  0.00  0.00    +0.018 A 
ATOM     19  C   UNL     1      -1.129  -0.225  -7.509  0.00  0.00    +0.019 A 
ATOM     20  C   UNL     1      -1.522  -0.204  -6.185  0.00  0.00    +0.047 A 
ATOM     21  C   UNL     1      -0.620  -0.549  -5.189  0.00  0.00    +0.122 A 
ATOM     22 BR   UNL     1       0.702  -0.613  -9.655  0.00  0.00    -0.050 Br
BRANCH  21  23
ATOM     23  O   UNL     1      -1.007  -0.534  -3.886  0.00  0.00    -0.495 OA
ATOM     24  C   UNL     1      -2.359  -0.158  -3.615  0.00  0.00    +0.277 C 
ENDBRANCH  21  23
ENDBRANCH  15  16
ENDBRANCH   5  15
TORSDOF 6
