REMARK  Name = ZINC11690116
REMARK  8 active torsions:
REMARK  status: ('A' for Active; 'I' for Inactive)
REMARK    1  A    between atoms: C_1  and  C_2
REMARK    2  A    between atoms: C_11  and  C_13
REMARK    3  A    between atoms: C_11  and  C_14
REMARK    4  A    between atoms: C_14  and  O_16
REMARK    5  A    between atoms: O_16  and  C_17
REMARK    6  A    between atoms: C_20  and  C_26
REMARK    7  A    between atoms: C_22  and  C_23
REMARK    8  A    between atoms: C_23  and  C_25
REMARK                            x       y       z     vdW  Elec       q    Type
REMARK                         _______ _______ _______ _____ _____    ______ ____
ROOT
ATOM      1  C   UNL     1       4.993   1.555   0.257  0.00  0.00    +0.044 C 
ATOM      2  C   UNL     1       3.650   2.207   0.051  0.00  0.00    -0.050 A 
ATOM      3  C   UNL     1       3.574   3.563  -0.217  0.00  0.00    +0.003 A 
ATOM      4  C   UNL     1       2.346   4.173  -0.405  0.00  0.00    +0.005 A 
ATOM      5  C   UNL     1       1.184   3.430  -0.329  0.00  0.00    -0.029 A 
ATOM      6  C   UNL     1       1.259   2.062  -0.064  0.00  0.00    +0.063 A 
ATOM      7  C   UNL     1       2.497   1.452   0.128  0.00  0.00    +0.018 A 
ATOM      8  C   UNL     1       0.011   1.267   0.012  0.00  0.00    +0.340 C 
ATOM      9  O   UNL     1       0.036   0.054   0.065  0.00  0.00    -0.245 OA
ATOM     10  O   UNL     1      -1.160   1.952   0.013  0.00  0.00    -0.443 OA
ATOM     11  C   UNL     1      -1.210   3.071  -0.915  0.00  0.00    +0.211 C 
ATOM     12  C   UNL     1      -0.149   4.101  -0.525  0.00  0.00    +0.095 C 
ATOM     13  C   UNL     1      -0.935   2.567  -2.333  0.00  0.00    +0.068 C 
ENDROOT
BRANCH  11  14
ATOM     14  C   UNL     1      -2.574   3.709  -0.863  0.00  0.00    +0.357 C 
ATOM     15  O   UNL     1      -2.688   4.904  -0.999  0.00  0.00    -0.246 OA
BRANCH  14  16
ATOM     16  O   UNL     1      -3.664   2.949  -0.667  0.00  0.00    -0.422 OA
BRANCH  16  17
ATOM     17  C   UNL     1      -4.848   3.595  -0.521  0.00  0.00    +0.142 A 
ATOM     18  C   UNL     1      -5.310   3.926   0.743  0.00  0.00    +0.047 A 
ATOM     19  C   UNL     1      -6.515   4.584   0.890  0.00  0.00    +0.007 A 
ATOM     20  C   UNL     1      -7.272   4.920  -0.221  0.00  0.00    -0.050 A 
ATOM     21  C   UNL     1      -6.831   4.600  -1.486  0.00  0.00    +0.018 A 
ATOM     22  C   UNL     1      -5.608   3.938  -1.651  0.00  0.00    +0.060 A 
ATOM     23  C   UNL     1      -8.585   5.639  -0.045  0.00  0.00    +0.044 C 
BRANCH  22  24
ATOM     24  C   UNL     1      -5.127   3.599  -2.997  0.00  0.00    +0.164 C 
ATOM     25  O   UNL     1      -4.069   3.022  -3.135  0.00  0.00    -0.292 OA
ATOM     26  C   UNL     1      -5.947   3.969  -4.205  0.00  0.00    +0.092 C 
ENDBRANCH  22  24
ENDBRANCH  16  17
ENDBRANCH  14  16
ENDBRANCH  11  14
TORSDOF 4
