REMARK  Name = ZINC12473341
REMARK  11 active torsions:
REMARK  status: ('A' for Active; 'I' for Inactive)
REMARK    1  A    between atoms: C_1  and  C_2
REMARK    2  A    between atoms: C_5  and  N_8
REMARK    3  A    between atoms: C_9  and  C_11
REMARK    4  A    between atoms: C_11  and  S_12
REMARK    5  A    between atoms: S_12  and  C_14
REMARK    6  A    between atoms: C_14  and  C_15
REMARK    7  A    between atoms: N_17  and  C_18
REMARK    8  A    between atoms: N_17  and  C_28
REMARK    9  A    between atoms: C_28  and  C_30
REMARK   10  A    between atoms: C_28  and  C_31
REMARK   11  A    between atoms: N_33  and  C_34
REMARK                            x       y       z     vdW  Elec       q    Type
REMARK                         _______ _______ _______ _____ _____    ______ ____
ROOT
ATOM      1  C   UNL     1       0.786  -9.460   3.837  0.00  0.00    +0.233 C 
ATOM      2  O   UNL     1       0.817  -8.702   4.783  0.00  0.00    -0.274 OA
ATOM      3  N   UNL     1       0.760 -10.792   4.041  0.00  0.00    -0.259 N 
ENDROOT
BRANCH   3   4
ATOM      4  C   UNL     1       0.724 -11.666   2.949  0.00  0.00    +0.041 A 
ATOM      5  C   UNL     1      -0.494 -12.133   2.480  0.00  0.00    +0.024 A 
ATOM      6  C   UNL     1      -0.527 -12.997   1.403  0.00  0.00    +0.002 A 
ATOM      7  C   UNL     1       0.651 -13.392   0.803  0.00  0.00    +0.004 A 
ATOM      8  C   UNL     1       1.875 -12.929   1.271  0.00  0.00    -0.042 A 
ATOM      9  C   UNL     1       1.913 -12.059   2.336  0.00  0.00    -0.023 A 
ATOM     10  C   UNL     1       3.202 -11.500   2.881  0.00  0.00    +0.037 C 
ATOM     11  C   UNL     1       4.391 -12.333   2.408  0.00  0.00    +0.005 C 
ATOM     12  C   UNL     1       4.300 -12.487   0.886  0.00  0.00    +0.005 C 
ATOM     13  C   UNL     1       3.119 -13.410   0.571  0.00  0.00    +0.035 C 
ENDBRANCH   3   4
BRANCH   3  14
ATOM     14  C   UNL     1       0.770 -11.324   5.406  0.00  0.00    +0.164 C 
ATOM     15  C   UNL     1       1.896 -12.351   5.545  0.00  0.00    +0.038 C 
BRANCH  14  16
ATOM     16  C   UNL     1      -0.552 -11.986   5.696  0.00  0.00    +0.234 C 
ATOM     17  O   UNL     1      -1.383 -12.094   4.818  0.00  0.00    -0.274 OA
ATOM     18  N   UNL     1      -0.813 -12.459   6.931  0.00  0.00    -0.311 N 
ATOM     19  H   UNL     1      -0.149 -12.373   7.633  0.00  0.00    +0.149 HD
BRANCH  18  20
ATOM     20  C   UNL     1      -2.098 -13.103   7.214  0.00  0.00    +0.073 C 
ATOM     21  C   UNL     1      -3.138 -12.044   7.636  0.00  0.00    +0.022 C 
ATOM     22  C   UNL     1      -3.974 -12.750   8.732  0.00  0.00    +0.002 C 
ATOM     23  C   UNL     1      -2.909 -13.571   9.500  0.00  0.00    +0.002 C 
ATOM     24  C   UNL     1      -1.952 -14.073   8.399  0.00  0.00    +0.022 C 
ENDBRANCH  18  20
ENDBRANCH  14  16
ENDBRANCH   3  14
BRANCH   1  25
ATOM     25  C   UNL     1       0.776  -8.913   2.433  0.00  0.00    +0.200 C 
BRANCH  25  26
ATOM     26  S   UNL     1       0.816  -7.100   2.490  0.00  0.00    +0.040 S 
ATOM     27  O   UNL     1      -0.359  -6.620   3.130  0.00  0.00    -0.256 OA
BRANCH  26  28
ATOM     28  C   UNL     1       0.799  -6.605   0.745  0.00  0.00    +0.200 C 
BRANCH  28  30
ATOM     29  N   UNL     1       0.825  -4.503  -0.559  0.00  0.00    -0.285 N 
ATOM     30  C   UNL     1       0.831  -5.101   0.649  0.00  0.00    +0.230 C 
ATOM     31  O   UNL     1       0.861  -4.430   1.658  0.00  0.00    -0.274 OA
ATOM     32  H   UNL     1       0.717  -5.035  -1.363  0.00  0.00    +0.155 HD
BRANCH  29  37
ATOM     33  C   UNL     1       1.432   1.125  -0.940  0.00  0.00    +0.044 C 
ATOM     34  C   UNL     1       1.270  -0.370  -0.839  0.00  0.00    -0.050 A 
ATOM     35  C   UNL     1       1.922  -1.069   0.161  0.00  0.00    +0.005 A 
ATOM     36  C   UNL     1       1.777  -2.438   0.257  0.00  0.00    +0.023 A 
ATOM     37  C   UNL     1       0.974  -3.115  -0.652  0.00  0.00    +0.033 A 
ATOM     38  C   UNL     1       0.320  -2.411  -1.655  0.00  0.00    +0.023 A 
ATOM     39  C   UNL     1       0.466  -1.040  -1.742  0.00  0.00    +0.005 A 
ENDBRANCH  29  37
ENDBRANCH  28  30
ENDBRANCH  26  28
ENDBRANCH  25  26
ENDBRANCH   1  25
TORSDOF 9
