REMARK  Name = ZINC36207663
REMARK  13 active torsions:
REMARK  status: ('A' for Active; 'I' for Inactive)
REMARK    1  A    between atoms: C_1  and  C_2
REMARK    2  A    between atoms: C_7  and  C_8
REMARK    3  A    between atoms: C_17  and  C_19
REMARK    4  A    between atoms: C_19  and  N_20
REMARK    5  A    between atoms: N_20  and  C_21
REMARK    6  A    between atoms: N_20  and  C_28
REMARK    7  A    between atoms: C_21  and  C_22
REMARK    8  A    between atoms: C_28  and  C_29
REMARK    9  A    between atoms: C_29  and  C_31
REMARK   10  A    between atoms: C_29  and  O_36
REMARK   11  A    between atoms: C_31  and  O_32
REMARK   12  A    between atoms: O_32  and  C_33
REMARK   13  A    between atoms: C_33  and  C_34
REMARK                            x       y       z     vdW  Elec       q    Type
REMARK                         _______ _______ _______ _____ _____    ______ ____
ROOT
ATOM      1  C   UNL     1      -3.772   3.470   4.393  0.00  0.00    -0.003 C 
ENDROOT
BRANCH   1  11
ATOM      2  C   UNL     1       1.188   1.469   2.422  0.00  0.00    +0.004 A 
ATOM      3  C   UNL     1       2.162   1.477   3.364  0.00  0.00    +0.056 A 
ATOM      4  S   UNL     1       1.340   2.137   4.802  0.00  0.00    -0.076 S 
ATOM      5  C   UNL     1      -0.276   2.384   4.111  0.00  0.00    +0.116 A 
ATOM      6  C   UNL     1      -0.139   1.955   2.781  0.00  0.00    +0.080 A 
ATOM      7  C   UNL     1      -1.317   2.051   1.974  0.00  0.00    +0.260 A 
ATOM      8  O   UNL     1      -1.299   1.698   0.808  0.00  0.00    -0.267 OA
ATOM      9  N   UNL     1      -2.446   2.536   2.524  0.00  0.00    -0.312 N 
ATOM     10  H   UNL     1      -3.248   2.603   1.982  0.00  0.00    +0.170 HD
ATOM     11  C   UNL     1      -2.485   2.933   3.821  0.00  0.00    +0.094 A 
ATOM     12  N   UNL     1      -1.429   2.849   4.585  0.00  0.00    -0.229 NA
BRANCH   2  19
ATOM     13  C   UNL     1       1.056   3.308   0.193  0.00  0.00    +0.044 C 
ATOM     14  C   UNL     1       1.407   1.860  -0.030  0.00  0.00    -0.043 A 
ATOM     15  C   UNL     1       1.675   1.401  -1.304  0.00  0.00    +0.004 A 
ATOM     16  C   UNL     1       1.998   0.072  -1.510  0.00  0.00    +0.000 A 
ATOM     17  C   UNL     1       2.054  -0.805  -0.442  0.00  0.00    +0.001 A 
ATOM     18  C   UNL     1       1.788  -0.358   0.836  0.00  0.00    +0.009 A 
ATOM     19  C   UNL     1       1.469   0.982   1.051  0.00  0.00    -0.014 A 
ENDBRANCH   2  19
ENDBRANCH   1  11
BRANCH   1  20
ATOM     20  N   UNL     1      -3.611   3.691   5.837  0.00  0.00    +0.389 N 
ATOM     21  H   UNL     1      -2.798   4.265   6.001  0.00  0.00    -0.081 HD
BRANCH  20  22
ATOM     22  C   UNL     1      -3.442   2.398   6.514  0.00  0.00    -0.042 C 
BRANCH  22  23
ATOM     23  C   UNL     1      -4.568   1.475   6.123  0.00  0.00    -0.064 A 
ATOM     24  C   UNL     1      -5.771   1.527   6.801  0.00  0.00    +0.002 A 
ATOM     25  C   UNL     1      -6.803   0.680   6.443  0.00  0.00    +0.000 A 
ATOM     26  C   UNL     1      -6.633  -0.218   5.406  0.00  0.00    +0.000 A 
ATOM     27  C   UNL     1      -5.429  -0.269   4.727  0.00  0.00    +0.000 A 
ATOM     28  C   UNL     1      -4.399   0.581   5.083  0.00  0.00    +0.002 A 
ENDBRANCH  22  23
ENDBRANCH  20  22
BRANCH  20  29
ATOM     29  C   UNL     1      -4.804   4.367   6.364  0.00  0.00    -0.044 C 
BRANCH  29  30
ATOM     30  C   UNL     1      -4.447   5.091   7.663  0.00  0.00    +0.124 C 
BRANCH  30  31
ATOM     31  O   UNL     1      -3.986   4.142   8.627  0.00  0.00    -0.391 OA
ATOM     32  H   UNL     1      -4.633   3.455   8.843  0.00  0.00    +0.210 HD
ENDBRANCH  30  31
BRANCH  30  33
ATOM     33  C   UNL     1      -5.685   5.808   8.205  0.00  0.00    +0.190 C 
BRANCH  33  34
ATOM     34  O   UNL     1      -5.326   6.578   9.354  0.00  0.00    -0.365 OA
BRANCH  34  35
ATOM     35  C   UNL     1      -6.417   7.291   9.940  0.00  0.00    +0.248 C 
BRANCH  35  36
ATOM     36  C   UNL     1      -5.937   8.047  11.109  0.00  0.00    -0.077 C 
ATOM     37  C   UNL     1      -5.555   8.649  12.041  0.00  0.00    +0.006 C 
ENDBRANCH  35  36
ENDBRANCH  34  35
ENDBRANCH  33  34
ENDBRANCH  30  33
ENDBRANCH  29  30
ENDBRANCH  20  29
ENDBRANCH   1  20
TORSDOF 12
