REMARK  Name = ZINC39654159
REMARK  7 active torsions:
REMARK  status: ('A' for Active; 'I' for Inactive)
REMARK    1  A    between atoms: C_1  and  C_2
REMARK    2  A    between atoms: C_2  and  C_3
REMARK    3  A    between atoms: C_6  and  C_9
REMARK    4  A    between atoms: C_9  and  C_10
REMARK    5  A    between atoms: C_10  and  N_11
REMARK    6  A    between atoms: C_12  and  C_14
REMARK    7  A    between atoms: C_25  and  C_27
REMARK                            x       y       z     vdW  Elec       q    Type
REMARK                         _______ _______ _______ _____ _____    ______ ____
ROOT
ATOM      1  C   UNL     1       5.430  -0.495  -8.373  0.00  0.00    +0.100 C 
ATOM      2  C   UNL     1       6.675  -1.404  -8.269  0.00  0.00    +0.121 C 
ATOM      3  N   UNL     1       7.532  -0.996  -9.406  0.00  0.00    -0.296 N 
ATOM      4  C   UNL     1       7.395   0.480  -9.461  0.00  0.00    +0.115 C 
ATOM      5  C   UNL     1       5.907   0.740  -9.154  0.00  0.00    -0.004 C 
ATOM      6  C   UNL     1       5.756   1.996  -8.301  0.00  0.00    -0.010 C 
ATOM      7  C   UNL     1       6.182   3.218  -9.120  0.00  0.00    -0.082 C 
ATOM      8  N   UNL     1       5.348   3.317 -10.324  0.00  0.00    +0.379 N 
ATOM      9  C   UNL     1       5.569   2.148 -11.184  0.00  0.00    -0.082 C 
ATOM     10  C   UNL     1       5.117   0.881 -10.452  0.00  0.00    -0.010 C 
ATOM     11  C   UNL     1       8.270  -1.787 -10.210  0.00  0.00    +0.247 C 
ATOM     12  O   UNL     1       8.180  -2.996 -10.122  0.00  0.00    -0.270 OA
ATOM     13  H   UNL     1       4.376   3.357 -10.056  0.00  0.00    -0.086 HD
ATOM     14  H   UNL     1       5.588   4.156 -10.831  0.00  0.00    -0.086 HD
ENDROOT
BRANCH  11  15
ATOM     15  C   UNL     1       9.189  -1.184 -11.199  0.00  0.00    +0.038 A 
ATOM     16  C   UNL     1       9.629   0.131 -11.036  0.00  0.00    +0.014 A 
ATOM     17  C   UNL     1      10.486   0.688 -11.962  0.00  0.00    +0.022 A 
ATOM     18  C   UNL     1      10.910  -0.053 -13.052  0.00  0.00    +0.059 A 
ATOM     19  C   UNL     1      10.476  -1.359 -13.220  0.00  0.00    +0.060 A 
ATOM     20  C   UNL     1       9.623  -1.929 -12.296  0.00  0.00    +0.034 A 
ATOM     21 CL   UNL     1      11.013  -2.281 -14.589  0.00  0.00    -0.082 Cl
ATOM     22 CL   UNL     1      11.988   0.656 -14.213  0.00  0.00    -0.082 Cl
ENDBRANCH  11  15
BRANCH   1  24
ATOM     23  N   UNL     1       3.648   0.147  -6.781  0.00  0.00    -0.315 N 
ATOM     24  C   UNL     1       4.956  -0.096  -6.999  0.00  0.00    +0.218 C 
ATOM     25  O   UNL     1       5.751   0.007  -6.089  0.00  0.00    -0.275 OA
ATOM     26  H   UNL     1       3.012   0.065  -7.509  0.00  0.00    +0.149 HD
BRANCH  23  27
ATOM     27  C   UNL     1       3.187   0.535  -5.446  0.00  0.00    +0.109 C 
BRANCH  27  28
ATOM     28  C   UNL     1       1.673   0.750  -5.471  0.00  0.00    +0.054 C 
BRANCH  28  32
ATOM     29  C   UNL     1       0.327   1.881  -1.578  0.00  0.00    -0.048 A 
ATOM     30  C   UNL     1       0.714   2.851  -2.485  0.00  0.00    +0.004 A 
ATOM     31  C   UNL     1       1.149   2.485  -3.745  0.00  0.00    +0.004 A 
ATOM     32  C   UNL     1       1.199   1.149  -4.098  0.00  0.00    -0.046 A 
ATOM     33  C   UNL     1       0.813   0.180  -3.191  0.00  0.00    +0.004 A 
ATOM     34  C   UNL     1       0.381   0.546  -1.930  0.00  0.00    +0.004 A 
BRANCH  29  36
ATOM     35  C   UNL     1       1.046   2.342   0.750  0.00  0.00    +0.009 C 
ATOM     36  C   UNL     1      -0.148   2.281  -0.205  0.00  0.00    +0.032 C 
ENDBRANCH  29  36
ENDBRANCH  28  32
ENDBRANCH  27  28
ENDBRANCH  23  27
ENDBRANCH   1  24
TORSDOF 6
