REMARK  Name = ZINC08927674
REMARK  7 active torsions:
REMARK  status: ('A' for Active; 'I' for Inactive)
REMARK    1  A    between atoms: C_1  and  O_2
REMARK    2  A    between atoms: O_2  and  C_3
REMARK    3  A    between atoms: C_6  and  S_9
REMARK    4  A    between atoms: S_9  and  N_12
REMARK    5  A    between atoms: C_16  and  C_18
REMARK    6  A    between atoms: N_20  and  C_21
REMARK    7  A    between atoms: C_26  and  C_27
REMARK                            x       y       z     vdW  Elec       q    Type
REMARK                         _______ _______ _______ _____ _____    ______ ____
ROOT
ATOM      1  C   UNL     1       3.326   0.309  -0.070  0.00  0.00    +0.236 C 
ATOM      2  O   UNL     1       3.463  -0.846  -0.415  0.00  0.00    -0.274 OA
ATOM      3  N   UNL     1       4.229   1.236  -0.445  0.00  0.00    -0.284 N 
ATOM      4  H   UNL     1       4.160   2.144  -0.111  0.00  0.00    +0.155 HD
ENDROOT
BRANCH   3   5
ATOM      5  C   UNL     1       5.264   0.889  -1.315  0.00  0.00    +0.043 A 
ATOM      6  C   UNL     1       5.065  -0.086  -2.282  0.00  0.00    +0.024 A 
ATOM      7  C   UNL     1       6.088  -0.424  -3.145  0.00  0.00    +0.002 A 
ATOM      8  C   UNL     1       7.321   0.199  -3.047  0.00  0.00    +0.001 A 
ATOM      9  C   UNL     1       7.538   1.167  -2.089  0.00  0.00    +0.012 A 
ATOM     10  C   UNL     1       6.511   1.522  -1.213  0.00  0.00    +0.028 A 
BRANCH  10  11
ATOM     11  C   UNL     1       6.737   2.557  -0.184  0.00  0.00    +0.111 A 
ATOM     12  N   UNL     1       7.800   3.307   0.012  0.00  0.00    -0.239 NA
ATOM     13  C   UNL     1       7.868   4.221   1.000  0.00  0.00    +0.079 A 
ATOM     14  C   UNL     1       8.942   5.087   1.317  0.00  0.00    +0.029 A 
ATOM     15  C   UNL     1       8.850   5.960   2.356  0.00  0.00    +0.002 A 
ATOM     16  C   UNL     1       7.709   6.039   3.142  0.00  0.00    +0.001 A 
ATOM     17  C   UNL     1       6.636   5.212   2.866  0.00  0.00    +0.017 A 
ATOM     18  C   UNL     1       6.719   4.327   1.819  0.00  0.00    +0.040 A 
ATOM     19  S   UNL     1       5.633   3.115   1.106  0.00  0.00    -0.067 S 
ENDBRANCH  10  11
ENDBRANCH   3   5
BRANCH   1  24
ATOM     20  N   UNL     1       1.689  -0.444   1.571  0.00  0.00    -0.165 NA
ATOM     21  C   UNL     1       0.302  -0.762   1.186  0.00  0.00    +0.110 C 
ATOM     22  C   UNL     1      -0.265   0.562   0.616  0.00  0.00    +0.019 C 
ATOM     23  C   UNL     1       0.971   1.137  -0.124  0.00  0.00    +0.031 C 
ATOM     24  C   UNL     1       2.146   0.707   0.779  0.00  0.00    +0.166 C 
BRANCH  20  25
ATOM     25  S   UNL     1       2.583  -1.249   2.709  0.00  0.00    +0.062 S 
ATOM     26  O   UNL     1       2.119  -2.592   2.716  0.00  0.00    -0.153 OA
ATOM     27  O   UNL     1       3.943  -0.915   2.468  0.00  0.00    -0.153 OA
BRANCH  25  31
ATOM     28  C   UNL     1       1.515   0.510   6.743  0.00  0.00    +0.120 A 
ATOM     29  C   UNL     1       0.867  -0.629   6.288  0.00  0.00    +0.047 A 
ATOM     30  C   UNL     1       1.195  -1.164   5.057  0.00  0.00    +0.032 A 
ATOM     31  C   UNL     1       2.168  -0.565   4.279  0.00  0.00    +0.106 A 
ATOM     32  C   UNL     1       2.819   0.568   4.732  0.00  0.00    +0.032 A 
ATOM     33  C   UNL     1       2.491   1.109   5.960  0.00  0.00    +0.047 A 
BRANCH  28  35
ATOM     34  C   UNL     1       1.902   2.212   8.357  0.00  0.00    +0.277 C 
ATOM     35  O   UNL     1       1.194   1.038   7.953  0.00  0.00    -0.495 OA
ENDBRANCH  28  35
ENDBRANCH  25  31
ENDBRANCH  20  25
ENDBRANCH   1  24
TORSDOF 6
