REMARK  Name = ZINC13065078
REMARK  14 active torsions:
REMARK  status: ('A' for Active; 'I' for Inactive)
REMARK    1  A    between atoms: C_1  and  C_2
REMARK    2  A    between atoms: C_2  and  C_3
REMARK    3  A    between atoms: C_3  and  C_5
REMARK    4  A    between atoms: C_3  and  N_70
REMARK    5  A    between atoms: N_9  and  C_10
REMARK    6  A    between atoms: C_10  and  C_11
REMARK    7  A    between atoms: C_14  and  O_17
REMARK    8  A    between atoms: O_17  and  C_18
REMARK    9  A    between atoms: C_19  and  C_20
REMARK   10  A    between atoms: C_19  and  N_70
REMARK   11  A    between atoms: C_25  and  C_26
REMARK   12  A    between atoms: C_25  and  N_70
REMARK   13  A    between atoms: C_31  and  C_39
REMARK   14  A    between atoms: C_32  and  C_38
REMARK                            x       y       z     vdW  Elec       q    Type
REMARK                         _______ _______ _______ _____ _____    ______ ____
ROOT
ATOM      1  N   UNL     1       1.163   1.865   2.577  0.00  0.00    +0.392 N 
ATOM      2  H   UNL     1       1.093   2.890   2.590  0.00  0.00    -0.080 HD
ENDROOT
BRANCH   1   3
ATOM      3  C   UNL     1      -0.190   1.294   2.412  0.00  0.00    +0.003 C 
BRANCH   3   4
ATOM      4  C   UNL     1      -1.028   1.662   3.610  0.00  0.00    +0.138 A 
ATOM      5  N   UNL     1      -1.091   2.836   4.189  0.00  0.00    -0.115 NA
ATOM      6  N   UNL     1      -1.916   2.748   5.176  0.00  0.00    -0.023 NA
ATOM      7  N   UNL     1      -2.379   1.549   5.240  0.00  0.00    -0.044 NA
ATOM      8  N   UNL     1      -1.860   0.851   4.288  0.00  0.00    -0.226 N 
BRANCH   8   9
ATOM      9  C   UNL     1      -2.124  -0.562   4.002  0.00  0.00    +0.182 C 
BRANCH   9  10
ATOM     10  C   UNL     1      -1.147  -1.420   4.764  0.00  0.00    -0.026 A 
ATOM     11  C   UNL     1       0.059  -1.772   4.188  0.00  0.00    +0.009 A 
ATOM     12  C   UNL     1       0.958  -2.554   4.887  0.00  0.00    +0.046 A 
ATOM     13  C   UNL     1       0.644  -2.995   6.164  0.00  0.00    +0.120 A 
ATOM     14  C   UNL     1      -0.569  -2.645   6.739  0.00  0.00    +0.046 A 
ATOM     15  C   UNL     1      -1.462  -1.858   6.037  0.00  0.00    +0.009 A 
BRANCH  13  16
ATOM     16  O   UNL     1       1.525  -3.769   6.852  0.00  0.00    -0.495 OA
ATOM     17  C   UNL     1       2.755  -4.090   6.199  0.00  0.00    +0.277 C 
ENDBRANCH  13  16
ENDBRANCH   9  10
ENDBRANCH   8   9
ENDBRANCH   3   4
BRANCH   3  19
ATOM     18  C   UNL     1      -2.201   1.249   0.929  0.00  0.00    +0.002 C 
ATOM     19  C   UNL     1      -0.824   1.879   1.148  0.00  0.00    -0.011 C 
ENDBRANCH   3  19
ENDBRANCH   1   3
BRANCH   1  20
ATOM     20  C   UNL     1       1.752   1.408   3.853  0.00  0.00    -0.034 C 
BRANCH  20  21
ATOM     21  C   UNL     1       2.965   2.249   4.156  0.00  0.00    -0.027 A 
ATOM     22  C   UNL     1       3.060   3.364   4.920  0.00  0.00    +0.009 A 
ATOM     23  C   UNL     1       4.291   3.978   5.059  0.00  0.00    +0.008 A 
ATOM     24  C   UNL     1       5.366   3.447   4.427  0.00  0.00    +0.045 A 
ATOM     25  S   UNL     1       4.650   2.032   3.608  0.00  0.00    -0.103 S 
ENDBRANCH  20  21
ENDBRANCH   1  20
BRANCH   1  26
ATOM     26  C   UNL     1       2.025   1.458   1.447  0.00  0.00    -0.036 C 
BRANCH  26  27
ATOM     27  C   UNL     1       2.002  -0.040   1.280  0.00  0.00    +0.001 A 
ATOM     28  C   UNL     1       1.128  -0.610   0.413  0.00  0.00    +0.017 A 
ATOM     29  C   UNL     1       1.135  -2.067   0.271  0.00  0.00    -0.001 A 
ATOM     30  C   UNL     1       0.261  -2.711  -0.611  0.00  0.00    +0.010 A 
ATOM     31  C   UNL     1       0.288  -4.073  -0.718  0.00  0.00    +0.004 A 
ATOM     32  C   UNL     1       1.176  -4.823   0.041  0.00  0.00    -0.046 A 
ATOM     33  C   UNL     1       2.047  -4.209   0.916  0.00  0.00    -0.024 A 
ATOM     34  C   UNL     1       2.037  -2.824   1.042  0.00  0.00    +0.052 A 
ATOM     35  N   UNL     1       2.897  -2.184   1.908  0.00  0.00    -0.322 N 
ATOM     36  H   UNL     1       3.518  -2.707   2.439  0.00  0.00    +0.169 HD
ATOM     37  C   UNL     1       2.886  -0.845   2.029  0.00  0.00    +0.251 A 
ATOM     38  O   UNL     1       3.661  -0.312   2.806  0.00  0.00    -0.268 OA
ATOM     39  C   UNL     1       3.006  -5.036   1.733  0.00  0.00    +0.046 C 
ATOM     40  C   UNL     1       1.189  -6.324  -0.093  0.00  0.00    +0.044 C 
ENDBRANCH  26  27
ENDBRANCH   1  26
TORSDOF 10
