REMARK  Name = ZINC03840961
REMARK  10 active torsions:
REMARK  status: ('A' for Active; 'I' for Inactive)
REMARK    1  A    between atoms: C_1  and  C_2
REMARK    2  A    between atoms: C_10  and  C_12
REMARK    3  A    between atoms: C_12  and  N_71
REMARK    4  A    between atoms: C_13  and  N_71
REMARK    5  A    between atoms: C_14  and  N_71
REMARK    6  A    between atoms: C_16  and  C_37
REMARK    7  A    between atoms: C_19  and  O_36
REMARK    8  A    between atoms: C_21  and  C_25
REMARK    9  A    between atoms: C_25  and  C_27
REMARK   10  A    between atoms: C_25  and  C_28
REMARK                            x       y       z     vdW  Elec       q    Type
REMARK                         _______ _______ _______ _____ _____    ______ ____
ROOT
ATOM      1  C   UNL     1      -2.579   3.029  -2.538  0.00  0.00    +0.014 C 
ATOM      2  C   UNL     1      -1.882   1.997  -3.428  0.00  0.00    +0.042 C 
ATOM      3  C   UNL     1      -2.474   2.054  -4.830  0.00  0.00    +0.057 A 
ATOM      4  C   UNL     1      -2.708   0.909  -5.521  0.00  0.00    +0.015 A 
ATOM      5  S   UNL     1      -3.376   1.505  -7.050  0.00  0.00    -0.057 S 
ATOM      6  C   UNL     1      -3.299   3.200  -6.668  0.00  0.00    +0.165 A 
ATOM      7  N   UNL     1      -2.790   3.186  -5.454  0.00  0.00    -0.229 NA
ATOM      8  N   UNL     1      -3.677   4.288  -7.445  0.00  0.00    -0.266 N 
ATOM      9  C   UNL     1      -4.183   4.093  -8.679  0.00  0.00    +0.202 C 
ATOM     10  O   UNL     1      -4.309   2.966  -9.111  0.00  0.00    -0.277 OA
ATOM     11  C   UNL     1      -2.457  -0.491  -5.076  0.00  0.00    +0.051 C 
ATOM     12  C   UNL     1      -1.576  -0.464  -3.825  0.00  0.00    -0.022 C 
ATOM     13  C   UNL     1      -2.091   0.596  -2.845  0.00  0.00    +0.033 C 
ATOM     14  C   UNL     1      -1.254   0.488  -1.559  0.00  0.00    +0.123 C 
ATOM     15  C   UNL     1       0.206   0.799  -1.897  0.00  0.00    +0.029 C 
ATOM     16  C   UNL     1       0.731  -0.205  -2.924  0.00  0.00    +0.007 C 
ATOM     17  C   UNL     1      -0.127  -0.147  -4.191  0.00  0.00    +0.008 C 
ATOM     18  C   UNL     1      -1.637  -1.839  -3.159  0.00  0.00    +0.012 C 
ATOM     19  H   UNL     1      -3.577   5.189  -7.099  0.00  0.00    +0.157 HD
ENDROOT
BRANCH  15  20
ATOM     20  C   UNL     1       1.052   0.711  -0.624  0.00  0.00    +0.078 C 
ATOM     21  C   UNL     1       0.537   1.725   0.400  0.00  0.00    +0.017 C 
BRANCH  20  22
ATOM     22  C   UNL     1       2.490   1.016  -0.954  0.00  0.00    +0.219 C 
ATOM     23  O   UNL     1       2.764   1.617  -1.972  0.00  0.00    -0.275 OA
ATOM     24  N   UNL     1       3.471   0.623  -0.119  0.00  0.00    -0.300 N 
ATOM     25  C   UNL     1       4.856   1.007  -0.398  0.00  0.00    +0.118 C 
ATOM     26  C   UNL     1       5.350   1.955   0.707  0.00  0.00    +0.088 C 
ATOM     27  S   UNL     1       5.178   1.117   2.311  0.00  0.00    -0.158 S 
ATOM     28  C   UNL     1       3.431   0.611   2.328  0.00  0.00    +0.088 C 
ATOM     29  C   UNL     1       3.141  -0.189   1.053  0.00  0.00    +0.118 C 
ENDBRANCH  20  22
ENDBRANCH  15  20
BRANCH  14  30
ATOM     30  O   UNL     1      -1.353  -0.836  -1.031  0.00  0.00    -0.391 OA
ATOM     31  H   UNL     1      -0.838  -0.978  -0.225  0.00  0.00    +0.210 HD
ENDBRANCH  14  30
BRANCH   9  32
ATOM     32  C   UNL     1      -4.593   5.273  -9.521  0.00  0.00    +0.018 C 
BRANCH  32  35
ATOM     33  C   UNL     1      -6.358   4.045 -10.634  0.00  0.00    -0.096 C 
ATOM     34  C   UNL     1      -5.297   5.915 -11.747  0.00  0.00    -0.096 C 
ATOM     35  N   UNL     1      -5.090   4.780 -10.823  0.00  0.00    +0.382 N 
ATOM     36  H   UNL     1      -4.393   4.144 -11.227  0.00  0.00    -0.082 HD
ENDBRANCH  32  35
ENDBRANCH   9  32
TORSDOF 5
