REMARK  Name = ZINC36112800
REMARK  10 active torsions:
REMARK  status: ('A' for Active; 'I' for Inactive)
REMARK    1  A    between atoms: C_1  and  C_2
REMARK    2  A    between atoms: C_2  and  O_3
REMARK    3  A    between atoms: O_3  and  C_4
REMARK    4  A    between atoms: C_6  and  C_12
REMARK    5  A    between atoms: C_9  and  O_10
REMARK    6  A    between atoms: C_12  and  C_14
REMARK    7  A    between atoms: C_12  and  N_16
REMARK    8  A    between atoms: C_14  and  N_15
REMARK    9  A    between atoms: C_18  and  C_25
REMARK   10  A    between atoms: C_21  and  C_24
REMARK                            x       y       z     vdW  Elec       q    Type
REMARK                         _______ _______ _______ _____ _____    ______ ____
ROOT
ATOM      1  C   UNL     1      -0.218  -4.962  -0.536  0.00  0.00    +0.070 C 
ENDROOT
BRANCH   1   2
ATOM      2  N   UNL     1      -0.735  -6.172   0.118  0.00  0.00    -0.292 NA
ATOM      3  C   UNL     1       0.260  -6.737   1.041  0.00  0.00    +0.116 C 
ATOM      4  C   UNL     1      -0.295  -8.026   1.654  0.00  0.00    +0.130 C 
ATOM      5  O   UNL     1      -1.537  -7.742   2.305  0.00  0.00    -0.371 OA
ATOM      6  C   UNL     1      -2.529  -7.190   1.435  0.00  0.00    +0.130 C 
ATOM      7  C   UNL     1      -1.997  -5.893   0.820  0.00  0.00    +0.116 C 
ATOM      8  C   UNL     1      -2.848  -8.191   0.323  0.00  0.00    +0.039 C 
ATOM      9  C   UNL     1       0.702  -8.577   2.675  0.00  0.00    +0.039 C 
ENDBRANCH   1   2
BRANCH   1  12
ATOM     10  C   UNL     1       1.504  -3.149   2.296  0.00  0.00    +0.163 A 
ATOM     11  C   UNL     1       1.202  -4.101   1.335  0.00  0.00    +0.054 A 
ATOM     12  C   UNL     1       0.108  -3.926   0.509  0.00  0.00    -0.027 A 
ATOM     13  C   UNL     1      -0.688  -2.803   0.638  0.00  0.00    +0.029 A 
ATOM     14  C   UNL     1      -0.393  -1.849   1.595  0.00  0.00    +0.086 A 
ATOM     15  C   UNL     1       0.700  -2.022   2.431  0.00  0.00    +0.177 A 
ATOM     16 CL   UNL     1      -1.394  -0.440   1.754  0.00  0.00    -0.080 Cl
BRANCH  15  17
ATOM     17  O   UNL     1       0.989  -1.088   3.377  0.00  0.00    -0.502 OA
ATOM     18  H   UNL     1       1.579  -0.387   3.071  0.00  0.00    +0.292 HD
ENDBRANCH  15  17
BRANCH  10  19
ATOM     19  O   UNL     1       2.580  -3.320   3.110  0.00  0.00    -0.489 OA
BRANCH  19  21
ATOM     20  C   UNL     1       4.519  -4.518   3.913  0.00  0.00    +0.048 C 
ATOM     21  C   UNL     1       3.360  -4.501   2.914  0.00  0.00    +0.226 C 
ENDBRANCH  19  21
ENDBRANCH  10  19
ENDBRANCH   1  12
BRANCH   1  22
ATOM     22  C   UNL     1       1.047  -5.309  -1.323  0.00  0.00    -0.063 C 
BRANCH  22  23
ATOM     23  N   UNL     1       0.757  -6.404  -2.259  0.00  0.00    +0.379 N 
ATOM     24  H   UNL     1       0.449  -7.214  -1.744  0.00  0.00    -0.090 HD
ATOM     25  H   UNL     1       0.032  -6.116  -2.899  0.00  0.00    -0.090 HD
ATOM     26  H   UNL     1       1.592  -6.632  -2.777  0.00  0.00    -0.090 HD
ENDBRANCH  22  23
ENDBRANCH   1  22
TORSDOF 7
