REMARK  Name = ZINC40645887
REMARK  8 active torsions:
REMARK  status: ('A' for Active; 'I' for Inactive)
REMARK    1  A    between atoms: C_4  and  C_7
REMARK    2  A    between atoms: C_7  and  C_8
REMARK    3  A    between atoms: C_7  and  N_14
REMARK    4  A    between atoms: C_16  and  N_36
REMARK    5  A    between atoms: C_17  and  N_21
REMARK    6  A    between atoms: N_21  and  C_22
REMARK    7  A    between atoms: C_25  and  N_28
REMARK    8  A    between atoms: N_29  and  C_30
REMARK                            x       y       z     vdW  Elec       q    Type
REMARK                         _______ _______ _______ _____ _____    ______ ____
ROOT
ATOM      1  N   UNL     1       3.688  -2.064  -0.669  0.00  0.00    -0.316 N 
ATOM      2  C   UNL     1       4.781  -2.458  -1.426  0.00  0.00    +0.155 A 
ATOM      3  C   UNL     1       4.709  -3.586  -2.237  0.00  0.00    +0.205 A 
ATOM      4  C   UNL     1       5.834  -3.939  -2.977  0.00  0.00    +0.159 A 
ATOM      5  N   UNL     1       6.930  -3.188  -2.882  0.00  0.00    -0.218 NA
ATOM      6  C   UNL     1       6.959  -2.127  -2.103  0.00  0.00    +0.225 A 
ATOM      7  N   UNL     1       5.913  -1.758  -1.391  0.00  0.00    -0.218 NA
ATOM      8  H   UNL     1       2.866  -2.579  -0.700  0.00  0.00    +0.148 HD
ENDROOT
BRANCH   3   9
ATOM      9  N   UNL     1       3.469  -4.391  -2.310  0.00  0.00    +0.063 N 
ATOM     10  O   UNL     1       2.625  -4.128  -3.135  0.00  0.00    -0.126 OA
ATOM     11  O   UNL     1       3.300  -5.312  -1.546  0.00  0.00    -0.126 OA
ENDBRANCH   3   9
BRANCH   4  12
ATOM     12  N   UNL     1       5.813  -5.055  -3.800  0.00  0.00    -0.297 N 
ATOM     13  H   UNL     1       4.988  -5.549  -3.927  0.00  0.00    +0.154 HD
BRANCH  12  14
ATOM     14  C   UNL     1       6.978  -5.468  -4.444  0.00  0.00    +0.033 A 
ATOM     15  C   UNL     1       6.913  -5.974  -5.739  0.00  0.00    +0.025 A 
ATOM     16  C   UNL     1       8.062  -6.382  -6.378  0.00  0.00    +0.031 A 
ATOM     17  C   UNL     1       9.296  -6.287  -5.725  0.00  0.00    +0.086 A 
ATOM     18  C   UNL     1       9.357  -5.777  -4.424  0.00  0.00    +0.031 A 
ATOM     19  C   UNL     1       8.204  -5.366  -3.793  0.00  0.00    +0.025 A 
BRANCH  17  20
ATOM     20  N   UNL     1      10.436  -6.691  -6.356  0.00  0.00    -0.149 NA
ATOM     21  N   UNL     1      11.573  -6.602  -5.752  0.00  0.00    -0.149 NA
BRANCH  21  22
ATOM     22  C   UNL     1      12.716  -7.006  -6.384  0.00  0.00    +0.086 A 
ATOM     23  C   UNL     1      12.658  -7.511  -7.686  0.00  0.00    +0.029 A 
ATOM     24  C   UNL     1      13.815  -7.917  -8.317  0.00  0.00    +0.002 A 
ATOM     25  C   UNL     1      15.031  -7.826  -7.664  0.00  0.00    +0.000 A 
ATOM     26  C   UNL     1      15.097  -7.327  -6.375  0.00  0.00    +0.002 A 
ATOM     27  C   UNL     1      13.949  -6.912  -5.734  0.00  0.00    +0.029 A 
ENDBRANCH  21  22
ENDBRANCH  17  20
ENDBRANCH  12  14
ENDBRANCH   4  12
BRANCH   1  28
ATOM     28  C   UNL     1       3.773  -0.871   0.176  0.00  0.00    +0.132 C 
BRANCH  28  32
ATOM     29  C   UNL     1      -0.143   0.725   0.783  0.00  0.00    +0.000 A 
ATOM     30  C   UNL     1       0.926   1.576   0.574  0.00  0.00    +0.000 A 
ATOM     31  C   UNL     1       2.193   1.060   0.378  0.00  0.00    +0.006 A 
ATOM     32  C   UNL     1       2.392  -0.308   0.391  0.00  0.00    -0.023 A 
ATOM     33  C   UNL     1       1.323  -1.160   0.601  0.00  0.00    +0.006 A 
ATOM     34  C   UNL     1       0.056  -0.643   0.796  0.00  0.00    +0.000 A 
ENDBRANCH  28  32
BRANCH  28  35
ATOM     35  C   UNL     1       4.378  -1.240   1.506  0.00  0.00    -0.023 A 
ATOM     36  C   UNL     1       4.031  -2.430   2.117  0.00  0.00    +0.006 A 
ATOM     37  C   UNL     1       4.586  -2.769   3.337  0.00  0.00    +0.000 A 
ATOM     38  C   UNL     1       5.488  -1.917   3.946  0.00  0.00    +0.000 A 
ATOM     39  C   UNL     1       5.835  -0.726   3.335  0.00  0.00    +0.000 A 
ATOM     40  C   UNL     1       5.284  -0.390   2.113  0.00  0.00    +0.006 A 
ENDBRANCH  28  35
ENDBRANCH   1  28
TORSDOF 8
