REMARK  Name = ZINC12939747
REMARK  7 active torsions:
REMARK  status: ('A' for Active; 'I' for Inactive)
REMARK    1  A    between atoms: C_1  and  N_52
REMARK    2  A    between atoms: C_2  and  C_3
REMARK    3  A    between atoms: C_2  and  N_52
REMARK    4  A    between atoms: N_5  and  C_6
REMARK    5  A    between atoms: C_13  and  C_14
REMARK    6  A    between atoms: C_13  and  N_52
REMARK    7  A    between atoms: C_27  and  C_29
REMARK                            x       y       z     vdW  Elec       q    Type
REMARK                         _______ _______ _______ _____ _____    ______ ____
ROOT
ATOM      1  C   UNL     1       0.811   4.218  -1.009  0.00  0.00    +0.204 C 
ATOM      2  O   UNL     1       0.808   5.429  -0.945  0.00  0.00    -0.277 OA
ATOM      3  N   UNL     1       1.190   3.488   0.059  0.00  0.00    -0.259 N 
ATOM      4  C   UNL     1       1.198   2.088  -0.002  0.00  0.00    +0.058 A 
ATOM      5  C   UNL     1       0.011   1.374   0.006  0.00  0.00    +0.025 A 
ATOM      6  C   UNL     1       0.040  -0.008  -0.003  0.00  0.00    +0.002 A 
ATOM      7  C   UNL     1       1.249  -0.680  -0.022  0.00  0.00    +0.002 A 
ATOM      8  C   UNL     1       2.438   0.026  -0.043  0.00  0.00    +0.025 A 
ATOM      9  C   UNL     1       2.418   1.411  -0.039  0.00  0.00    +0.055 A 
ATOM     10  N   UNL     1       3.607   2.147  -0.091  0.00  0.00    -0.284 N 
ATOM     11  C   UNL     1       3.823   3.161   0.775  0.00  0.00    +0.219 C 
ATOM     12  O   UNL     1       4.818   3.845   0.665  0.00  0.00    -0.275 OA
ATOM     13  C   UNL     1       2.835   3.448   1.874  0.00  0.00    +0.128 C 
ATOM     14  C   UNL     1       1.599   4.144   1.302  0.00  0.00    +0.194 C 
ATOM     15  H   UNL     1       4.281   1.927  -0.753  0.00  0.00    +0.155 HD
ENDROOT
BRANCH  14  16
ATOM     16  C   UNL     1       0.456   4.065   2.316  0.00  0.00    +0.409 C 
ATOM     17  F   UNL     1       0.841   4.698   3.503  0.00  0.00    -0.169 F 
ATOM     18  F   UNL     1      -0.675   4.702   1.794  0.00  0.00    -0.169 F 
ATOM     19  F   UNL     1       0.157   2.724   2.579  0.00  0.00    -0.169 F 
ENDBRANCH  14  16
BRANCH   1  20
ATOM     20  C   UNL     1       0.393   3.530  -2.283  0.00  0.00    +0.019 C 
BRANCH  20  22
ATOM     21  C   UNL     1      -1.171   5.279  -2.881  0.00  0.00    -0.095 C 
ATOM     22  N   UNL     1       0.052   4.556  -3.290  0.00  0.00    +0.389 N 
ATOM     23  H   UNL     1       0.827   5.226  -3.360  0.00  0.00    -0.081 HD
BRANCH  22  24
ATOM     24  C   UNL     1      -0.155   3.921  -4.609  0.00  0.00    +0.019 C 
BRANCH  24  25
ATOM     25  C   UNL     1      -0.282   5.000  -5.653  0.00  0.00    +0.201 C 
ATOM     26  O   UNL     1      -0.224   6.167  -5.329  0.00  0.00    -0.278 OA
ATOM     27  N   UNL     1      -0.459   4.668  -6.947  0.00  0.00    -0.287 N 
ATOM     28  H   UNL     1      -0.438   3.736  -7.216  0.00  0.00    +0.155 HD
BRANCH  27  29
ATOM     29  C   UNL     1      -0.674   5.667  -7.903  0.00  0.00    +0.036 A 
ATOM     30  C   UNL     1      -0.037   6.895  -7.781  0.00  0.00    +0.023 A 
ATOM     31  C   UNL     1      -0.249   7.879  -8.725  0.00  0.00    +0.005 A 
ATOM     32  C   UNL     1      -1.096   7.645  -9.793  0.00  0.00    +0.038 A 
ATOM     33  C   UNL     1      -1.733   6.421  -9.919  0.00  0.00    +0.125 A 
ATOM     34  C   UNL     1      -1.520   5.430  -8.978  0.00  0.00    +0.061 A 
ATOM     35  F   UNL     1      -2.558   6.194 -10.964  0.00  0.00    -0.205 F 
ENDBRANCH  27  29
ENDBRANCH  24  25
ENDBRANCH  22  24
ENDBRANCH  20  22
ENDBRANCH   1  20
TORSDOF 6
