REMARK  Name = ZINC20685918
REMARK  6 active torsions:
REMARK  status: ('A' for Active; 'I' for Inactive)
REMARK    1  A    between atoms: C_1  and  C_2
REMARK    2  A    between atoms: C_2  and  C_4
REMARK    3  A    between atoms: C_17  and  C_20
REMARK    4  A    between atoms: C_23  and  N_26
REMARK    5  A    between atoms: N_26  and  C_27
REMARK    6  A    between atoms: N_26  and  C_28
REMARK                            x       y       z     vdW  Elec       q    Type
REMARK                         _______ _______ _______ _____ _____    ______ ____
ROOT
ATOM      1  C   UNL     1      -5.217   2.542   0.818  0.00  0.00    +0.017 A 
ATOM      2  C   UNL     1      -5.061   3.527   1.803  0.00  0.00    +0.013 A 
ATOM      3  C   UNL     1      -3.808   3.809   2.293  0.00  0.00    +0.024 A 
ATOM      4  C   UNL     1      -2.698   3.122   1.803  0.00  0.00    +0.031 A 
ATOM      5  C   UNL     1      -2.846   2.140   0.820  0.00  0.00    -0.019 A 
ATOM      6  C   UNL     1      -4.098   1.855   0.336  0.00  0.00    +0.017 A 
ATOM      7  C   UNL     1      -1.679   1.379   0.274  0.00  0.00    +0.049 C 
ATOM      8  C   UNL     1      -1.320   1.845  -1.117  0.00  0.00    -0.023 C 
ATOM      9  C   UNL     1      -0.021   1.822  -1.283  0.00  0.00    -0.030 C 
ATOM     10  C   UNL     1       0.667   1.330  -0.024  0.00  0.00    +0.033 C 
ATOM     11  C   UNL     1      -0.386   1.591   1.093  0.00  0.00    +0.029 C 
ATOM     12  C   UNL     1      -0.263   3.061   1.503  0.00  0.00    +0.105 C 
ATOM     13  N   UNL     1      -1.436   3.431   2.301  0.00  0.00    -0.336 N 
ATOM     14  H   UNL     1      -1.306   3.940   3.267  0.00  0.00    +0.147 HD
ENDROOT
BRANCH  12  15
ATOM     15  C   UNL     1      -0.198   3.925   0.270  0.00  0.00    -0.027 A 
ATOM     16  C   UNL     1       1.028   4.235  -0.291  0.00  0.00    +0.007 A 
ATOM     17  C   UNL     1       1.090   5.022  -1.425  0.00  0.00    +0.023 A 
ATOM     18  C   UNL     1      -0.079   5.512  -1.994  0.00  0.00    +0.029 A 
ATOM     19  C   UNL     1      -1.307   5.203  -1.424  0.00  0.00    +0.023 A 
ATOM     20  C   UNL     1      -1.363   4.411  -0.294  0.00  0.00    +0.007 A 
BRANCH  18  21
ATOM     21  N   UNL     1      -0.018   6.313  -3.137  0.00  0.00    -0.336 N 
ATOM     22  C   UNL     1      -1.253   6.722  -3.810  0.00  0.00    +0.129 C 
ATOM     23  C   UNL     1       1.280   6.743  -3.662  0.00  0.00    +0.129 C 
ENDBRANCH  18  21
ENDBRANCH  12  15
BRANCH   1  25
ATOM     24  C   UNL     1      -7.739   3.054   0.723  0.00  0.00    +0.091 C 
ATOM     25  C   UNL     1      -6.552   2.231   0.295  0.00  0.00    +0.160 C 
ATOM     26  O   UNL     1      -6.699   1.312  -0.483  0.00  0.00    -0.292 OA
ENDBRANCH   1  25
TORSDOF 3
