REMARK  Name = ZINC13980953
REMARK  10 active torsions:
REMARK  status: ('A' for Active; 'I' for Inactive)
REMARK    1  A    between atoms: C_1  and  C_2
REMARK    2  A    between atoms: C_5  and  C_24
REMARK    3  A    between atoms: N_9  and  N_10
REMARK    4  A    between atoms: C_11  and  C_13
REMARK    5  A    between atoms: C_13  and  O_14
REMARK    6  A    between atoms: O_14  and  C_15
REMARK    7  A    between atoms: C_18  and  C_21
REMARK    8  A    between atoms: C_21  and  C_22
REMARK    9  A    between atoms: C_21  and  C_23
REMARK   10  A    between atoms: C_24  and  C_26
REMARK                            x       y       z     vdW  Elec       q    Type
REMARK                         _______ _______ _______ _____ _____    ______ ____
ROOT
ATOM      1  N   UNL     1      -0.166  -0.859   3.604  0.00  0.00    -0.204 N 
ATOM      2  C   UNL     1      -0.391  -0.232   4.776  0.00  0.00    +0.270 C 
ATOM      3  O   UNL     1      -0.616   0.960   4.792  0.00  0.00    -0.270 OA
ATOM      4  H   UNL     1       0.014  -1.812   3.591  0.00  0.00    +0.177 HD
ENDROOT
BRANCH   1  12
ATOM      5  C   UNL     1      -0.018   1.503   0.010  0.00  0.00    +0.045 C 
ATOM      6  C   UNL     1       0.002  -0.004   0.002  0.00  0.00    -0.032 C 
ATOM      7  C   UNL     1       0.005  -0.654  -1.152  0.00  0.00    -0.021 C 
ATOM      8  C   UNL     1       0.035  -2.150  -1.252  0.00  0.00    +0.035 C 
ATOM      9  C   UNL     1      -0.474  -2.800   0.033  0.00  0.00    +0.024 C 
ATOM     10  C   UNL     1       0.303  -2.227   1.226  0.00  0.00    +0.065 C 
ATOM     11  C   UNL     1       0.024  -0.740   1.276  0.00  0.00    +0.062 C 
ATOM     12  N   UNL     1      -0.193  -0.135   2.405  0.00  0.00    -0.185 NA
BRANCH   9  13
ATOM     13  C   UNL     1      -0.265  -4.291  -0.039  0.00  0.00    -0.076 C 
ATOM     14  C   UNL     1      -1.291  -5.101   0.040  0.00  0.00    +0.007 C 
ATOM     15  C   UNL     1       1.126  -4.849  -0.202  0.00  0.00    +0.039 C 
ENDBRANCH   9  13
ENDBRANCH   1  12
BRANCH   2  16
ATOM     16  C   UNL     1      -0.362  -1.011   6.066  0.00  0.00    +0.326 C 
BRANCH  16  17
ATOM     17  O   UNL     1      -0.627  -0.131   7.160  0.00  0.00    -0.483 OA
BRANCH  17  18
ATOM     18  C   UNL     1      -0.638  -0.679   8.403  0.00  0.00    +0.121 A 
ATOM     19  C   UNL     1      -0.392  -2.034   8.568  0.00  0.00    +0.046 A 
ATOM     20  C   UNL     1      -0.403  -2.588   9.833  0.00  0.00    +0.007 A 
ATOM     21  C   UNL     1      -0.659  -1.793  10.935  0.00  0.00    -0.045 A 
ATOM     22  C   UNL     1      -0.904  -0.442  10.774  0.00  0.00    +0.007 A 
ATOM     23  C   UNL     1      -0.888   0.118   9.511  0.00  0.00    +0.046 A 
BRANCH  21  24
ATOM     24  C   UNL     1      -0.670  -2.401  12.315  0.00  0.00    +0.013 C 
ATOM     25  C   UNL     1       0.397  -1.725  13.178  0.00  0.00    +0.012 C 
ATOM     26  C   UNL     1      -2.047  -2.196  12.950  0.00  0.00    +0.012 C 
ENDBRANCH  21  24
ENDBRANCH  17  18
ENDBRANCH  16  17
ENDBRANCH   2  16
TORSDOF 6
