REMARK  Name = ZINC05540428
REMARK  9 active torsions:
REMARK  status: ('A' for Active; 'I' for Inactive)
REMARK    1  A    between atoms: C_1  and  C_2
REMARK    2  A    between atoms: C_4  and  O_9
REMARK    3  A    between atoms: O_9  and  C_10
REMARK    4  A    between atoms: C_10  and  C_11
REMARK    5  A    between atoms: N_13  and  N_14
REMARK    6  A    between atoms: C_15  and  C_16
REMARK    7  A    between atoms: C_19  and  O_23
REMARK    8  A    between atoms: C_21  and  O_22
REMARK    9  A    between atoms: O_23  and  C_24
REMARK                            x       y       z     vdW  Elec       q    Type
REMARK                         _______ _______ _______ _____ _____    ______ ____
ROOT
ATOM      1  C   UNL     1      -2.552   5.448   0.044  0.00  0.00    +0.270 C 
ATOM      2  O   UNL     1      -1.508   6.066   0.042  0.00  0.00    -0.270 OA
ATOM      3  N   UNL     1      -2.537   4.100   0.036  0.00  0.00    -0.204 N 
ATOM      4  H   UNL     1      -3.371   3.606   0.038  0.00  0.00    +0.177 HD
ENDROOT
BRANCH   3   5
ATOM      5  N   UNL     1      -1.315   3.413   0.027  0.00  0.00    -0.188 NA
ATOM      6  C   UNL     1      -1.301   2.115   0.020  0.00  0.00    +0.142 C 
BRANCH   6   7
ATOM      7  C   UNL     1      -0.017   1.393   0.010  0.00  0.00    +0.036 A 
ATOM      8  C   UNL     1       0.002  -0.004   0.002  0.00  0.00    +0.016 A 
ATOM      9  C   UNL     1       1.205  -0.675  -0.013  0.00  0.00    +0.046 A 
ATOM     10  C   UNL     1       2.401   0.032  -0.021  0.00  0.00    +0.124 A 
ATOM     11  C   UNL     1       2.393   1.419  -0.014  0.00  0.00    +0.091 A 
ATOM     12  C   UNL     1       1.191   2.105   0.002  0.00  0.00    +0.129 A 
BRANCH  12  13
ATOM     13  O   UNL     1       1.182   3.463   0.009  0.00  0.00    -0.506 OA
ATOM     14  H   UNL     1       1.187   3.852   0.894  0.00  0.00    +0.292 HD
ENDBRANCH  12  13
BRANCH  10  15
ATOM     15  O   UNL     1       3.583  -0.637  -0.037  0.00  0.00    -0.495 OA
ATOM     16  C   UNL     1       3.520  -2.065  -0.044  0.00  0.00    +0.277 C 
ENDBRANCH  10  15
ENDBRANCH   6   7
ENDBRANCH   3   5
BRANCH   1  17
ATOM     17  C   UNL     1      -3.865   6.187   0.054  0.00  0.00    +0.326 C 
BRANCH  17  18
ATOM     18  O   UNL     1      -3.620   7.594   0.060  0.00  0.00    -0.483 OA
BRANCH  18  22
ATOM     19  C   UNL     1      -5.469  12.111   0.094  0.00  0.00    +0.045 C 
ATOM     20  C   UNL     1      -5.648  10.615   0.086  0.00  0.00    -0.029 A 
ATOM     21  C   UNL     1      -4.542   9.787   0.077  0.00  0.00    +0.050 A 
ATOM     22  C   UNL     1      -4.707   8.410   0.070  0.00  0.00    +0.122 A 
ATOM     23  C   UNL     1      -5.983   7.866   0.067  0.00  0.00    +0.047 A 
ATOM     24  C   UNL     1      -7.087   8.697   0.082  0.00  0.00    +0.024 A 
ATOM     25  C   UNL     1      -6.920  10.071   0.089  0.00  0.00    +0.044 A 
ATOM     26 CL   UNL     1      -8.309  11.113   0.101  0.00  0.00    -0.083 Cl
ENDBRANCH  18  22
ENDBRANCH  17  18
ENDBRANCH   1  17
TORSDOF 7
