REMARK  Name = ZINC13500156
REMARK  10 active torsions:
REMARK  status: ('A' for Active; 'I' for Inactive)
REMARK    1  A    between atoms: C_1  and  C_2
REMARK    2  A    between atoms: C_2  and  C_3
REMARK    3  A    between atoms: C_3  and  C_4
REMARK    4  A    between atoms: C_4  and  C_6
REMARK    5  A    between atoms: C_4  and  N_72
REMARK    6  A    between atoms: N_10  and  C_11
REMARK    7  A    between atoms: C_16  and  C_17
REMARK    8  A    between atoms: C_16  and  N_72
REMARK    9  A    between atoms: C_21  and  C_29
REMARK   10  A    between atoms: C_30  and  N_72
REMARK                            x       y       z     vdW  Elec       q    Type
REMARK                         _______ _______ _______ _____ _____    ______ ____
ROOT
ATOM      1  N   UNL     1       2.547  -1.725  -1.011  0.00  0.00    +0.391 N 
ATOM      2  H   UNL     1       3.227  -1.193  -0.457  0.00  0.00    -0.080 HD
ENDROOT
BRANCH   1   3
ATOM      3  C   UNL     1       2.366  -1.059  -2.318  0.00  0.00    -0.067 C 
ATOM      4  C   UNL     1       1.377  -1.839  -3.186  0.00  0.00    -0.015 C 
ATOM      5  C   UNL     1       1.209  -1.130  -4.531  0.00  0.00    -0.002 C 
ATOM      6  C   UNL     1       2.562  -1.056  -5.241  0.00  0.00    -0.000 C 
ATOM      7  C   UNL     1       3.551  -0.275  -4.373  0.00  0.00    -0.002 C 
ATOM      8  C   UNL     1       3.720  -0.985  -3.028  0.00  0.00    -0.015 C 
ENDBRANCH   1   3
BRANCH   1   9
ATOM      9  C   UNL     1       1.261  -1.766  -0.283  0.00  0.00    +0.003 C 
BRANCH   9  10
ATOM     10  C   UNL     1       0.429  -2.934  -0.749  0.00  0.00    +0.138 A 
ATOM     11  N   UNL     1       0.496  -3.526  -1.916  0.00  0.00    -0.115 NA
ATOM     12  N   UNL     1      -0.373  -4.476  -1.931  0.00  0.00    -0.023 NA
ATOM     13  N   UNL     1      -0.993  -4.506  -0.802  0.00  0.00    -0.044 NA
ATOM     14  N   UNL     1      -0.526  -3.570  -0.047  0.00  0.00    -0.228 N 
BRANCH  14  15
ATOM     15  C   UNL     1      -0.956  -3.259   1.319  0.00  0.00    +0.111 C 
ATOM     16  C   UNL     1      -0.940  -4.537   2.182  0.00  0.00    +0.027 C 
ATOM     17  C   UNL     1      -2.175  -4.386   3.106  0.00  0.00    +0.002 C 
ATOM     18  C   UNL     1      -3.225  -3.737   2.170  0.00  0.00    +0.002 C 
ATOM     19  C   UNL     1      -2.408  -2.750   1.311  0.00  0.00    +0.027 C 
ENDBRANCH  14  15
ENDBRANCH   9  10
BRANCH   9  20
ATOM     20  C   UNL     1       0.497  -0.464  -0.532  0.00  0.00    -0.008 C 
BRANCH  20  22
ATOM     21  C   UNL     1       0.470   1.996  -0.100  0.00  0.00    +0.004 C 
ATOM     22  C   UNL     1       1.278   0.707   0.067  0.00  0.00    -0.005 C 
ENDBRANCH  20  22
ENDBRANCH   9  20
ENDBRANCH   1   9
BRANCH   1  23
ATOM     23  C   UNL     1       3.059  -3.098  -1.210  0.00  0.00    -0.036 C 
BRANCH  23  24
ATOM     24  C   UNL     1       3.669  -3.577   0.082  0.00  0.00    +0.001 A 
ATOM     25  C   UNL     1       2.946  -4.359   0.921  0.00  0.00    +0.017 A 
ATOM     26  C   UNL     1       3.569  -4.813   2.165  0.00  0.00    -0.001 A 
ATOM     27  C   UNL     1       2.876  -5.626   3.068  0.00  0.00    +0.013 A 
ATOM     28  C   UNL     1       3.485  -6.029   4.222  0.00  0.00    -0.050 A 
ATOM     29  C   UNL     1       4.786  -5.639   4.508  0.00  0.00    +0.005 A 
ATOM     30  C   UNL     1       5.488  -4.838   3.634  0.00  0.00    +0.026 A 
ATOM     31  C   UNL     1       4.889  -4.415   2.452  0.00  0.00    +0.049 A 
ATOM     32  N   UNL     1       5.568  -3.615   1.559  0.00  0.00    -0.322 N 
ATOM     33  H   UNL     1       6.478  -3.342   1.758  0.00  0.00    +0.169 HD
ATOM     34  C   UNL     1       4.989  -3.207   0.416  0.00  0.00    +0.251 A 
ATOM     35  O   UNL     1       5.620  -2.500  -0.351  0.00  0.00    -0.268 OA
ATOM     36  C   UNL     1       2.737  -6.905   5.194  0.00  0.00    +0.044 C 
ENDBRANCH  23  24
ENDBRANCH   1  23
TORSDOF 8
