REMARK  Name = ZINC25782398
REMARK  7 active torsions:
REMARK  status: ('A' for Active; 'I' for Inactive)
REMARK    1  A    between atoms: C_1  and  C_2
REMARK    2  A    between atoms: N_8  and  C_9
REMARK    3  A    between atoms: C_9  and  C_10
REMARK    4  A    between atoms: C_11  and  C_21
REMARK    5  A    between atoms: N_23  and  N_24
REMARK    6  A    between atoms: C_25  and  C_26
REMARK    7  A    between atoms: C_25  and  C_27
REMARK                            x       y       z     vdW  Elec       q    Type
REMARK                         _______ _______ _______ _____ _____    ______ ____
ROOT
ATOM      1  C   UNL     1       5.810  -0.657  -3.358  0.00  0.00    +0.063 A 
ATOM      2  C   UNL     1       6.223   0.628  -3.144  0.00  0.00    +0.170 A 
ATOM      3  N   UNL     1       7.295   0.600  -2.332  0.00  0.00    -0.124 NA
ATOM      4  N   UNL     1       7.574  -0.619  -2.027  0.00  0.00    -0.058 NA
ATOM      5  N   UNL     1       6.645  -1.457  -2.659  0.00  0.00    -0.194 N 
ATOM      6  C   UNL     1       6.594  -2.854  -2.584  0.00  0.00    +0.240 A 
ATOM      7  C   UNL     1       7.513  -3.706  -1.824  0.00  0.00    +0.206 A 
ATOM      8  N   UNL     1       7.151  -4.949  -1.989  0.00  0.00    -0.032 NA
ATOM      9  O   UNL     1       6.022  -4.962  -2.845  0.00  0.00    -0.239 OA
ATOM     10  N   UNL     1       5.724  -3.618  -3.181  0.00  0.00    -0.027 NA
ATOM     11  N   UNL     1       8.585  -3.265  -1.056  0.00  0.00    -0.337 N 
ATOM     12  H   UNL     1       9.215  -3.992  -0.523  0.00  0.00    +0.144 HD
ATOM     13  H   UNL     1       8.802  -2.189  -0.981  0.00  0.00    +0.144 HD
ENDROOT
BRANCH   2  14
ATOM     14  C   UNL     1       5.600   1.839  -3.707  0.00  0.00    +0.285 C 
ATOM     15  O   UNL     1       4.629   1.742  -4.434  0.00  0.00    -0.267 OA
ATOM     16  N   UNL     1       6.106   3.055  -3.417  0.00  0.00    -0.201 N 
ATOM     17  H   UNL     1       6.984   3.143  -2.761  0.00  0.00    +0.178 HD
BRANCH  16  18
ATOM     18  N   UNL     1       5.513   4.206  -3.953  0.00  0.00    -0.184 NA
ATOM     19  C   UNL     1       6.070   5.365  -3.775  0.00  0.00    +0.063 C 
ATOM     20  C   UNL     1       5.354   6.619  -4.208  0.00  0.00    +0.068 C 
BRANCH  19  21
ATOM     21  C   UNL     1       7.402   5.455  -3.149  0.00  0.00    -0.002 A 
ATOM     22  C   UNL     1       7.699   6.507  -2.280  0.00  0.00    +0.011 A 
ATOM     23  C   UNL     1       8.945   6.582  -1.694  0.00  0.00    +0.020 A 
ATOM     24  C   UNL     1       9.905   5.624  -1.975  0.00  0.00    +0.041 A 
ATOM     25  C   UNL     1       9.618   4.581  -2.840  0.00  0.00    +0.020 A 
ATOM     26  C   UNL     1       8.374   4.491  -3.428  0.00  0.00    +0.011 A 
ATOM     27 CL   UNL     1      11.473   5.730  -1.238  0.00  0.00    -0.084 Cl
ENDBRANCH  19  21
ENDBRANCH  16  18
ENDBRANCH   2  14
BRANCH   1  28
ATOM     28  C   UNL     1       4.644  -1.095  -4.206  0.00  0.00    -0.019 C 
BRANCH  28  35
ATOM     29  C   UNL     1       2.653  -2.996  -4.791  0.00  0.00    -0.013 C 
ATOM     30  C   UNL     1       2.289  -1.653  -4.154  0.00  0.00    -0.071 C 
ATOM     31  C   UNL     1       1.085  -1.839  -3.228  0.00  0.00    -0.016 C 
ATOM     32  C   UNL     1       0.736  -0.497  -2.577  0.00  0.00    -0.003 C 
ATOM     33  C   UNL     1       1.958   0.025  -1.816  0.00  0.00    -0.019 C 
ATOM     34  C   UNL     1       3.137   0.156  -2.783  0.00  0.00    -0.078 C 
ATOM     35  N   UNL     1       3.432  -1.154  -3.378  0.00  0.00    +0.385 N 
ATOM     36  H   UNL     1       3.615  -1.862  -2.557  0.00  0.00    -0.081 HD
ENDBRANCH  28  35
ENDBRANCH   1  28
TORSDOF 5
