REMARK  Name = ZINC19550725
REMARK  5 active torsions:
REMARK  status: ('A' for Active; 'I' for Inactive)
REMARK    1  A    between atoms: C_1  and  O_2
REMARK    2  A    between atoms: O_2  and  C_3
REMARK    3  A    between atoms: C_8  and  O_9
REMARK    4  A    between atoms: O_9  and  C_10
REMARK    5  A    between atoms: C_20  and  C_25
REMARK                            x       y       z     vdW  Elec       q    Type
REMARK                         _______ _______ _______ _____ _____    ______ ____
ROOT
ATOM      1  C   UNL     1      -4.870  -3.991  -1.369  0.00  0.00    +0.162 A 
ATOM      2  C   UNL     1      -4.831  -2.611  -1.270  0.00  0.00    +0.053 A 
ATOM      3  C   UNL     1      -3.644  -1.966  -0.974  0.00  0.00    -0.037 A 
ATOM      4  C   UNL     1      -2.474  -2.683  -0.806  0.00  0.00    -0.019 A 
ATOM      5  C   UNL     1      -2.525  -4.070  -0.864  0.00  0.00    +0.055 A 
ATOM      6  C   UNL     1      -3.707  -4.725  -1.154  0.00  0.00    +0.162 A 
ATOM      7  C   UNL     1      -1.163  -2.011  -0.566  0.00  0.00    +0.121 C 
ATOM      8  C   UNL     1      -0.096  -2.404  -1.552  0.00  0.00    -0.005 A 
ATOM      9  C   UNL     1      -0.211  -3.486  -2.391  0.00  0.00    +0.007 A 
ATOM     10  C   UNL     1       0.819  -3.809  -3.260  0.00  0.00    +0.000 A 
ATOM     11  C   UNL     1       1.965  -3.037  -3.297  0.00  0.00    +0.002 A 
ATOM     12  C   UNL     1       2.078  -1.932  -2.478  0.00  0.00    +0.023 A 
ATOM     13  C   UNL     1       1.044  -1.601  -1.612  0.00  0.00    +0.034 A 
ATOM     14  N   UNL     1       1.137  -0.453  -0.823  0.00  0.00    -0.324 N 
ATOM     15  C   UNL     1       0.002  -0.004   0.002  0.00  0.00    +0.174 C 
ATOM     16  N   UNL     1      -1.238  -0.544  -0.568  0.00  0.00    -0.269 NA
ATOM     17  C   UNL     1      -2.462  -0.056   0.057  0.00  0.00    +0.092 C 
ATOM     18  C   UNL     1      -3.643  -0.464  -0.838  0.00  0.00    +0.051 C 
ATOM     19  H   UNL     1       2.076   0.118  -0.823  0.00  0.00    +0.148 HD
ENDROOT
BRANCH  15  20
ATOM     20  C   UNL     1      -0.018   1.504   0.010  0.00  0.00    -0.010 A 
ATOM     21  C   UNL     1       0.104   2.190   1.205  0.00  0.00    +0.010 A 
ATOM     22  C   UNL     1       0.085   3.572   1.215  0.00  0.00    +0.041 A 
ATOM     23  C   UNL     1      -0.055   4.271   0.028  0.00  0.00    +0.158 A 
ATOM     24  C   UNL     1      -0.177   3.583  -1.169  0.00  0.00    +0.159 A 
ATOM     25  C   UNL     1      -0.153   2.199  -1.177  0.00  0.00    +0.048 A 
ATOM     26  F   UNL     1      -0.314   4.263  -2.329  0.00  0.00    -0.202 F 
ATOM     27  F   UNL     1      -0.074   5.622   0.037  0.00  0.00    -0.202 F 
ENDBRANCH  15  20
BRANCH   1  29
ATOM     28  C   UNL     1      -7.185  -3.801  -1.876  0.00  0.00    +0.277 C 
ATOM     29  O   UNL     1      -6.035  -4.624  -1.669  0.00  0.00    -0.491 OA
ENDBRANCH   1  29
BRANCH   6  30
ATOM     30  O   UNL     1      -3.736  -6.084  -1.221  0.00  0.00    -0.491 OA
ATOM     31  C   UNL     1      -2.507  -6.771  -0.981  0.00  0.00    +0.277 C 
ENDBRANCH   6  30
TORSDOF 3
