REMARK  Name = ZINC11440024
REMARK  9 active torsions:
REMARK  status: ('A' for Active; 'I' for Inactive)
REMARK    1  A    between atoms: C_7  and  N_11
REMARK    2  A    between atoms: C_8  and  C_9
REMARK    3  A    between atoms: C_12  and  C_14
REMARK    4  A    between atoms: C_14  and  O_15
REMARK    5  A    between atoms: O_15  and  C_16
REMARK    6  A    between atoms: C_16  and  C_18
REMARK    7  A    between atoms: C_18  and  C_19
REMARK    8  A    between atoms: C_19  and  N_20
REMARK    9  A    between atoms: N_23  and  C_24
REMARK                            x       y       z     vdW  Elec       q    Type
REMARK                         _______ _______ _______ _____ _____    ______ ____
ROOT
ATOM      1  C   UNL     1      -9.551   0.922   3.096  0.00  0.00    +0.309 C 
ATOM      2  O   UNL     1      -9.156   1.617   4.002  0.00  0.00    -0.251 OA
ENDROOT
BRANCH   1   3
ATOM      3  O   UNL     1     -10.810   0.458   3.106  0.00  0.00    -0.455 OA
BRANCH   3   4
ATOM      4  C   UNL     1     -11.642   0.830   4.236  0.00  0.00    +0.328 C 
BRANCH   4   6
ATOM      5  N   UNL     1     -13.957   0.434   5.011  0.00  0.00    -0.276 N 
ATOM      6  C   UNL     1     -13.011   0.222   4.075  0.00  0.00    +0.255 C 
ATOM      7  O   UNL     1     -13.261  -0.460   3.103  0.00  0.00    -0.272 OA
ATOM      8  H   UNL     1     -13.757   0.978   5.788  0.00  0.00    +0.155 HD
BRANCH   5  15
ATOM      9  C   UNL     1     -20.611  -1.671   4.747  0.00  0.00    +0.001 C 
ATOM     10  C   UNL     1     -19.646  -1.907   5.907  0.00  0.00    +0.005 C 
ATOM     11  C   UNL     1     -18.804  -0.662   6.161  0.00  0.00    +0.037 C 
ATOM     12  C   UNL     1     -17.535  -0.712   5.320  0.00  0.00    -0.018 A 
ATOM     13  C   UNL     1     -17.460  -1.394   4.156  0.00  0.00    -0.004 A 
ATOM     14  S   UNL     1     -15.808  -1.125   3.576  0.00  0.00    -0.077 S 
ATOM     15  C   UNL     1     -15.218  -0.127   4.862  0.00  0.00    +0.090 A 
ATOM     16  C   UNL     1     -16.309  -0.029   5.710  0.00  0.00    +0.084 A 
ATOM     17  C   UNL     1     -18.532  -2.211   3.504  0.00  0.00    +0.043 C 
ATOM     18  C   UNL     1     -19.834  -1.399   3.463  0.00  0.00    +0.005 C 
BRANCH  16  19
ATOM     19  C   UNL     1     -16.236   0.722   6.927  0.00  0.00    +0.102 C 
ATOM     20  N   UNL     1     -16.177   1.318   7.892  0.00  0.00    -0.191 NA
ENDBRANCH  16  19
ENDBRANCH   5  15
ENDBRANCH   4   6
ENDBRANCH   3   4
ENDBRANCH   1   3
BRANCH   1  21
ATOM     21  C   UNL     1      -8.629   0.577   1.955  0.00  0.00    +0.139 C 
BRANCH  21  22
ATOM     22  C   UNL     1      -7.264   1.227   2.188  0.00  0.00    +0.117 C 
BRANCH  22  23
ATOM     23  N   UNL     1      -6.368   0.892   1.079  0.00  0.00    -0.299 N 
ATOM     24  C   UNL     1      -5.103   1.358   1.069  0.00  0.00    +0.300 C 
ATOM     25  O   UNL     1      -4.706   2.058   1.981  0.00  0.00    -0.253 OA
ATOM     26  N   UNL     1      -4.279   1.049   0.049  0.00  0.00    -0.294 N 
ATOM     27  H   UNL     1      -6.684   0.334   0.351  0.00  0.00    +0.150 HD
ATOM     28  H   UNL     1      -4.595   0.491  -0.679  0.00  0.00    +0.151 HD
BRANCH  26  29
ATOM     29  C   UNL     1      -2.904   1.556   0.038  0.00  0.00    +0.037 C 
ATOM     30  C   UNL     1      -2.188   1.063  -1.221  0.00  0.00    +0.029 C 
ATOM     31  C   UNL     1      -0.753   1.593  -1.232  0.00  0.00    -0.008 C 
ATOM     32  C   UNL     1      -0.013   1.086   0.008  0.00  0.00    +0.007 C 
ATOM     33  C   UNL     1      -0.729   1.579   1.267  0.00  0.00    -0.008 C 
ATOM     34  C   UNL     1      -2.164   1.050   1.278  0.00  0.00    +0.029 C 
ATOM     35  C   UNL     1      -0.750   3.109   1.275  0.00  0.00    +0.007 C 
ATOM     36  C   UNL     1      -1.490   3.616   0.036  0.00  0.00    -0.008 C 
ATOM     37  C   UNL     1      -0.773   3.123  -1.223  0.00  0.00    +0.007 C 
ATOM     38  C   UNL     1      -2.925   3.086   0.047  0.00  0.00    +0.029 C 
ENDBRANCH  26  29
ENDBRANCH  22  23
ENDBRANCH  21  22
ENDBRANCH   1  21
TORSDOF 9
