REMARK  Name = ZINC34786831
REMARK  7 active torsions:
REMARK  status: ('A' for Active; 'I' for Inactive)
REMARK    1  A    between atoms: C_1  and  C_2
REMARK    2  A    between atoms: C_5  and  N_8
REMARK    3  A    between atoms: N_8  and  N_9
REMARK    4  A    between atoms: N_9  and  N_29
REMARK    5  A    between atoms: C_20  and  C_25
REMARK    6  A    between atoms: C_22  and  C_24
REMARK    7  A    between atoms: N_29  and  C_30
REMARK                            x       y       z     vdW  Elec       q    Type
REMARK                         _______ _______ _______ _____ _____    ______ ____
ROOT
ATOM      1  N   UNL     1      -0.093  -4.940   1.265  0.00  0.00    -0.166 N 
ATOM      2  C   UNL     1      -1.280  -5.385   1.818  0.00  0.00    +0.167 A 
ATOM      3  C   UNL     1      -2.335  -4.471   2.091  0.00  0.00    +0.054 A 
ATOM      4  C   UNL     1      -2.367  -3.017   1.862  0.00  0.00    -0.025 A 
ATOM      5  C   UNL     1      -3.493  -2.372   2.209  0.00  0.00    -0.004 A 
ATOM      6  S   UNL     1      -4.570  -3.634   2.850  0.00  0.00    -0.073 S 
ATOM      7  C   UNL     1      -3.497  -5.030   2.652  0.00  0.00    +0.116 A 
ATOM      8  N   UNL     1      -3.589  -6.322   2.904  0.00  0.00    -0.203 NA
ATOM      9  C   UNL     1      -2.575  -7.128   2.630  0.00  0.00    +0.254 A 
ATOM     10  N   UNL     1      -1.452  -6.667   2.095  0.00  0.00    -0.192 NA
ATOM     11  N   UNL     1      -2.691  -8.491   2.904  0.00  0.00    -0.202 N 
ATOM     12  C   UNL     1      -3.776  -9.110   3.439  0.00  0.00    +0.045 A 
ATOM     13  C   UNL     1      -3.485 -10.427   3.544  0.00  0.00    +0.048 A 
ATOM     14  C   UNL     1      -2.186 -10.622   3.061  0.00  0.00    +0.061 A 
ATOM     15  N   UNL     1      -1.713  -9.466   2.672  0.00  0.00    -0.169 NA
ATOM     16  C   UNL     1      -1.459 -11.940   2.993  0.00  0.00    +0.067 C 
ATOM     17  C   UNL     1      -5.069  -8.449   3.843  0.00  0.00    +0.066 C 
ATOM     18  C   UNL     1      -3.409  -0.894   1.935  0.00  0.00    +0.043 C 
ATOM     19  C   UNL     1      -1.900  -0.618   1.758  0.00  0.00    +0.010 C 
ATOM     20  C   UNL     1      -1.383  -1.992   1.290  0.00  0.00    +0.037 C 
ENDROOT
BRANCH   1  21
ATOM     21  N   UNL     1      -0.114  -4.085   0.155  0.00  0.00    -0.249 N 
ATOM     22  H   UNL     1       0.051  -3.136   0.271  0.00  0.00    +0.172 HD
BRANCH  21  27
ATOM     23  C   UNL     1      -1.160  -6.172  -5.013  0.00  0.00    +0.044 C 
ATOM     24  C   UNL     1      -0.881  -5.617  -3.639  0.00  0.00    -0.050 A 
ATOM     25  C   UNL     1      -0.764  -4.251  -3.458  0.00  0.00    +0.005 A 
ATOM     26  C   UNL     1      -0.510  -3.740  -2.200  0.00  0.00    +0.025 A 
ATOM     27  C   UNL     1      -0.372  -4.599  -1.117  0.00  0.00    +0.046 A 
ATOM     28  C   UNL     1      -0.490  -5.970  -1.304  0.00  0.00    +0.025 A 
ATOM     29  C   UNL     1      -0.750  -6.475  -2.563  0.00  0.00    +0.005 A 
ENDBRANCH  21  27
ENDBRANCH   1  21
BRANCH   1  30
ATOM     30  N   UNL     1       1.100  -5.334   1.801  0.00  0.00    -0.218 NA
ATOM     31  H   UNL     1       1.027  -6.255   2.208  0.00  0.00    +0.146 HD
BRANCH  30  32
ATOM     32  C   UNL     1       1.582  -4.359   2.788  0.00  0.00    +0.075 C 
ATOM     33  C   UNL     1       2.460  -3.318   2.091  0.00  0.00    +0.020 C 
ATOM     34  C   UNL     1       2.962  -2.303   3.119  0.00  0.00    +0.002 C 
ATOM     35  C   UNL     1       3.780  -3.025   4.192  0.00  0.00    +0.000 C 
ATOM     36  C   UNL     1       2.902  -4.065   4.889  0.00  0.00    +0.002 C 
ATOM     37  C   UNL     1       2.400  -5.081   3.861  0.00  0.00    +0.020 C 
ENDBRANCH  30  32
ENDBRANCH   1  30
TORSDOF 4
