REMARK  Name = ZINC02101893
REMARK  9 active torsions:
REMARK  status: ('A' for Active; 'I' for Inactive)
REMARK    1  A    between atoms: C_1  and  C_2
REMARK    2  A    between atoms: C_2  and  O_3
REMARK    3  A    between atoms: O_3  and  C_4
REMARK    4  A    between atoms: C_4  and  C_6
REMARK    5  A    between atoms: C_7  and  N_18
REMARK    6  A    between atoms: C_10  and  O_16
REMARK    7  A    between atoms: O_16  and  C_17
REMARK    8  A    between atoms: C_19  and  C_21
REMARK    9  A    between atoms: C_21  and  N_62
REMARK                            x       y       z     vdW  Elec       q    Type
REMARK                         _______ _______ _______ _____ _____    ______ ____
ROOT
ATOM      1  N   UNL     1      -3.716   2.896  -3.681  0.00  0.00    -0.285 N 
ATOM      2  C   UNL     1      -2.820   2.502  -2.755  0.00  0.00    +0.201 C 
ATOM      3  O   UNL     1      -3.040   1.521  -2.077  0.00  0.00    -0.278 OA
ATOM      4  H   UNL     1      -3.515   3.646  -4.263  0.00  0.00    +0.155 HD
ENDROOT
BRANCH   1   6
ATOM      5  C   UNL     1      -5.707   2.130  -4.939  0.00  0.00    +0.147 A 
ATOM      6  C   UNL     1      -4.930   2.227  -3.803  0.00  0.00    +0.073 A 
ATOM      7  C   UNL     1      -5.629   1.484  -2.751  0.00  0.00    +0.025 A 
ATOM      8  C   UNL     1      -5.350   1.234  -1.404  0.00  0.00    +0.057 A 
ATOM      9  C   UNL     1      -6.232   0.485  -0.652  0.00  0.00    +0.121 A 
ATOM     10  C   UNL     1      -7.398  -0.014  -1.229  0.00  0.00    +0.047 A 
ATOM     11  C   UNL     1      -7.687   0.231  -2.552  0.00  0.00    +0.030 A 
ATOM     12  C   UNL     1      -6.810   0.985  -3.329  0.00  0.00    +0.049 A 
ATOM     13  N   UNL     1      -6.838   1.381  -4.648  0.00  0.00    -0.348 N 
ATOM     14  H   UNL     1      -7.543   1.168  -5.279  0.00  0.00    +0.166 HD
BRANCH   5  15
ATOM     15  C   UNL     1      -5.399   2.702  -6.199  0.00  0.00    +0.358 C 
ATOM     16  O   UNL     1      -4.325   3.245  -6.375  0.00  0.00    -0.243 OA
BRANCH  15  17
ATOM     17  O   UNL     1      -6.299   2.645  -7.204  0.00  0.00    -0.460 OA
BRANCH  17  19
ATOM     18  C   UNL     1      -7.060   3.080  -9.456  0.00  0.00    +0.048 C 
ATOM     19  C   UNL     1      -5.922   3.242  -8.446  0.00  0.00    +0.229 C 
ENDBRANCH  17  19
ENDBRANCH  15  17
ENDBRANCH   5  15
BRANCH   9  20
ATOM     20  O   UNL     1      -5.962   0.233   0.657  0.00  0.00    -0.495 OA
ATOM     21  C   UNL     1      -6.917  -0.548   1.377  0.00  0.00    +0.277 C 
ENDBRANCH   9  20
ENDBRANCH   1   6
BRANCH   2  22
ATOM     22  C   UNL     1      -1.544   3.281  -2.562  0.00  0.00    +0.019 C 
BRANCH  22  36
ATOM     23  C   UNL     1       0.454   3.391  -1.215  0.00  0.00    -0.073 C 
ATOM     24  C   UNL     1       1.334   2.681  -0.197  0.00  0.00    -0.007 C 
ATOM     25  C   UNL     1       1.810   1.335  -0.751  0.00  0.00    +0.011 C 
ATOM     26  C   UNL     1       0.565   0.523  -1.127  0.00  0.00    +0.020 C 
ATOM     27  C   UNL     1      -0.197   1.298  -2.215  0.00  0.00    -0.069 C 
ATOM     28  C   UNL     1      -0.343   0.419   0.078  0.00  0.00    +0.023 A 
ATOM     29  C   UNL     1      -1.177  -0.651   0.142  0.00  0.00    +0.022 A 
ATOM     30  C   UNL     1      -2.133  -0.747   1.160  0.00  0.00    +0.007 A 
ATOM     31  C   UNL     1      -2.220   0.259   2.078  0.00  0.00    +0.070 A 
ATOM     32  C   UNL     1      -1.335   1.342   1.990  0.00  0.00    +0.251 A 
ATOM     33  O   UNL     1      -1.434   2.267   2.780  0.00  0.00    -0.268 OA
ATOM     34  N   UNL     1      -0.371   1.374   1.037  0.00  0.00    -0.312 N 
ATOM     35  C   UNL     1       0.608   2.458   1.119  0.00  0.00    +0.126 C 
ATOM     36  N   UNL     1      -0.682   2.554  -1.604  0.00  0.00    +0.386 N 
ATOM     37  H   UNL     1      -1.232   2.327  -0.767  0.00  0.00    -0.081 HD
ENDBRANCH  22  36
ENDBRANCH   2  22
TORSDOF 7
