REMARK  Name = ZINC10390021
REMARK  10 active torsions:
REMARK  status: ('A' for Active; 'I' for Inactive)
REMARK    1  A    between atoms: C_1  and  C_2
REMARK    2  A    between atoms: C_2  and  O_3
REMARK    3  A    between atoms: O_3  and  C_4
REMARK    4  A    between atoms: C_4  and  C_6
REMARK    5  A    between atoms: C_7  and  C_19
REMARK    6  A    between atoms: C_12  and  C_14
REMARK    7  A    between atoms: C_19  and  O_20
REMARK    8  A    between atoms: O_20  and  C_21
REMARK    9  A    between atoms: C_21  and  C_23
REMARK   10  A    between atoms: C_23  and  C_24
REMARK                            x       y       z     vdW  Elec       q    Type
REMARK                         _______ _______ _______ _____ _____    ______ ____
ROOT
ATOM      1  C   UNL     1       3.039   1.245   1.379  0.00  0.00    +0.082 C 
ATOM      2  C   UNL     1       4.154   1.934   1.702  0.00  0.00    +0.061 C 
ATOM      3  N   UNL     1       4.825   2.667   0.765  0.00  0.00    -0.269 N 
ATOM      4  C   UNL     1       4.447   2.759  -0.516  0.00  0.00    +0.304 C 
ATOM      5  O   UNL     1       5.109   3.436  -1.278  0.00  0.00    -0.252 OA
ATOM      6  N   UNL     1       3.354   2.127  -0.989  0.00  0.00    -0.288 N 
ATOM      7  C   UNL     1       2.560   1.309  -0.056  0.00  0.00    +0.150 C 
ATOM      8  H   UNL     1       5.621   3.147   1.043  0.00  0.00    +0.156 HD
ATOM      9  H   UNL     1       3.098   2.207  -1.921  0.00  0.00    +0.151 HD
ENDROOT
BRANCH   7  10
ATOM     10  C   UNL     1       1.152   1.847  -0.052  0.00  0.00    +0.015 A 
ATOM     11  C   UNL     1      -0.021   1.168  -0.086  0.00  0.00    +0.013 A 
ATOM     12  C   UNL     1      -1.207   1.878  -0.080  0.00  0.00    +0.008 A 
ATOM     13  C   UNL     1      -1.162   3.232  -0.029  0.00  0.00    +0.045 A 
ATOM     14  S   UNL     1       0.596   3.542  -0.001  0.00  0.00    -0.099 S 
ENDBRANCH   7  10
BRANCH   1  15
ATOM     15  C   UNL     1       2.343   0.487   2.350  0.00  0.00    +0.339 C 
ATOM     16  O   UNL     1       2.682   0.535   3.518  0.00  0.00    -0.245 OA
BRANCH  15  17
ATOM     17  O   UNL     1       1.302  -0.288   1.981  0.00  0.00    -0.462 OA
BRANCH  17  19
ATOM     18  C   UNL     1      -0.501  -1.839   2.408  0.00  0.00    +0.048 C 
ATOM     19  C   UNL     1       0.644  -1.026   3.013  0.00  0.00    +0.229 C 
ENDBRANCH  17  19
ENDBRANCH  15  17
ENDBRANCH   1  15
BRANCH   2  20
ATOM     20  C   UNL     1       4.665   1.897   3.119  0.00  0.00    +0.283 C 
BRANCH  20  21
ATOM     21  O   UNL     1       5.926   2.613   3.198  0.00  0.00    -0.458 OA
BRANCH  21  22
ATOM     22  C   UNL     1       6.518   2.673   4.401  0.00  0.00    +0.312 C 
ATOM     23  O   UNL     1       6.001   2.144   5.356  0.00  0.00    -0.250 OA
BRANCH  22  24
ATOM     24  C   UNL     1       7.829   3.400   4.560  0.00  0.00    +0.160 C 
BRANCH  24  25
ATOM     25  C   UNL     1       8.277   3.320   5.997  0.00  0.00    +0.017 A 
ATOM     26  C   UNL     1       9.074   2.269   6.417  0.00  0.00    +0.128 A 
ATOM     27  C   UNL     1       9.484   2.196   7.737  0.00  0.00    +0.039 A 
ATOM     28  C   UNL     1       9.098   3.174   8.635  0.00  0.00    +0.004 A 
ATOM     29  C   UNL     1       8.303   4.223   8.216  0.00  0.00    +0.020 A 
ATOM     30  C   UNL     1       7.896   4.300   6.896  0.00  0.00    +0.047 A 
ATOM     31 CL   UNL     1       6.902   5.622   6.369  0.00  0.00    -0.083 Cl
ATOM     32  F   UNL     1       9.451   1.314   5.538  0.00  0.00    -0.205 F 
ENDBRANCH  24  25
ENDBRANCH  22  24
ENDBRANCH  21  22
ENDBRANCH  20  21
ENDBRANCH   2  20
TORSDOF 9
