REMARK  Name = ZINC05091793
REMARK  7 active torsions:
REMARK  status: ('A' for Active; 'I' for Inactive)
REMARK    1  A    between atoms: C_1  and  C_2
REMARK    2  A    between atoms: C_5  and  C_9
REMARK    3  A    between atoms: C_6  and  C_8
REMARK    4  A    between atoms: C_9  and  N_49
REMARK    5  A    between atoms: N_12  and  N_15
REMARK    6  A    between atoms: C_16  and  C_17
REMARK    7  A    between atoms: C_22  and  O_23
REMARK                            x       y       z     vdW  Elec       q    Type
REMARK                         _______ _______ _______ _____ _____    ______ ____
ROOT
ATOM      1  C   UNL     1       3.101   7.314   0.017  0.00  0.00    -0.058 C 
ATOM      2  C   UNL     1       2.909   6.482  -1.256  0.00  0.00    +0.107 C 
ATOM      3  N   UNL     1       1.638   5.749  -1.147  0.00  0.00    -0.259 N 
ATOM      4  C   UNL     1       0.425   6.507  -0.804  0.00  0.00    +0.107 C 
ATOM      5  C   UNL     1       0.716   7.338   0.456  0.00  0.00    -0.058 C 
ATOM      6  N   UNL     1       1.911   8.173   0.206  0.00  0.00    +0.384 N 
ATOM      7  H   UNL     1       1.760   8.725  -0.646  0.00  0.00    -0.081 HD
ENDROOT
BRANCH   3   8
ATOM      8  N   UNL     1       1.583   4.367  -1.370  0.00  0.00    -0.192 NA
ATOM      9  C   UNL     1       0.439   3.756  -1.375  0.00  0.00    +0.141 C 
BRANCH   9  10
ATOM     10  C   UNL     1       0.389   2.287  -1.494  0.00  0.00    +0.037 A 
ATOM     11  C   UNL     1      -0.841   1.625  -1.500  0.00  0.00    +0.028 A 
ATOM     12  C   UNL     1      -0.881   0.250  -1.611  0.00  0.00    +0.019 A 
ATOM     13  C   UNL     1       0.293  -0.476  -1.718  0.00  0.00    +0.019 A 
ATOM     14  C   UNL     1       1.516   0.169  -1.712  0.00  0.00    +0.047 A 
ATOM     15  C   UNL     1       1.574   1.548  -1.601  0.00  0.00    +0.126 A 
ATOM     16 BR   UNL     1      -2.546  -0.646  -1.619  0.00  0.00    -0.050 Br
BRANCH  15  17
ATOM     17  O   UNL     1       2.776   2.182  -1.595  0.00  0.00    -0.506 OA
ATOM     18  H   UNL     1       3.089   2.438  -2.473  0.00  0.00    +0.292 HD
ENDBRANCH  15  17
ENDBRANCH   9  10
ENDBRANCH   3   8
BRANCH   6  19
ATOM     19  C   UNL     1       2.130   9.093   1.341  0.00  0.00    -0.043 C 
BRANCH  19  24
ATOM     20  C   UNL     1      -2.724  12.078   2.305  0.00  0.00    +0.044 C 
ATOM     21  C   UNL     1      -1.458  11.299   2.053  0.00  0.00    -0.050 A 
ATOM     22  C   UNL     1      -1.068  10.311   2.938  0.00  0.00    +0.003 A 
ATOM     23  C   UNL     1       0.093   9.597   2.707  0.00  0.00    +0.002 A 
ATOM     24  C   UNL     1       0.864   9.871   1.592  0.00  0.00    -0.061 A 
ATOM     25  C   UNL     1       0.476  10.863   0.711  0.00  0.00    -0.049 A 
ATOM     26  C   UNL     1      -0.688  11.574   0.939  0.00  0.00    +0.007 A 
ATOM     27  C   UNL     1       1.319  11.166  -0.500  0.00  0.00    +0.044 C 
ENDBRANCH  19  24
ENDBRANCH   6  19
TORSDOF 5
