REMARK  Name = ZINC12462916
REMARK  8 active torsions:
REMARK  status: ('A' for Active; 'I' for Inactive)
REMARK    1  A    between atoms: C_1  and  C_2
REMARK    2  A    between atoms: C_6  and  N_9
REMARK    3  A    between atoms: C_7  and  C_8
REMARK    4  A    between atoms: N_19  and  N_20
REMARK    5  A    between atoms: C_21  and  C_22
REMARK    6  A    between atoms: C_25  and  C_27
REMARK    7  A    between atoms: C_30  and  N_34
REMARK    8  A    between atoms: C_31  and  C_33
REMARK                            x       y       z     vdW  Elec       q    Type
REMARK                         _______ _______ _______ _____ _____    ______ ____
ROOT
ATOM      1  N   UNL     1       4.206   1.700   1.437  0.00  0.00    -0.296 N 
ATOM      2  C   UNL     1       4.125   3.078   1.439  0.00  0.00    +0.167 A 
ATOM      3  C   UNL     1       5.307   3.876   1.093  0.00  0.00    +0.181 A 
ATOM      4  N   UNL     1       5.250   5.191   1.084  0.00  0.00    -0.202 NA
ATOM      5  C   UNL     1       4.107   5.805   1.402  0.00  0.00    +0.244 A 
ATOM      6  C   UNL     1       2.913   5.000   1.757  0.00  0.00    +0.244 A 
ATOM      7  N   UNL     1       2.988   3.664   1.756  0.00  0.00    -0.203 NA
ATOM      8  N   UNL     1       2.007   5.918   2.003  0.00  0.00    -0.027 NA
ATOM      9  O   UNL     1       2.500   7.015   1.844  0.00  0.00    -0.238 OA
ATOM     10  N   UNL     1       3.666   7.038   1.510  0.00  0.00    -0.027 NA
ATOM     11  N   UNL     1       6.489   3.240   0.769  0.00  0.00    -0.218 N 
ATOM     12  H   UNL     1       5.061   1.264   1.296  0.00  0.00    +0.154 HD
ATOM     13  H   UNL     1       6.535   2.272   0.771  0.00  0.00    +0.176 HD
ENDROOT
BRANCH   1  19
ATOM     14  C   UNL     1       2.142  -2.568   2.735  0.00  0.00    +0.044 C 
ATOM     15  C   UNL     1       2.026  -1.140   2.267  0.00  0.00    -0.046 A 
ATOM     16  C   UNL     1       0.778  -0.588   2.037  0.00  0.00    +0.004 A 
ATOM     17  C   UNL     1       0.667   0.722   1.609  0.00  0.00    +0.002 A 
ATOM     18  C   UNL     1       1.802   1.484   1.409  0.00  0.00    +0.023 A 
ATOM     19  C   UNL     1       3.056   0.932   1.638  0.00  0.00    +0.036 A 
ATOM     20  C   UNL     1       3.164  -0.385   2.069  0.00  0.00    -0.026 A 
ATOM     21  C   UNL     1       4.523  -0.987   2.320  0.00  0.00    +0.046 C 
ENDBRANCH   1  19
BRANCH  11  22
ATOM     22  N   UNL     1       7.532   3.936   0.464  0.00  0.00    -0.186 NA
ATOM     23  C   UNL     1       8.672   3.323   0.152  0.00  0.00    +0.176 C 
BRANCH  23  24
ATOM     24  C   UNL     1       9.793   4.070  -0.175  0.00  0.00    +0.148 A 
ATOM     25  C   UNL     1      11.114   3.543  -0.540  0.00  0.00    +0.051 A 
ATOM     26  C   UNL     1      11.903   4.624  -0.779  0.00  0.00    +0.050 A 
ATOM     27  C   UNL     1      11.117   5.779  -0.575  0.00  0.00    +0.136 A 
ATOM     28  O   UNL     1       9.871   5.418  -0.224  0.00  0.00    -0.454 OA
BRANCH  27  29
ATOM     29  C   UNL     1      11.585   7.156  -0.728  0.00  0.00    +0.018 A 
ATOM     30  C   UNL     1      12.914   7.414  -1.107  0.00  0.00    +0.014 A 
ATOM     31  C   UNL     1      13.344   8.714  -1.248  0.00  0.00    +0.033 A 
ATOM     32  C   UNL     1      12.472   9.767  -1.018  0.00  0.00    +0.129 A 
ATOM     33  C   UNL     1      11.159   9.524  -0.644  0.00  0.00    -0.020 A 
ATOM     34  C   UNL     1      10.707   8.231  -0.503  0.00  0.00    +0.017 A 
ATOM     35  C   UNL     1      10.222  10.678  -0.398  0.00  0.00    +0.046 C 
BRANCH  32  36
ATOM     36  N   UNL     1      12.945  11.161  -1.174  0.00  0.00    +0.057 N 
ATOM     37  O   UNL     1      12.144  12.076  -1.679  0.00  0.00    -0.126 OA
ATOM     38  O   UNL     1      14.168  11.486  -0.807  0.00  0.00    -0.126 OA
ENDBRANCH  32  36
ENDBRANCH  27  29
ENDBRANCH  23  24
ENDBRANCH  11  22
TORSDOF 5
