REMARK  Name = ZINC50441523
REMARK  9 active torsions:
REMARK  status: ('A' for Active; 'I' for Inactive)
REMARK    1  A    between atoms: C_1  and  C_2
REMARK    2  A    between atoms: C_2  and  C_3
REMARK    3  A    between atoms: C_2  and  N_4
REMARK    4  A    between atoms: N_4  and  C_5
REMARK    5  A    between atoms: C_5  and  C_7
REMARK    6  A    between atoms: C_5  and  C_20
REMARK    7  A    between atoms: C_7  and  O_8
REMARK    8  A    between atoms: O_8  and  C_9
REMARK    9  A    between atoms: C_12  and  N_16
REMARK                            x       y       z     vdW  Elec       q    Type
REMARK                         _______ _______ _______ _____ _____    ______ ____
ROOT
ATOM      1  C   UNL     1      -2.784  -2.516   0.019  0.00  0.00    +0.222 C 
ENDROOT
BRANCH   1   2
ATOM      2  C   UNL     1      -1.359  -1.976  -0.116  0.00  0.00    +0.054 C 
BRANCH   2   3
ATOM      3  C   UNL     1      -0.804  -2.355  -1.465  0.00  0.00    +0.200 C 
ATOM      4  O   UNL     1      -0.458  -1.491  -2.243  0.00  0.00    -0.278 OA
ATOM      5  N   UNL     1      -0.694  -3.654  -1.808  0.00  0.00    -0.331 N 
ATOM      6  H   UNL     1      -0.972  -4.345  -1.186  0.00  0.00    +0.145 HD
ATOM      7  H   UNL     1      -0.337  -3.898  -2.676  0.00  0.00    +0.145 HD
ENDBRANCH   2   3
BRANCH   2   8
ATOM      8  N   UNL     1      -1.376  -0.512   0.012  0.00  0.00    +0.390 N 
ATOM      9  H   UNL     1      -1.823  -0.256   0.880  0.00  0.00    -0.084 HD
ATOM     10  H   UNL     1      -1.888  -0.113  -0.760  0.00  0.00    -0.084 HD
BRANCH   8  12
ATOM     11  C   UNL     1      -0.019   1.526   0.010  0.00  0.00    -0.014 C 
ATOM     12  C   UNL     1       0.002  -0.004   0.002  0.00  0.00    -0.077 C 
ATOM     13  C   UNL     1       0.742  -0.511   1.242  0.00  0.00    -0.014 C 
ENDBRANCH   8  12
ENDBRANCH   2   8
ENDBRANCH   1   2
BRANCH   1  14
ATOM     14  O   UNL     1      -3.577  -2.050  -1.074  0.00  0.00    -0.491 OA
BRANCH  14  15
ATOM     15  C   UNL     1      -4.878  -2.442  -1.105  0.00  0.00    +0.148 A 
ATOM     16  C   UNL     1      -5.235  -3.616  -1.752  0.00  0.00    +0.063 A 
ATOM     17  C   UNL     1      -6.559  -4.013  -1.782  0.00  0.00    +0.051 A 
ATOM     18  C   UNL     1      -7.527  -3.240  -1.167  0.00  0.00    +0.129 A 
ATOM     19  C   UNL     1      -7.174  -2.070  -0.520  0.00  0.00    +0.051 A 
ATOM     20  C   UNL     1      -5.851  -1.672  -0.483  0.00  0.00    +0.063 A 
ATOM     21 BR   UNL     1      -5.368  -0.075   0.407  0.00  0.00    -0.046 Br
ATOM     22 BR   UNL     1      -3.912  -4.672  -2.595  0.00  0.00    -0.046 Br
BRANCH  18  23
ATOM     23  N   UNL     1      -8.944  -3.667  -1.200  0.00  0.00    +0.056 N 
ATOM     24  O   UNL     1      -9.254  -4.690  -1.765  0.00  0.00    -0.126 OA
ATOM     25  O   UNL     1      -9.791  -2.993  -0.663  0.00  0.00    -0.126 OA
ENDBRANCH  18  23
ENDBRANCH  14  15
ENDBRANCH   1  14
TORSDOF 7
