REMARK  Name = ZINC38913415
REMARK  3 active torsions:
REMARK  status: ('A' for Active; 'I' for Inactive)
REMARK    1  A    between atoms: C_5  and  N_7
REMARK    2  A    between atoms: C_9  and  C_14
REMARK    3  A    between atoms: C_16  and  C_19
REMARK                            x       y       z     vdW  Elec       q    Type
REMARK                         _______ _______ _______ _____ _____    ______ ____
ROOT
ATOM      1  N   UNL     1       1.237  -2.073  -0.019  0.00  0.00    -0.270 N 
ATOM      2  C   UNL     1       1.252  -2.909   1.188  0.00  0.00    +0.127 C 
ATOM      3  C   UNL     1       0.837  -4.320   0.717  0.00  0.00    +0.104 C 
ATOM      4  C   UNL     1       1.260  -4.293  -0.770  0.00  0.00    +0.111 C 
ATOM      5  C   UNL     1       1.240  -2.825  -1.133  0.00  0.00    +0.221 C 
ATOM      6  O   UNL     1       1.232  -2.389  -2.265  0.00  0.00    -0.275 OA
ENDROOT
BRANCH   1  11
ATOM      7  C   UNL     1      -0.017   1.377   0.010  0.00  0.00    +0.002 A 
ATOM      8  C   UNL     1       1.171   2.080   0.002  0.00  0.00    +0.004 A 
ATOM      9  C   UNL     1       2.390   1.413  -0.011  0.00  0.00    -0.042 A 
ATOM     10  C   UNL     1       2.415   0.038  -0.014  0.00  0.00    -0.023 A 
ATOM     11  C   UNL     1       1.215  -0.674  -0.010  0.00  0.00    +0.040 A 
ATOM     12  C   UNL     1       0.002  -0.004   0.002  0.00  0.00    +0.024 A 
ATOM     13  C   UNL     1       3.699  -0.750  -0.012  0.00  0.00    +0.037 C 
ATOM     14  C   UNL     1       4.870   0.129  -0.445  0.00  0.00    +0.005 C 
ATOM     15  C   UNL     1       4.850   1.410   0.397  0.00  0.00    +0.005 C 
ATOM     16  C   UNL     1       3.644   2.247  -0.027  0.00  0.00    +0.035 C 
ENDBRANCH   1  11
BRANCH   3  17
ATOM     17  C   UNL     1       1.591  -5.384   1.473  0.00  0.00    +0.233 A 
ATOM     18  N   UNL     1       1.057  -6.316   2.210  0.00  0.00    -0.191 NA
ATOM     19  C   UNL     1       2.020  -7.095   2.738  0.00  0.00    +0.209 A 
ATOM     20  N   UNL     1       3.187  -6.651   2.330  0.00  0.00    -0.056 NA
ATOM     21  O   UNL     1       2.922  -5.534   1.495  0.00  0.00    -0.337 OA
BRANCH  19  22
ATOM     22  C   UNL     1       1.801  -8.254   3.627  0.00  0.00    +0.060 A 
ATOM     23  C   UNL     1       2.724  -9.086   4.204  0.00  0.00    +0.019 A 
ATOM     24  C   UNL     1       2.280 -10.112   5.007  0.00  0.00    +0.008 A 
ATOM     25  C   UNL     1       0.944 -10.269   5.202  0.00  0.00    +0.046 A 
ATOM     26  S   UNL     1       0.265  -8.931   4.236  0.00  0.00    -0.093 S 
ENDBRANCH  19  22
ENDBRANCH   3  17
TORSDOF 3
