REMARK  Name = ZINC33115702
REMARK  3 active torsions:
REMARK  status: ('A' for Active; 'I' for Inactive)
REMARK    1  A    between atoms: C_1  and  C_2
REMARK    2  A    between atoms: C_6  and  C_8
REMARK    3  A    between atoms: C_26  and  C_28
REMARK                            x       y       z     vdW  Elec       q    Type
REMARK                         _______ _______ _______ _____ _____    ______ ____
ROOT
ATOM      1  C   UNL     1       1.730  -1.638  -0.118  0.00  0.00    +0.154 C 
ATOM      2  C   UNL     1       1.475  -0.264  -0.661  0.00  0.00    +0.049 A 
ATOM      3  C   UNL     1       2.300   0.790  -0.733  0.00  0.00    +0.025 A 
ATOM      4  C   UNL     1       1.561   1.872  -1.260  0.00  0.00    +0.020 A 
ATOM      5  C   UNL     1       0.306   1.428  -1.501  0.00  0.00    +0.092 A 
ATOM      6  N   UNL     1       0.252   0.120  -1.162  0.00  0.00    -0.312 N 
ATOM      7  C   UNL     1      -0.767  -0.818  -1.274  0.00  0.00    +0.090 A 
ATOM      8  C   UNL     1      -0.594  -2.077  -1.758  0.00  0.00    +0.004 A 
ATOM      9  C   UNL     1      -1.728  -2.915  -1.773  0.00  0.00    -0.030 A 
ATOM     10  C   UNL     1      -2.903  -2.394  -1.333  0.00  0.00    -0.005 A 
ATOM     11  S   UNL     1      -2.484  -0.732  -0.869  0.00  0.00    -0.075 S 
ATOM     12  C   UNL     1      -4.234  -3.070  -1.263  0.00  0.00    +0.043 C 
ATOM     13  C   UNL     1      -4.165  -4.356  -2.102  0.00  0.00    +0.005 C 
ATOM     14  C   UNL     1      -2.885  -5.112  -1.738  0.00  0.00    +0.005 C 
ATOM     15  C   UNL     1      -1.663  -4.358  -2.265  0.00  0.00    +0.036 C 
ATOM     16  C   UNL     1       0.761  -2.516  -2.269  0.00  0.00    +0.147 C 
ATOM     17  N   UNL     1       1.756  -2.660  -1.192  0.00  0.00    -0.282 N 
ATOM     18  C   UNL     1       2.647  -3.671  -1.184  0.00  0.00    +0.246 C 
ATOM     19  O   UNL     1       3.493  -3.727  -0.317  0.00  0.00    -0.273 OA
ENDROOT
BRANCH   1  25
ATOM     20  C   UNL     1      -1.258  -5.042   2.011  0.00  0.00    +0.044 C 
ATOM     21  C   UNL     1      -0.786  -3.616   1.884  0.00  0.00    -0.050 A 
ATOM     22  C   UNL     1      -1.352  -2.628   2.669  0.00  0.00    +0.003 A 
ATOM     23  C   UNL     1      -0.919  -1.321   2.553  0.00  0.00    +0.001 A 
ATOM     24  C   UNL     1       0.082  -1.001   1.654  0.00  0.00    +0.006 A 
ATOM     25  C   UNL     1       0.643  -1.987   0.865  0.00  0.00    -0.021 A 
ATOM     26  C   UNL     1       0.210  -3.295   0.982  0.00  0.00    +0.009 A 
ENDBRANCH   1  25
BRANCH  18  27
ATOM     27  C   UNL     1       2.592  -4.732  -2.253  0.00  0.00    +0.204 C 
ATOM     28  C   UNL     1       1.372  -5.654  -2.033  0.00  0.00    +0.043 C 
ATOM     29  C   UNL     1       1.885  -7.057  -2.429  0.00  0.00    +0.031 C 
ATOM     30  C   UNL     1       3.354  -6.817  -2.841  0.00  0.00    +0.161 C 
ATOM     31  O   UNL     1       3.737  -5.607  -2.153  0.00  0.00    -0.367 OA
ENDBRANCH  18  27
TORSDOF 2
