REMARK  Name = ZINC63697928
REMARK  5 active torsions:
REMARK  status: ('A' for Active; 'I' for Inactive)
REMARK    1  A    between atoms: C_1  and  C_2
REMARK    2  A    between atoms: C_2  and  O_3
REMARK    3  A    between atoms: O_3  and  C_4
REMARK    4  A    between atoms: C_7  and  C_10
REMARK    5  A    between atoms: C_25  and  C_27
REMARK                            x       y       z     vdW  Elec       q    Type
REMARK                         _______ _______ _______ _____ _____    ______ ____
ROOT
ATOM      1  C   UNL     1      -1.754  -6.103  -0.467  0.00  0.00    +0.133 C 
ATOM      2  C   UNL     1      -1.655  -7.169   0.630  0.00  0.00    +0.131 C 
ATOM      3  C   UNL     1      -1.821  -8.518  -0.058  0.00  0.00    -0.035 C 
ATOM      4  C   UNL     1      -0.746  -9.233   0.254  0.00  0.00    -0.001 A 
ATOM      5  C   UNL     1      -0.371 -10.623  -0.053  0.00  0.00    +0.010 A 
ATOM      6  C   UNL     1       0.832 -11.038   0.423  0.00  0.00    +0.001 A 
ATOM      7  C   UNL     1       1.689 -10.220   1.165  0.00  0.00    +0.002 A 
ATOM      8  C   UNL     1       1.423  -8.932   1.498  0.00  0.00    +0.026 A 
ATOM      9  C   UNL     1       0.184  -8.383   1.057  0.00  0.00    +0.043 A 
ATOM     10  N   UNL     1      -0.332  -7.183   1.258  0.00  0.00    -0.375 N 
ATOM     11  C   UNL     1      -2.989  -8.829  -0.961  0.00  0.00    +0.052 C 
ATOM     12  C   UNL     1      -3.083  -7.675  -1.976  0.00  0.00    +0.113 C 
ATOM     13  N   UNL     1      -2.949  -6.395  -1.274  0.00  0.00    -0.288 N 
ATOM     14  C   UNL     1      -3.932  -5.477  -1.366  0.00  0.00    +0.247 C 
ATOM     15  O   UNL     1      -3.778  -4.371  -0.885  0.00  0.00    -0.270 OA
ATOM     16  H   UNL     1       0.081  -6.441   1.726  0.00  0.00    +0.160 HD
ENDROOT
BRANCH  14  17
ATOM     17  C   UNL     1      -5.197  -5.815  -2.052  0.00  0.00    +0.037 A 
ATOM     18  C   UNL     1      -5.691  -7.120  -2.007  0.00  0.00    +0.014 A 
ATOM     19  C   UNL     1      -6.872  -7.430  -2.649  0.00  0.00    +0.016 A 
ATOM     20  C   UNL     1      -7.567  -6.449  -3.337  0.00  0.00    +0.018 A 
ATOM     21  C   UNL     1      -7.081  -5.153  -3.386  0.00  0.00    +0.016 A 
ATOM     22  C   UNL     1      -5.905  -4.830  -2.743  0.00  0.00    +0.014 A 
ATOM     23 BR   UNL     1      -9.184  -6.882  -4.215  0.00  0.00    -0.050 Br
ENDBRANCH  14  17
BRANCH   1  27
ATOM     24  C   UNL     1      -2.114  -2.232   1.307  0.00  0.00    +0.121 A 
ATOM     25  C   UNL     1      -2.821  -3.305   1.831  0.00  0.00    +0.046 A 
ATOM     26  C   UNL     1      -2.703  -4.555   1.256  0.00  0.00    +0.009 A 
ATOM     27  C   UNL     1      -1.881  -4.738   0.159  0.00  0.00    -0.025 A 
ATOM     28  C   UNL     1      -1.176  -3.671  -0.365  0.00  0.00    +0.009 A 
ATOM     29  C   UNL     1      -1.296  -2.417   0.202  0.00  0.00    +0.046 A 
BRANCH  24  30
ATOM     30  O   UNL     1      -2.229  -1.001   1.871  0.00  0.00    -0.492 OA
BRANCH  30  32
ATOM     31  C   UNL     1      -3.091   0.564   3.498  0.00  0.00    +0.048 C 
ATOM     32  C   UNL     1      -3.090  -0.885   3.005  0.00  0.00    +0.225 C 
ENDBRANCH  30  32
ENDBRANCH  24  30
ENDBRANCH   1  27
TORSDOF 4
