REMARK  Name = ZINC21248319
REMARK  2 active torsions:
REMARK  status: ('A' for Active; 'I' for Inactive)
REMARK    1  A    between atoms: C_6  and  C_11
REMARK    2  A    between atoms: C_16  and  C_21
REMARK                            x       y       z     vdW  Elec       q    Type
REMARK                         _______ _______ _______ _____ _____    ______ ____
ROOT
ATOM      1  C   UNL     1       2.429   1.012   0.015  0.00  0.00    +0.136 C 
ATOM      2  C   UNL     1       1.243   1.947   0.017  0.00  0.00    +0.036 C 
ATOM      3  C   UNL     1       1.298   3.289   0.000  0.00  0.00    +0.017 C 
ATOM      4  C   UNL     1       0.021   4.113   0.001  0.00  0.00    +0.059 C 
ATOM      5  C   UNL     1      -1.076   3.379   0.769  0.00  0.00    +0.032 C 
ATOM      6  C   UNL     1      -1.308   2.030   0.072  0.00  0.00    +0.088 C 
ATOM      7  C   UNL     1      -0.007   1.285   0.044  0.00  0.00    +0.163 C 
ATOM      8  O   UNL     1      -0.027   0.069   0.040  0.00  0.00    -0.292 OA
ATOM      9  N   UNL     1       2.441   4.021  -0.037  0.00  0.00    -0.316 N 
ATOM     10  C   UNL     1       3.554   3.802   0.769  0.00  0.00    +0.052 A 
ATOM     11  C   UNL     1       4.008   4.741   1.677  0.00  0.00    +0.025 A 
ATOM     12  C   UNL     1       5.171   4.491   2.386  0.00  0.00    +0.002 A 
ATOM     13  C   UNL     1       5.869   3.314   2.187  0.00  0.00    +0.002 A 
ATOM     14  C   UNL     1       5.401   2.363   1.297  0.00  0.00    +0.025 A 
ATOM     15  C   UNL     1       4.227   2.601   0.599  0.00  0.00    +0.049 A 
ATOM     16  N   UNL     1       3.695   1.651  -0.269  0.00  0.00    -0.331 N 
ATOM     17  H   UNL     1       2.535   4.859  -0.744  0.00  0.00    +0.152 HD
ATOM     18  H   UNL     1       4.252   1.389  -1.181  0.00  0.00    +0.147 HD
ENDROOT
BRANCH   1  24
ATOM     19  C   UNL     1       2.988  -0.753   6.202  0.00  0.00    +0.001 A 
ATOM     20  C   UNL     1       3.137   0.629   6.101  0.00  0.00    +0.001 A 
ATOM     21  C   UNL     1       3.062   1.256   4.896  0.00  0.00    +0.008 A 
ATOM     22  C   UNL     1       2.830   0.502   3.733  0.00  0.00    -0.018 A 
ATOM     23  C   UNL     1       2.745   1.114   2.471  0.00  0.00    +0.014 A 
ATOM     24  C   UNL     1       2.519   0.352   1.366  0.00  0.00    -0.022 A 
ATOM     25  C   UNL     1       2.364  -1.030   1.468  0.00  0.00    +0.006 A 
ATOM     26  C   UNL     1       2.444  -1.657   2.673  0.00  0.00    +0.009 A 
ATOM     27  C   UNL     1       2.677  -0.903   3.835  0.00  0.00    -0.018 A 
ATOM     28  C   UNL     1       2.761  -1.515   5.098  0.00  0.00    +0.008 A 
ENDBRANCH   1  24
BRANCH   5  29
ATOM     29  C   UNL     1      -2.346   4.190   0.746  0.00  0.00    -0.043 A 
ATOM     30  C   UNL     1      -2.940   4.508  -0.461  0.00  0.00    +0.007 A 
ATOM     31  C   UNL     1      -4.108   5.247  -0.483  0.00  0.00    +0.038 A 
ATOM     32  C   UNL     1      -4.678   5.677   0.704  0.00  0.00    +0.123 A 
ATOM     33  C   UNL     1      -4.079   5.362   1.911  0.00  0.00    +0.038 A 
ATOM     34  C   UNL     1      -2.913   4.619   1.931  0.00  0.00    +0.007 A 
ATOM     35  F   UNL     1      -5.816   6.403   0.683  0.00  0.00    -0.205 F 
ENDBRANCH   5  29
TORSDOF 2
