REMARK  Name = ZINC20483311
REMARK  11 active torsions:
REMARK  status: ('A' for Active; 'I' for Inactive)
REMARK    1  A    between atoms: C_1  and  C_2
REMARK    2  A    between atoms: C_2  and  C_3
REMARK    3  A    between atoms: C_3  and  C_4
REMARK    4  A    between atoms: C_3  and  C_5
REMARK    5  A    between atoms: C_3  and  N_6
REMARK    6  A    between atoms: C_7  and  C_9
REMARK    7  A    between atoms: C_9  and  C_11
REMARK    8  A    between atoms: C_9  and  O_12
REMARK    9  A    between atoms: O_12  and  C_13
REMARK   10  A    between atoms: C_18  and  C_19
REMARK   11  A    between atoms: C_19  and  N_20
REMARK                            x       y       z     vdW  Elec       q    Type
REMARK                         _______ _______ _______ _____ _____    ______ ____
ROOT
ATOM      1  O   UNL     1      -1.064  -1.042  -2.263  0.00  0.00    -0.480 OA
ENDROOT
BRANCH   1   2
ATOM      2  C   UNL     1      -0.135  -0.221  -2.820  0.00  0.00    +0.123 A 
ATOM      3  C   UNL     1       0.630  -0.663  -3.890  0.00  0.00    +0.047 A 
ATOM      4  C   UNL     1       1.578   0.171  -4.450  0.00  0.00    +0.019 A 
ATOM      5  C   UNL     1       1.761   1.448  -3.949  0.00  0.00    +0.018 A 
ATOM      6  C   UNL     1       0.995   1.892  -2.887  0.00  0.00    +0.020 A 
ATOM      7  C   UNL     1       0.046   1.061  -2.323  0.00  0.00    -0.022 A 
ATOM      8 BR   UNL     1       3.059   2.587  -4.718  0.00  0.00    -0.050 Br
BRANCH   7   9
ATOM      9  C   UNL     1      -0.789   1.546  -1.165  0.00  0.00    -0.047 C 
BRANCH   9  10
ATOM     10  N   UNL     1      -0.239   1.016   0.090  0.00  0.00    +0.381 N 
ATOM     11  H   UNL     1      -0.848   1.370   0.935  0.00  0.00    -0.090 HD
ATOM     12  H   UNL     1       0.797   1.365   0.213  0.00  0.00    -0.090 HD
ATOM     13  H   UNL     1      -0.255  -0.083   0.062  0.00  0.00    -0.090 HD
ENDBRANCH   9  10
ENDBRANCH   7   9
ENDBRANCH   1   2
BRANCH   1  14
ATOM     14  C   UNL     1      -1.284  -2.301  -2.902  0.00  0.00    +0.255 C 
ATOM     15  C   UNL     1      -0.255  -3.316  -2.398  0.00  0.00    +0.062 C 
BRANCH  14  17
ATOM     16  N   UNL     1      -3.103  -3.967  -3.079  0.00  0.00    -0.307 N 
ATOM     17  C   UNL     1      -2.672  -2.792  -2.581  0.00  0.00    +0.254 C 
ATOM     18  O   UNL     1      -3.401  -2.129  -1.875  0.00  0.00    -0.272 OA
ATOM     19  H   UNL     1      -2.442  -4.569  -3.720  0.00  0.00    +0.149 HD
BRANCH  16  20
ATOM     20  C   UNL     1      -4.453  -4.444  -2.767  0.00  0.00    +0.029 C 
ATOM     21  C   UNL     1      -4.598  -4.609  -1.253  0.00  0.00    +0.031 C 
ATOM     22  C   UNL     1      -5.481  -3.430  -3.271  0.00  0.00    +0.031 C 
BRANCH  20  24
ATOM     23  C   UNL     1      -6.097  -6.291  -3.126  0.00  0.00    +0.006 C 
ATOM     24  C   UNL     1      -4.688  -5.793  -3.452  0.00  0.00    +0.022 C 
ENDBRANCH  20  24
ENDBRANCH  16  20
ENDBRANCH  14  17
ENDBRANCH   1  14
TORSDOF 7
