REMARK  Name = ZINC09594179
REMARK  5 active torsions:
REMARK  status: ('A' for Active; 'I' for Inactive)
REMARK    1  A    between atoms: C_4  and  C_7
REMARK    2  A    between atoms: C_18  and  C_20
REMARK    3  A    between atoms: C_20  and  N_58
REMARK    4  A    between atoms: N_23  and  S_26
REMARK    5  A    between atoms: S_26  and  C_29
REMARK                            x       y       z     vdW  Elec       q    Type
REMARK                         _______ _______ _______ _____ _____    ______ ____
ROOT
ATOM      1  C   UNL     1      -1.162   1.789   0.036  0.00  0.00    +0.149 C 
ATOM      2  C   UNL     1      -1.212   2.753  -1.159  0.00  0.00    +0.256 C 
ATOM      3  O   UNL     1      -2.345   3.612  -1.011  0.00  0.00    -0.488 OA
ATOM      4  C   UNL     1      -3.545   3.037  -0.736  0.00  0.00    +0.142 A 
ATOM      5  C   UNL     1      -4.716   3.735  -0.994  0.00  0.00    +0.047 A 
ATOM      6  C   UNL     1      -5.940   3.159  -0.714  0.00  0.00    +0.004 A 
ATOM      7  C   UNL     1      -6.007   1.887  -0.175  0.00  0.00    +0.002 A 
ATOM      8  C   UNL     1      -4.845   1.184   0.084  0.00  0.00    +0.027 A 
ATOM      9  C   UNL     1      -3.614   1.758  -0.192  0.00  0.00    +0.079 A 
ATOM     10  N   UNL     1      -2.431   1.041   0.058  0.00  0.00    -0.259 N 
ATOM     11  C   UNL     1      -2.456  -0.282   0.313  0.00  0.00    +0.204 C 
ATOM     12  O   UNL     1      -3.517  -0.864   0.394  0.00  0.00    -0.277 OA
ENDROOT
BRANCH   1  16
ATOM     13  C   UNL     1      -0.716   4.000   3.663  0.00  0.00    +0.000 A 
ATOM     14  C   UNL     1       0.384   3.398   3.081  0.00  0.00    +0.000 A 
ATOM     15  C   UNL     1       0.239   2.682   1.907  0.00  0.00    +0.005 A 
ATOM     16  C   UNL     1      -1.005   2.569   1.315  0.00  0.00    -0.023 A 
ATOM     17  C   UNL     1      -2.103   3.176   1.895  0.00  0.00    +0.005 A 
ATOM     18  C   UNL     1      -1.960   3.888   3.071  0.00  0.00    +0.000 A 
ENDBRANCH   1  16
BRANCH  11  19
ATOM     19  C   UNL     1      -1.166  -1.038   0.498  0.00  0.00    +0.019 C 
BRANCH  19  25
ATOM     20  C   UNL     1      -2.195  -2.713   1.912  0.00  0.00    -0.061 C 
ATOM     21  C   UNL     1      -2.635  -4.180   1.961  0.00  0.00    +0.091 C 
ATOM     22  N   UNL     1      -1.451  -5.030   1.763  0.00  0.00    -0.180 NA
ATOM     23  C   UNL     1      -0.583  -4.756   0.608  0.00  0.00    +0.091 C 
ATOM     24  C   UNL     1      -0.224  -3.266   0.611  0.00  0.00    -0.061 C 
ATOM     25  N   UNL     1      -1.474  -2.476   0.642  0.00  0.00    +0.387 N 
ATOM     26  H   UNL     1      -2.072  -2.769  -0.140  0.00  0.00    -0.081 HD
BRANCH  22  27
ATOM     27  S   UNL     1      -1.104  -6.262   2.813  0.00  0.00    +0.067 S 
ATOM     28  O   UNL     1      -2.331  -6.627   3.431  0.00  0.00    -0.152 OA
ATOM     29  O   UNL     1      -0.306  -7.194   2.096  0.00  0.00    -0.152 OA
BRANCH  27  30
ATOM     30  C   UNL     1      -0.080  -5.593   4.082  0.00  0.00    +0.143 A 
ATOM     31  C   UNL     1      -0.440  -5.024   5.258  0.00  0.00    +0.036 A 
ATOM     32  C   UNL     1       0.547  -4.567   6.111  0.00  0.00    +0.010 A 
ATOM     33  C   UNL     1       1.845  -4.691   5.741  0.00  0.00    +0.047 A 
ATOM     34  S   UNL     1       1.701  -5.482   4.147  0.00  0.00    -0.077 S 
ENDBRANCH  27  30
ENDBRANCH  22  27
ENDBRANCH  19  25
ENDBRANCH  11  19
TORSDOF 5
