REMARK  Name = ZINC59461301
REMARK  10 active torsions:
REMARK  status: ('A' for Active; 'I' for Inactive)
REMARK    1  A    between atoms: C_1  and  C_2
REMARK    2  A    between atoms: C_4  and  C_35
REMARK    3  A    between atoms: C_5  and  N_9
REMARK    4  A    between atoms: C_6  and  C_8
REMARK    5  A    between atoms: C_10  and  C_12
REMARK    6  A    between atoms: C_12  and  S_13
REMARK    7  A    between atoms: S_13  and  C_14
REMARK    8  A    between atoms: C_19  and  N_23
REMARK    9  A    between atoms: C_24  and  C_25
REMARK   10  A    between atoms: C_27  and  N_32
REMARK                            x       y       z     vdW  Elec       q    Type
REMARK                         _______ _______ _______ _____ _____    ______ ____
ROOT
ATOM      1  C   UNL     1      -0.738  -8.847   2.096  0.00  0.00    +0.136 A 
ATOM      2  N   UNL     1      -0.991  -9.460   0.961  0.00  0.00    -0.233 NA
ATOM      3  C   UNL     1      -1.218 -10.789   0.889  0.00  0.00    +0.080 A 
ATOM      4  C   UNL     1      -1.501 -11.563  -0.262  0.00  0.00    +0.031 A 
ATOM      5  C   UNL     1      -1.709 -12.901  -0.173  0.00  0.00    +0.030 A 
ATOM      6  C   UNL     1      -1.653 -13.569   1.057  0.00  0.00    +0.065 A 
ATOM      7  C   UNL     1      -1.376 -12.836   2.215  0.00  0.00    +0.045 A 
ATOM      8  C   UNL     1      -1.167 -11.486   2.119  0.00  0.00    +0.042 A 
ATOM      9  S   UNL     1      -0.792 -10.189   3.275  0.00  0.00    -0.061 S 
ENDROOT
BRANCH   6  10
ATOM     10  N   UNL     1      -1.867 -14.918   1.125  0.00  0.00    -0.255 NA
ATOM     11  C   UNL     1      -2.860 -15.455   0.472  0.00  0.00    +0.123 C 
BRANCH  11  12
ATOM     12  C   UNL     1      -3.090 -16.905   0.544  0.00  0.00    +0.042 A 
ATOM     13  C   UNL     1      -4.150 -17.486  -0.159  0.00  0.00    +0.046 A 
ATOM     14  C   UNL     1      -4.359 -18.846  -0.086  0.00  0.00    +0.127 A 
ATOM     15  C   UNL     1      -3.524 -19.642   0.680  0.00  0.00    +0.036 A 
ATOM     16  C   UNL     1      -2.473 -19.082   1.380  0.00  0.00    +0.054 A 
ATOM     17  C   UNL     1      -2.243 -17.716   1.315  0.00  0.00    +0.188 A 
ATOM     18  O   UNL     1      -1.207 -17.166   1.997  0.00  0.00    -0.287 OA
BRANCH  14  19
ATOM     19  N   UNL     1      -5.482 -19.459  -0.831  0.00  0.00    +0.056 N 
ATOM     20  O   UNL     1      -6.213 -18.767  -1.500  0.00  0.00    -0.126 OA
ATOM     21  O   UNL     1      -5.668 -20.652  -0.769  0.00  0.00    -0.126 OA
ENDBRANCH  14  19
ENDBRANCH  11  12
ENDBRANCH   6  10
BRANCH   1  22
ATOM     22  S   UNL     1      -0.418  -7.138   2.382  0.00  0.00    -0.089 S 
BRANCH  22  23
ATOM     23  C   UNL     1      -0.526  -6.390   0.733  0.00  0.00    +0.172 C 
BRANCH  23  25
ATOM     24  N   UNL     1      -0.299  -4.141  -0.272  0.00  0.00    -0.284 N 
ATOM     25  C   UNL     1      -0.270  -4.908   0.836  0.00  0.00    +0.227 C 
ATOM     26  O   UNL     1      -0.036  -4.407   1.915  0.00  0.00    -0.275 OA
ATOM     27  H   UNL     1      -0.421  -4.551  -1.143  0.00  0.00    +0.155 HD
BRANCH  24  32
ATOM     28  C   UNL     1       0.286   1.486   0.157  0.00  0.00    +0.044 C 
ATOM     29  C   UNL     1       0.130  -0.009   0.043  0.00  0.00    -0.050 A 
ATOM     30  C   UNL     1       1.121  -0.844   0.526  0.00  0.00    +0.008 A 
ATOM     31  C   UNL     1       0.982  -2.215   0.423  0.00  0.00    -0.029 A 
ATOM     32  C   UNL     1      -0.155  -2.753  -0.166  0.00  0.00    +0.039 A 
ATOM     33  C   UNL     1      -1.148  -1.911  -0.649  0.00  0.00    -0.029 A 
ATOM     34  C   UNL     1      -1.005  -0.542  -0.539  0.00  0.00    +0.008 A 
ATOM     35  C   UNL     1      -2.383  -2.491  -1.289  0.00  0.00    +0.045 C 
ATOM     36  C   UNL     1       2.062  -3.124   0.949  0.00  0.00    +0.045 C 
ENDBRANCH  24  32
ENDBRANCH  23  25
ENDBRANCH  22  23
ENDBRANCH   1  22
TORSDOF 7
