REMARK  Name = ZINC09424067
REMARK  8 active torsions:
REMARK  status: ('A' for Active; 'I' for Inactive)
REMARK    1  A    between atoms: C_1  and  C_2
REMARK    2  A    between atoms: C_2  and  C_26
REMARK    3  A    between atoms: N_3  and  N_4
REMARK    4  A    between atoms: C_5  and  C_7
REMARK    5  A    between atoms: C_8  and  C_18
REMARK    6  A    between atoms: C_18  and  S_19
REMARK    7  A    between atoms: S_19  and  C_20
REMARK    8  A    between atoms: C_29  and  C_32
REMARK                            x       y       z     vdW  Elec       q    Type
REMARK                         _______ _______ _______ _____ _____    ______ ____
ROOT
ATOM      1  C   UNL     1       7.316  -0.442   1.025  0.00  0.00    +0.173 A 
ATOM      2  C   UNL     1       6.559  -0.108  -0.062  0.00  0.00    +0.089 A 
ATOM      3  N   UNL     1       7.285  -0.430  -1.156  0.00  0.00    -0.191 N 
ATOM      4  N   UNL     1       8.500  -0.957  -0.695  0.00  0.00    -0.058 NA
ATOM      5  N   UNL     1       8.482  -0.952   0.592  0.00  0.00    -0.124 NA
ATOM      6  C   UNL     1       6.899  -0.267  -2.491  0.00  0.00    +0.240 A 
ATOM      7  C   UNL     1       7.701  -0.623  -3.666  0.00  0.00    +0.206 A 
ATOM      8  N   UNL     1       7.015  -0.327  -4.736  0.00  0.00    -0.032 NA
ATOM      9  O   UNL     1       5.775   0.217  -4.319  0.00  0.00    -0.239 OA
ATOM     10  N   UNL     1       5.764   0.222  -2.903  0.00  0.00    -0.027 NA
ATOM     11  N   UNL     1       8.974  -1.181  -3.643  0.00  0.00    -0.337 N 
ATOM     12  H   UNL     1       9.490  -1.411  -4.587  0.00  0.00    +0.144 HD
ATOM     13  H   UNL     1       9.465  -1.392  -2.682  0.00  0.00    +0.144 HD
ENDROOT
BRANCH   1  15
ATOM     14  N   UNL     1       7.762  -0.642   3.421  0.00  0.00    -0.201 N 
ATOM     15  C   UNL     1       6.921  -0.271   2.436  0.00  0.00    +0.285 C 
ATOM     16  O   UNL     1       5.835   0.204   2.710  0.00  0.00    -0.267 OA
ATOM     17  H   UNL     1       8.744  -1.071   3.173  0.00  0.00    +0.178 HD
BRANCH  14  20
ATOM     18  C   UNL     1       9.542  -1.425   5.370  0.00  0.00    +0.068 C 
ATOM     19  C   UNL     1       8.197  -0.836   5.710  0.00  0.00    +0.063 C 
ATOM     20  N   UNL     1       7.386  -0.479   4.761  0.00  0.00    -0.184 NA
BRANCH  19  21
ATOM     21  C   UNL     1       7.801  -0.666   7.120  0.00  0.00    -0.003 A 
ATOM     22  C   UNL     1       8.668  -1.054   8.144  0.00  0.00    +0.010 A 
ATOM     23  C   UNL     1       8.294  -0.887   9.461  0.00  0.00    +0.004 A 
ATOM     24  C   UNL     1       7.058  -0.345   9.769  0.00  0.00    -0.044 A 
ATOM     25  C   UNL     1       6.192   0.037   8.760  0.00  0.00    +0.004 A 
ATOM     26  C   UNL     1       6.555  -0.120   7.439  0.00  0.00    +0.010 A 
BRANCH  24  27
ATOM     27  C   UNL     1       6.654  -0.171  11.210  0.00  0.00    +0.019 C 
ATOM     28  C   UNL     1       7.651   0.754  11.911  0.00  0.00    +0.008 C 
ATOM     29  C   UNL     1       7.241   0.932  13.374  0.00  0.00    +0.001 C 
ATOM     30  C   UNL     1       7.234  -0.431  14.070  0.00  0.00    +0.000 C 
ATOM     31  C   UNL     1       6.237  -1.356  13.370  0.00  0.00    +0.001 C 
ATOM     32  C   UNL     1       6.647  -1.534  11.906  0.00  0.00    +0.008 C 
ENDBRANCH  24  27
ENDBRANCH  19  21
ENDBRANCH  14  20
ENDBRANCH   1  15
BRANCH   2  33
ATOM     33  C   UNL     1       5.179   0.497  -0.045  0.00  0.00    +0.132 C 
BRANCH  33  34
ATOM     34  S   UNL     1       3.939  -0.827  -0.041  0.00  0.00    -0.119 S 
BRANCH  34  35
ATOM     35  C   UNL     1       2.400   0.031  -0.021  0.00  0.00    +0.008 A 
ATOM     36  C   UNL     1       1.206  -0.680  -0.013  0.00  0.00    +0.015 A 
ATOM     37  C   UNL     1       0.002  -0.004   0.002  0.00  0.00    +0.001 A 
ATOM     38  C   UNL     1      -0.017   1.379   0.010  0.00  0.00    +0.000 A 
ATOM     39  C   UNL     1       1.169   2.090   0.002  0.00  0.00    +0.001 A 
ATOM     40  C   UNL     1       2.377   1.421  -0.013  0.00  0.00    +0.015 A 
ENDBRANCH  34  35
ENDBRANCH  33  34
ENDBRANCH   2  33
TORSDOF 7
