REMARK  Name = ZINC11790670
REMARK  6 active torsions:
REMARK  status: ('A' for Active; 'I' for Inactive)
REMARK    1  A    between atoms: C_1  and  C_2
REMARK    2  A    between atoms: C_5  and  S_25
REMARK    3  A    between atoms: C_7  and  C_8
REMARK    4  A    between atoms: C_15  and  C_17
REMARK    5  A    between atoms: S_25  and  C_26
REMARK    6  A    between atoms: C_26  and  C_27
REMARK                            x       y       z     vdW  Elec       q    Type
REMARK                         _______ _______ _______ _____ _____    ______ ____
ROOT
ATOM      1  C   UNL     1       1.097   3.522   0.010  0.00  0.00    +0.055 C 
ATOM      2  C   UNL     1       0.358   4.025  -1.232  0.00  0.00    +0.013 C 
ATOM      3  C   UNL     1       0.353   5.555  -1.240  0.00  0.00    +0.020 C 
ATOM      4  C   UNL     1      -0.385   6.066   0.001  0.00  0.00    +0.108 C 
ATOM      5  N   UNL     1       0.230   5.471   1.195  0.00  0.00    -0.297 N 
ATOM      6  C   UNL     1       0.368   4.010   1.266  0.00  0.00    +0.117 C 
ATOM      7  C   UNL     1       0.660   6.251   2.207  0.00  0.00    +0.241 C 
ATOM      8  O   UNL     1       1.082   5.743   3.229  0.00  0.00    -0.271 OA
ENDROOT
BRANCH   7   9
ATOM      9  C   UNL     1       0.620   7.712   2.076  0.00  0.00    +0.087 C 
ATOM     10  C   UNL     1       1.150   8.494   3.047  0.00  0.00    +0.084 C 
ATOM     11  C   UNL     1       1.231   9.981   3.132  0.00  0.00    +0.258 C 
ATOM     12  O   UNL     1       0.789  10.700   2.259  0.00  0.00    -0.269 OA
ATOM     13  N   UNL     1       1.809  10.473   4.216  0.00  0.00    -0.243 N 
ATOM     14  C   UNL     1       2.304   9.671   5.179  0.00  0.00    +0.283 C 
ATOM     15  O   UNL     1       2.859   9.990   6.213  0.00  0.00    -0.262 OA
ATOM     16  S   UNL     1       1.952   8.028   4.575  0.00  0.00    -0.026 S 
ATOM     17  H   UNL     1       1.882  11.435   4.318  0.00  0.00    +0.159 HD
ENDBRANCH   7   9
BRANCH   1  24
ATOM     18  C   UNL     1       3.644   2.097  -0.012  0.00  0.00    +0.047 C 
ATOM     19  C   UNL     1       2.340   1.340  -0.010  0.00  0.00    -0.011 A 
ATOM     20  C   UNL     1       2.326  -0.046  -0.019  0.00  0.00    +0.118 A 
ATOM     21  N   UNL     1       1.165  -0.679  -0.016  0.00  0.00    -0.230 NA
ATOM     22  C   UNL     1       0.025  -0.004  -0.006  0.00  0.00    +0.189 A 
ATOM     23  N   UNL     1       0.004   1.322   0.002  0.00  0.00    -0.226 NA
ATOM     24  C   UNL     1       1.130   2.015   0.001  0.00  0.00    +0.053 A 
BRANCH  22  25
ATOM     25  S   UNL     1      -1.500  -0.888  -0.003  0.00  0.00    -0.081 S 
BRANCH  25  26
ATOM     26  C   UNL     1      -0.877  -2.587  -0.017  0.00  0.00    +0.114 C 
BRANCH  26  27
ATOM     27  C   UNL     1      -2.038  -3.548  -0.016  0.00  0.00    -0.019 A 
ATOM     28  C   UNL     1      -2.568  -4.007   1.180  0.00  0.00    +0.007 A 
ATOM     29  C   UNL     1      -3.639  -4.886   1.133  0.00  0.00    +0.020 A 
ATOM     30  C   UNL     1      -4.133  -5.280  -0.097  0.00  0.00    +0.111 A 
ATOM     31  N   UNL     1      -3.600  -4.827  -1.214  0.00  0.00    -0.263 NA
ATOM     32  C   UNL     1      -2.584  -3.986  -1.207  0.00  0.00    +0.115 A 
ENDBRANCH  26  27
ENDBRANCH  25  26
ENDBRANCH  22  25
ENDBRANCH   1  24
TORSDOF 5
