REMARK  Name = ZINC35867559
REMARK  7 active torsions:
REMARK  status: ('A' for Active; 'I' for Inactive)
REMARK    1  A    between atoms: C_1  and  C_2
REMARK    2  A    between atoms: C_11  and  N_19
REMARK    3  A    between atoms: C_13  and  C_15
REMARK    4  A    between atoms: C_15  and  C_16
REMARK    5  A    between atoms: C_16  and  C_17
REMARK    6  A    between atoms: C_16  and  C_18
REMARK    7  A    between atoms: N_27  and  C_28
REMARK                            x       y       z     vdW  Elec       q    Type
REMARK                         _______ _______ _______ _____ _____    ______ ____
ROOT
ATOM      1  C   UNL     1       1.377   0.077  -1.181  0.00  0.00    +0.008 C 
ATOM      2  C   UNL     1       1.023  -1.385  -0.903  0.00  0.00    -0.009 C 
ATOM      3  C   UNL     1      -0.496  -1.532  -0.778  0.00  0.00    +0.008 C 
ATOM      4  C   UNL     1      -0.874  -3.013  -0.748  0.00  0.00    +0.037 C 
ATOM      5  C   UNL     1      -0.059  -3.709   0.339  0.00  0.00    -0.025 A 
ATOM      6  C   UNL     1       1.067  -3.139   0.825  0.00  0.00    -0.004 A 
ATOM      7  S   UNL     1       1.678  -4.274   2.046  0.00  0.00    -0.073 S 
ATOM      8  C   UNL     1       0.426  -5.509   1.906  0.00  0.00    +0.114 A 
ATOM      9  C   UNL     1      -0.435  -4.994   0.904  0.00  0.00    +0.051 A 
ATOM     10  C   UNL     1      -1.568  -5.786   0.561  0.00  0.00    +0.133 A 
ATOM     11  N   UNL     1      -1.697  -6.933   1.225  0.00  0.00    -0.217 NA
ATOM     12  C   UNL     1      -0.853  -7.348   2.148  0.00  0.00    +0.133 A 
ATOM     13  N   UNL     1       0.222  -6.660   2.514  0.00  0.00    -0.225 NA
ATOM     14  C   UNL     1       1.672  -1.830   0.415  0.00  0.00    +0.046 C 
ENDROOT
BRANCH  10  15
ATOM     15  N   UNL     1      -2.479  -5.388  -0.401  0.00  0.00    -0.312 N 
ATOM     16  C   UNL     1      -2.217  -5.634  -1.826  0.00  0.00    +0.125 C 
ATOM     17  C   UNL     1      -3.399  -6.414  -2.414  0.00  0.00    +0.128 C 
ATOM     18  N   UNL     1      -4.646  -5.738  -2.029  0.00  0.00    -0.282 N 
ATOM     19  C   UNL     1      -4.908  -5.492  -0.604  0.00  0.00    +0.128 C 
ATOM     20  C   UNL     1      -3.728  -4.716  -0.016  0.00  0.00    +0.125 C 
ATOM     21  C   UNL     1      -5.533  -5.350  -2.967  0.00  0.00    +0.307 C 
ATOM     22  O   UNL     1      -5.370  -5.671  -4.128  0.00  0.00    -0.252 OA
ATOM     23  N   UNL     1      -6.601  -4.606  -2.617  0.00  0.00    -0.269 N 
ATOM     24  H   UNL     1      -6.663  -4.237  -1.722  0.00  0.00    +0.156 HD
BRANCH  23  25
ATOM     25  C   UNL     1      -7.622  -4.365  -3.546  0.00  0.00    +0.036 A 
ATOM     26  C   UNL     1      -7.351  -4.422  -4.907  0.00  0.00    +0.026 A 
ATOM     27  C   UNL     1      -8.358  -4.185  -5.821  0.00  0.00    +0.041 A 
ATOM     28  C   UNL     1      -9.638  -3.891  -5.383  0.00  0.00    +0.142 A 
ATOM     29  C   UNL     1      -9.911  -3.833  -4.025  0.00  0.00    +0.078 A 
ATOM     30  C   UNL     1      -8.906  -4.076  -3.107  0.00  0.00    +0.046 A 
ATOM     31 CL   UNL     1     -11.516  -3.462  -3.478  0.00  0.00    -0.081 Cl
ATOM     32  F   UNL     1     -10.622  -3.659  -6.279  0.00  0.00    -0.204 F 
ENDBRANCH  23  25
ENDBRANCH  10  15
BRANCH  12  33
ATOM     33  C   UNL     1      -1.121  -8.670   2.821  0.00  0.00    +0.079 C 
BRANCH  33  34
ATOM     34  C   UNL     1      -0.435  -9.790   2.036  0.00  0.00    -0.010 C 
ATOM     35  C   UNL     1       1.082  -9.603   2.100  0.00  0.00    +0.007 C 
ATOM     36  C   UNL     1      -0.809 -11.143   2.646  0.00  0.00    +0.007 C 
ENDBRANCH  33  34
ENDBRANCH  12  33
TORSDOF 4
