REMARK  Name = ZINC39974939
REMARK  14 active torsions:
REMARK  status: ('A' for Active; 'I' for Inactive)
REMARK    1  A    between atoms: C_1  and  C_2
REMARK    2  A    between atoms: C_2  and  C_3
REMARK    3  A    between atoms: C_3  and  C_4
REMARK    4  A    between atoms: C_3  and  C_6
REMARK    5  A    between atoms: C_3  and  N_8
REMARK    6  A    between atoms: C_4  and  C_5
REMARK    7  A    between atoms: N_8  and  C_9
REMARK    8  A    between atoms: C_9  and  N_11
REMARK    9  A    between atoms: N_11  and  C_12
REMARK   10  A    between atoms: C_15  and  S_18
REMARK   11  A    between atoms: S_18  and  N_21
REMARK   12  A    between atoms: N_21  and  C_22
REMARK   13  A    between atoms: C_22  and  C_24
REMARK   14  A    between atoms: C_22  and  C_25
REMARK                            x       y       z     vdW  Elec       q    Type
REMARK                         _______ _______ _______ _____ _____    ______ ____
ROOT
ATOM      1  C   UNL     1      -3.741  -4.763   0.007  0.00  0.00    +0.033 A 
ATOM      2  C   UNL     1      -4.947  -4.104  -0.193  0.00  0.00    +0.025 A 
ATOM      3  C   UNL     1      -6.131  -4.815  -0.184  0.00  0.00    +0.030 A 
ATOM      4  C   UNL     1      -6.116  -6.182   0.024  0.00  0.00    +0.105 A 
ATOM      5  C   UNL     1      -4.917  -6.842   0.224  0.00  0.00    +0.030 A 
ATOM      6  C   UNL     1      -3.729  -6.137   0.210  0.00  0.00    +0.025 A 
ENDROOT
BRANCH   4   7
ATOM      7  S   UNL     1      -7.628  -7.086   0.036  0.00  0.00    +0.059 S 
ATOM      8  O   UNL     1      -7.391  -8.265   0.793  0.00  0.00    -0.153 OA
ATOM      9  O   UNL     1      -8.653  -6.160   0.370  0.00  0.00    -0.153 OA
BRANCH   7  10
ATOM     10  N   UNL     1      -7.920  -7.573  -1.519  0.00  0.00    -0.183 NA
ATOM     11  H   UNL     1      -8.691  -7.231  -1.998  0.00  0.00    +0.149 HD
BRANCH  10  12
ATOM     12  C   UNL     1      -7.014  -8.522  -2.172  0.00  0.00    +0.103 C 
ATOM     13  C   UNL     1      -5.978  -7.754  -2.994  0.00  0.00    +0.031 C 
BRANCH  12  14
ATOM     14  C   UNL     1      -7.805  -9.428  -3.080  0.00  0.00    -0.029 A 
ATOM     15  C   UNL     1      -8.835  -8.913  -3.844  0.00  0.00    +0.005 A 
ATOM     16  C   UNL     1      -9.560  -9.744  -4.677  0.00  0.00    +0.000 A 
ATOM     17  C   UNL     1      -9.255 -11.090  -4.747  0.00  0.00    +0.000 A 
ATOM     18  C   UNL     1      -8.223 -11.605  -3.984  0.00  0.00    +0.000 A 
ATOM     19  C   UNL     1      -7.496 -10.773  -3.154  0.00  0.00    +0.005 A 
ENDBRANCH  12  14
ENDBRANCH  10  12
ENDBRANCH   7  10
ENDBRANCH   4   7
BRANCH   1  20
ATOM     20  N   UNL     1      -2.540  -4.045  -0.002  0.00  0.00    -0.297 N 
ATOM     21  H   UNL     1      -1.776  -4.384  -0.495  0.00  0.00    +0.154 HD
BRANCH  20  22
ATOM     22  C   UNL     1      -2.445  -2.883   0.673  0.00  0.00    +0.136 C 
ATOM     23  S   UNL     1      -3.822  -2.230   1.453  0.00  0.00    -0.019 S 
BRANCH  22  24
ATOM     24  N   UNL     1      -1.265  -2.235   0.735  0.00  0.00    -0.310 N 
ATOM     25  H   UNL     1      -0.504  -2.563   0.231  0.00  0.00    +0.149 HD
BRANCH  24  26
ATOM     26  C   UNL     1      -1.131  -1.034   1.564  0.00  0.00    +0.094 C 
BRANCH  26  28
ATOM     27  C   UNL     1       0.427   0.777   2.296  0.00  0.00    +0.007 C 
ATOM     28  C   UNL     1       0.287  -0.477   1.430  0.00  0.00    +0.035 C 
ENDBRANCH  26  28
BRANCH  26  29
ATOM     29  C   UNL     1      -1.402  -1.392   3.027  0.00  0.00    +0.035 C 
ATOM     30  C   UNL     1      -0.482  -2.539   3.450  0.00  0.00    +0.007 C 
ENDBRANCH  26  29
BRANCH  26  31
ATOM     31  C   UNL     1      -2.101  -0.020   1.120  0.00  0.00    -0.080 C 
ATOM     32  C   UNL     1      -2.875   0.788   0.765  0.00  0.00    +0.006 C 
ENDBRANCH  26  31
ENDBRANCH  24  26
ENDBRANCH  22  24
ENDBRANCH  20  22
ENDBRANCH   1  20
TORSDOF 11
