REMARK  Name = ZINC64002168
REMARK  6 active torsions:
REMARK  status: ('A' for Active; 'I' for Inactive)
REMARK    1  A    between atoms: C_1  and  C_2
REMARK    2  A    between atoms: C_7  and  S_12
REMARK    3  A    between atoms: S_12  and  C_13
REMARK    4  A    between atoms: C_13  and  C_14
REMARK    5  A    between atoms: C_23  and  C_25
REMARK    6  A    between atoms: N_27  and  C_28
REMARK                            x       y       z     vdW  Elec       q    Type
REMARK                         _______ _______ _______ _____ _____    ______ ____
ROOT
ATOM      1  C   UNL     1      -3.502  -4.373   2.586  0.00  0.00    +0.226 C 
ATOM      2  O   UNL     1      -3.386  -5.351   3.294  0.00  0.00    -0.275 OA
ATOM      3  N   UNL     1      -4.715  -4.019   2.118  0.00  0.00    -0.301 N 
ATOM      4  C   UNL     1      -4.864  -2.840   1.256  0.00  0.00    +0.108 C 
ATOM      5  C   UNL     1      -5.869  -1.879   1.901  0.00  0.00    +0.026 C 
ATOM      6  C   UNL     1      -7.143  -2.656   2.247  0.00  0.00    -0.015 C 
ATOM      7  C   UNL     1      -6.931  -3.886   3.136  0.00  0.00    +0.026 C 
ATOM      8  C   UNL     1      -5.903  -4.811   2.461  0.00  0.00    +0.108 C 
ATOM      9  C   UNL     1      -8.241  -2.728   1.187  0.00  0.00    +0.021 C 
ATOM     10  C   UNL     1      -8.434  -1.860   2.432  0.00  0.00    +0.082 C 
ENDROOT
BRANCH  10  11
ATOM     11  C   UNL     1      -9.407  -2.345   3.475  0.00  0.00    +0.221 C 
ATOM     12  O   UNL     1     -10.338  -3.053   3.152  0.00  0.00    -0.275 OA
ATOM     13  N   UNL     1      -9.244  -1.993   4.765  0.00  0.00    -0.285 N 
ATOM     14  H   UNL     1      -8.539  -1.375   5.014  0.00  0.00    +0.155 HD
BRANCH  13  15
ATOM     15  C   UNL     1     -10.091  -2.520   5.748  0.00  0.00    +0.036 A 
ATOM     16  C   UNL     1      -9.595  -2.810   7.012  0.00  0.00    +0.026 A 
ATOM     17  C   UNL     1     -10.431  -3.329   7.980  0.00  0.00    +0.043 A 
ATOM     18  C   UNL     1     -11.765  -3.562   7.692  0.00  0.00    +0.159 A 
ATOM     19  C   UNL     1     -12.264  -3.273   6.431  0.00  0.00    +0.160 A 
ATOM     20  C   UNL     1     -11.430  -2.747   5.461  0.00  0.00    +0.064 A 
ATOM     21  F   UNL     1     -13.566  -3.500   6.152  0.00  0.00    -0.202 F 
ATOM     22  F   UNL     1     -12.582  -4.070   8.641  0.00  0.00    -0.202 F 
ENDBRANCH  13  15
ENDBRANCH  10  11
BRANCH   1  23
ATOM     23  C   UNL     1      -2.288  -3.554   2.229  0.00  0.00    +0.168 C 
BRANCH  23  24
ATOM     24  S   UNL     1      -0.819  -4.281   3.004  0.00  0.00    -0.106 S 
BRANCH  24  31
ATOM     25  C   UNL     1      -0.280   2.337   0.205  0.00  0.00    +0.044 C 
ATOM     26  C   UNL     1      -0.037   0.861   0.394  0.00  0.00    -0.048 A 
ATOM     27  C   UNL     1       0.169   0.060  -0.744  0.00  0.00    +0.005 A 
ATOM     28  C   UNL     1       0.393  -1.267  -0.667  0.00  0.00    +0.028 A 
ATOM     29  C   UNL     1       0.427  -1.921   0.648  0.00  0.00    +0.061 A 
ATOM     30  N   UNL     1       0.617  -3.155   1.018  0.00  0.00    -0.355 N 
ATOM     31  C   UNL     1       0.536  -3.193   2.483  0.00  0.00    +0.236 C 
ATOM     32  N   UNL     1       0.274  -1.816   2.919  0.00  0.00    -0.355 N 
ATOM     33  C   UNL     1       0.210  -1.073   1.852  0.00  0.00    +0.061 A 
ATOM     34  C   UNL     1      -0.020   0.363   1.646  0.00  0.00    +0.030 A 
ATOM     35  H   UNL     1       0.781  -3.911   0.432  0.00  0.00    +0.162 HD
ATOM     36  H   UNL     1       0.167  -1.514   3.835  0.00  0.00    +0.162 HD
ENDBRANCH  24  31
ENDBRANCH  23  24
ENDBRANCH   1  23
TORSDOF 5
