REMARK  Name = ZINC09790891
REMARK  7 active torsions:
REMARK  status: ('A' for Active; 'I' for Inactive)
REMARK    1  A    between atoms: C_1  and  C_2
REMARK    2  A    between atoms: C_2  and  C_3
REMARK    3  A    between atoms: C_2  and  C_4
REMARK    4  A    between atoms: C_4  and  C_6
REMARK    5  A    between atoms: C_4  and  N_16
REMARK    6  A    between atoms: N_22  and  S_25
REMARK    7  A    between atoms: S_25  and  C_28
REMARK                            x       y       z     vdW  Elec       q    Type
REMARK                         _______ _______ _______ _____ _____    ______ ____
ROOT
ATOM      1  N   UNL     1      -1.234   6.111   1.137  0.00  0.00    -0.292 N 
ATOM      2  C   UNL     1      -0.061   5.452   1.225  0.00  0.00    +0.303 C 
ATOM      3  O   UNL     1       0.980   6.074   1.315  0.00  0.00    -0.253 OA
ATOM      4  N   UNL     1      -0.042   4.104   1.212  0.00  0.00    -0.283 N 
ATOM      5  C   UNL     1      -1.297   3.339   1.218  0.00  0.00    +0.126 C 
ATOM      6  C   UNL     1      -1.271   2.365   2.402  0.00  0.00    +0.128 C 
ATOM      7  N   UNL     1       0.004   1.634   2.381  0.00  0.00    -0.174 NA
ATOM      8  C   UNL     1       1.259   2.400   2.381  0.00  0.00    +0.128 C 
ATOM      9  C   UNL     1       1.233   3.374   1.192  0.00  0.00    +0.126 C 
ATOM     10  H   UNL     1      -2.068   5.617   1.142  0.00  0.00    +0.151 HD
ENDROOT
BRANCH   7  11
ATOM     11  S   UNL     1       0.028  -0.021   2.366  0.00  0.00    +0.061 S 
ATOM     12  O   UNL     1       1.284  -0.415   2.900  0.00  0.00    -0.153 OA
ATOM     13  O   UNL     1      -1.206  -0.450   2.926  0.00  0.00    -0.153 OA
BRANCH  11  14
ATOM     14  C   UNL     1       0.017  -0.527   0.678  0.00  0.00    +0.108 A 
ATOM     15  C   UNL     1      -1.185  -0.747   0.030  0.00  0.00    +0.029 A 
ATOM     16  C   UNL     1      -1.195  -1.139  -1.296  0.00  0.00    +0.005 A 
ATOM     17  C   UNL     1      -0.003  -1.321  -1.972  0.00  0.00    +0.038 A 
ATOM     18  C   UNL     1       1.200  -1.105  -1.323  0.00  0.00    +0.125 A 
ATOM     19  C   UNL     1       1.209  -0.708   0.004  0.00  0.00    +0.066 A 
ATOM     20  F   UNL     1       2.366  -1.283  -1.983  0.00  0.00    -0.205 F 
ENDBRANCH  11  14
ENDBRANCH   7  11
BRANCH   1  21
ATOM     21  C   UNL     1      -1.247   7.572   1.035  0.00  0.00    +0.107 C 
BRANCH  21  22
ATOM     22  C   UNL     1      -2.560   8.100   1.554  0.00  0.00    -0.023 A 
ATOM     23  C   UNL     1      -3.735   7.432   1.264  0.00  0.00    +0.009 A 
ATOM     24  C   UNL     1      -4.941   7.913   1.738  0.00  0.00    +0.050 A 
ATOM     25  C   UNL     1      -4.975   9.068   2.505  0.00  0.00    +0.162 A 
ATOM     26  C   UNL     1      -3.793   9.738   2.798  0.00  0.00    +0.162 A 
ATOM     27  C   UNL     1      -2.586   9.247   2.323  0.00  0.00    +0.055 A 
ATOM     28  O   UNL     1      -3.804  10.871   3.552  0.00  0.00    -0.485 OA
ATOM     29  C   UNL     1      -5.063  11.537   3.696  0.00  0.00    +0.270 C 
ATOM     30  C   UNL     1      -6.128  10.483   4.029  0.00  0.00    +0.270 C 
ATOM     31  O   UNL     1      -6.171   9.534   2.958  0.00  0.00    -0.485 OA
ENDBRANCH  21  22
BRANCH  21  33
ATOM     32  C   UNL     1       0.257   7.446  -0.956  0.00  0.00    +0.009 C 
ATOM     33  C   UNL     1      -1.075   7.982  -0.429  0.00  0.00    +0.008 C 
ATOM     34  C   UNL     1      -2.222   7.402  -1.259  0.00  0.00    +0.009 C 
ENDBRANCH  21  33
ENDBRANCH   1  21
TORSDOF 5
