REMARK  Name = ZINC37294382
REMARK  4 active torsions:
REMARK  status: ('A' for Active; 'I' for Inactive)
REMARK    1  A    between atoms: C_1  and  N_2
REMARK    2  A    between atoms: N_2  and  C_3
REMARK    3  A    between atoms: C_5  and  N_10
REMARK    4  A    between atoms: N_10  and  C_11
REMARK                            x       y       z     vdW  Elec       q    Type
REMARK                         _______ _______ _______ _____ _____    ______ ____
ROOT
ATOM      1  N   UNL     1      -0.178  -2.797  -0.015  0.00  0.00    -0.334 N 
ATOM      2  H   UNL     1      -0.249  -2.321   0.827  0.00  0.00    +0.147 HD
ENDROOT
BRANCH   1   3
ATOM      3  C   UNL     1      -0.162  -4.262  -0.029  0.00  0.00    +0.103 C 
ATOM      4  C   UNL     1       0.395  -4.753   1.295  0.00  0.00    +0.038 C 
ATOM      5  C   UNL     1       0.465  -6.287   1.273  0.00  0.00    +0.076 C 
ATOM      6  S   UNL     1      -1.242  -6.901   1.384  0.00  0.00    -0.125 S 
ATOM      7  C   UNL     1      -2.113  -5.890   0.228  0.00  0.00    +0.013 A 
ATOM      8  C   UNL     1      -1.550  -4.754  -0.318  0.00  0.00    -0.013 A 
ATOM      9  C   UNL     1      -2.305  -3.997  -1.210  0.00  0.00    +0.026 A 
ATOM     10  C   UNL     1      -3.587  -4.372  -1.552  0.00  0.00    +0.041 A 
ATOM     11  C   UNL     1      -4.144  -5.515  -1.006  0.00  0.00    +0.021 A 
ATOM     12  C   UNL     1      -3.408  -6.269  -0.125  0.00  0.00    +0.016 A 
ATOM     13 CL   UNL     1      -4.505  -3.408  -2.667  0.00  0.00    -0.084 Cl
ENDBRANCH   1   3
BRANCH   1  18
ATOM     14  C   UNL     1      -1.859   0.177   0.429  0.00  0.00    +0.130 C 
ATOM     15  N   UNL     1      -0.484  -0.015  -0.040  0.00  0.00    -0.321 N 
ATOM     16  C   UNL     1       0.637   0.510   0.743  0.00  0.00    +0.130 C 
ATOM     17  C   UNL     1      -0.243  -0.696  -1.231  0.00  0.00    +0.120 A 
ATOM     18  C   UNL     1      -0.091  -2.085  -1.217  0.00  0.00    +0.066 A 
ATOM     19  C   UNL     1       0.148  -2.747  -2.413  0.00  0.00    +0.028 A 
ATOM     20  C   UNL     1       0.227  -1.998  -3.580  0.00  0.00    +0.019 A 
ATOM     21  C   UNL     1       0.066  -0.629  -3.518  0.00  0.00    +0.084 A 
ATOM     22  N   UNL     1      -0.166  -0.023  -2.367  0.00  0.00    -0.348 N 
ATOM     23  H   UNL     1      -0.279   0.940  -2.355  0.00  0.00    +0.167 HD
ENDBRANCH   1  18
TORSDOF 2
