REMARK  Name = ZINC40870978
REMARK  7 active torsions:
REMARK  status: ('A' for Active; 'I' for Inactive)
REMARK    1  A    between atoms: C_1  and  C_2
REMARK    2  A    between atoms: C_5  and  C_25
REMARK    3  A    between atoms: C_6  and  O_9
REMARK    4  A    between atoms: C_7  and  C_8
REMARK    5  A    between atoms: O_9  and  C_10
REMARK    6  A    between atoms: C_10  and  C_11
REMARK    7  A    between atoms: C_17  and  C_19
REMARK                            x       y       z     vdW  Elec       q    Type
REMARK                         _______ _______ _______ _____ _____    ______ ____
ROOT
ATOM      1  C   UNL     1       1.149  -3.845   4.202  0.00  0.00    +0.256 C 
ATOM      2  O   UNL     1       0.033  -4.095   4.607  0.00  0.00    -0.272 OA
ATOM      3  N   UNL     1       2.226  -4.246   4.905  0.00  0.00    -0.260 N 
ATOM      4  C   UNL     1       2.058  -4.946   6.095  0.00  0.00    +0.188 A 
ATOM      5  N   UNL     1       0.943  -5.316   6.693  0.00  0.00    -0.126 NA
ATOM      6  N   UNL     1       0.949  -5.954   7.783  0.00  0.00    -0.144 NA
ATOM      7  C   UNL     1       2.103  -6.261   8.340  0.00  0.00    +0.107 A 
ATOM      8  S   UNL     1       3.229  -5.551   7.147  0.00  0.00    -0.035 S 
ATOM      9  H   UNL     1       3.118  -4.047   4.581  0.00  0.00    +0.157 HD
ENDROOT
BRANCH   7  10
ATOM     10  C   UNL     1       2.392  -7.005   9.618  0.00  0.00    +0.047 C 
ATOM     11  C   UNL     1       1.802  -8.413   9.534  0.00  0.00    +0.010 C 
ATOM     12  C   UNL     1       2.095  -9.168  10.831  0.00  0.00    +0.001 C 
ATOM     13  C   UNL     1       1.466  -8.422  12.009  0.00  0.00    +0.000 C 
ATOM     14  C   UNL     1       2.057  -7.013  12.094  0.00  0.00    +0.001 C 
ATOM     15  C   UNL     1       1.763  -6.258  10.796  0.00  0.00    +0.010 C 
ENDBRANCH   7  10
BRANCH   1  16
ATOM     16  C   UNL     1       1.330  -3.087   2.912  0.00  0.00    +0.325 C 
BRANCH  16  17
ATOM     17  O   UNL     1       0.050  -2.776   2.358  0.00  0.00    -0.482 OA
BRANCH  17  23
ATOM     18  C   UNL     1      -0.018   1.503   0.010  0.00  0.00    +0.044 C 
ATOM     19  C   UNL     1       0.002  -0.004   0.002  0.00  0.00    -0.044 A 
ATOM     20  C   UNL     1       0.006  -0.688  -1.200  0.00  0.00    +0.004 A 
ATOM     21  C   UNL     1       0.024  -2.071  -1.211  0.00  0.00    +0.007 A 
ATOM     22  C   UNL     1       0.039  -2.772  -0.020  0.00  0.00    -0.008 A 
ATOM     23  C   UNL     1       0.035  -2.088   1.186  0.00  0.00    +0.127 A 
ATOM     24  C   UNL     1       0.023  -0.700   1.195  0.00  0.00    -0.006 A 
ATOM     25  C   UNL     1       0.026   0.046   2.504  0.00  0.00    +0.048 C 
ATOM     26  C   UNL     1       0.059  -4.279  -0.033  0.00  0.00    +0.047 C 
ENDBRANCH  17  23
ENDBRANCH  16  17
ENDBRANCH   1  16
TORSDOF 4
