REMARK  Name = ZINC64140769
REMARK  12 active torsions:
REMARK  status: ('A' for Active; 'I' for Inactive)
REMARK    1  A    between atoms: C_1  and  C_2
REMARK    2  A    between atoms: C_2  and  C_3
REMARK    3  A    between atoms: C_3  and  C_4
REMARK    4  A    between atoms: C_4  and  N_5
REMARK    5  A    between atoms: C_6  and  N_30
REMARK    6  A    between atoms: C_7  and  N_14
REMARK    7  A    between atoms: N_14  and  C_15
REMARK    8  A    between atoms: N_14  and  C_22
REMARK    9  A    between atoms: C_15  and  C_16
REMARK   10  A    between atoms: C_22  and  C_23
REMARK   11  A    between atoms: C_25  and  C_29
REMARK   12  A    between atoms: C_26  and  C_28
REMARK                            x       y       z     vdW  Elec       q    Type
REMARK                         _______ _______ _______ _____ _____    ______ ____
ROOT
ATOM      1  N   UNL     1       3.009  -2.021  -3.621  0.00  0.00    -0.280 N 
ATOM      2  C   UNL     1       2.289  -2.290  -4.763  0.00  0.00    +0.127 A 
ATOM      3  C   UNL     1       1.315  -3.251  -4.731  0.00  0.00    +0.134 A 
ATOM      4  C   UNL     1       1.076  -3.940  -3.529  0.00  0.00    +0.277 A 
ATOM      5  O   UNL     1       0.214  -4.801  -3.476  0.00  0.00    -0.266 OA
ATOM      6  N   UNL     1       1.806  -3.644  -2.436  0.00  0.00    -0.273 N 
ATOM      7  H   UNL     1       1.642  -4.118  -1.606  0.00  0.00    +0.173 HD
ATOM      8  C   UNL     1       2.762  -2.700  -2.486  0.00  0.00    +0.331 A 
ATOM      9  O   UNL     1       3.412  -2.452  -1.488  0.00  0.00    -0.246 OA
ENDROOT
BRANCH   2  10
ATOM     10  N   UNL     1       2.545  -1.599  -5.925  0.00  0.00    -0.343 N 
ATOM     11  H   UNL     1       3.193  -0.877  -5.927  0.00  0.00    +0.144 HD
ATOM     12  H   UNL     1       2.078  -1.833  -6.742  0.00  0.00    +0.144 HD
ENDBRANCH   2  10
BRANCH   1  13
ATOM     13  C   UNL     1       4.054  -0.995  -3.644  0.00  0.00    +0.128 C 
BRANCH  13  14
ATOM     14  C   UNL     1       5.388  -1.633  -4.037  0.00  0.00    +0.021 C 
BRANCH  14  16
ATOM     15  C   UNL     1       7.813  -1.200  -4.453  0.00  0.00    +0.004 C 
ATOM     16  C   UNL     1       6.479  -0.561  -4.061  0.00  0.00    -0.002 C 
ENDBRANCH  14  16
ENDBRANCH  13  14
ENDBRANCH   1  13
BRANCH   3  17
ATOM     17  N   UNL     1       0.561  -3.547  -5.891  0.00  0.00    -0.310 N 
BRANCH  17  18
ATOM     18  C   UNL     1       1.216  -4.138  -7.060  0.00  0.00    +0.141 C 
BRANCH  18  19
ATOM     19  C   UNL     1       1.058  -5.636  -7.021  0.00  0.00    -0.030 A 
ATOM     20  C   UNL     1       1.947  -6.406  -6.295  0.00  0.00    +0.005 A 
ATOM     21  C   UNL     1       1.802  -7.780  -6.259  0.00  0.00    +0.000 A 
ATOM     22  C   UNL     1       0.767  -8.384  -6.948  0.00  0.00    +0.000 A 
ATOM     23  C   UNL     1      -0.123  -7.614  -7.673  0.00  0.00    +0.000 A 
ATOM     24  C   UNL     1       0.019  -6.239  -7.706  0.00  0.00    +0.005 A 
ENDBRANCH  18  19
ENDBRANCH  17  18
BRANCH  17  25
ATOM     25  C   UNL     1      -0.876  -3.262  -5.921  0.00  0.00    +0.201 C 
BRANCH  25  26
ATOM     26  C   UNL     1      -1.095  -1.827  -6.328  0.00  0.00    +0.213 A 
ATOM     27  N   UNL     1      -1.247  -1.399  -7.548  0.00  0.00    -0.217 NA
ATOM     28  C   UNL     1      -1.420  -0.066  -7.519  0.00  0.00    +0.079 A 
ATOM     29  C   UNL     1      -1.370   0.324  -6.235  0.00  0.00    +0.125 A 
ATOM     30  O   UNL     1      -1.171  -0.783  -5.492  0.00  0.00    -0.443 OA
ATOM     31  C   UNL     1      -1.513   1.733  -5.721  0.00  0.00    +0.088 C 
ATOM     32  C   UNL     1      -1.630   0.830  -8.713  0.00  0.00    +0.069 C 
ENDBRANCH  25  26
ENDBRANCH  17  25
ENDBRANCH   3  17
TORSDOF 9
