REMARK  Name = ZINC36137477
REMARK  8 active torsions:
REMARK  status: ('A' for Active; 'I' for Inactive)
REMARK    1  A    between atoms: C_1  and  O_2
REMARK    2  A    between atoms: O_2  and  C_3
REMARK    3  A    between atoms: C_8  and  O_9
REMARK    4  A    between atoms: O_9  and  C_10
REMARK    5  A    between atoms: C_11  and  C_14
REMARK    6  A    between atoms: C_11  and  O_28
REMARK    7  A    between atoms: C_14  and  N_15
REMARK    8  A    between atoms: C_16  and  C_18
REMARK                            x       y       z     vdW  Elec       q    Type
REMARK                         _______ _______ _______ _____ _____    ______ ____
ROOT
ATOM      1  C   UNL     1       4.256   0.739   6.854  0.00  0.00    +0.162 A 
ATOM      2  C   UNL     1       2.996   0.211   7.077  0.00  0.00    +0.053 A 
ATOM      3  C   UNL     1       2.496  -0.776   6.244  0.00  0.00    -0.038 A 
ATOM      4  C   UNL     1       3.256  -1.238   5.186  0.00  0.00    -0.008 A 
ATOM      5  C   UNL     1       4.517  -0.712   4.958  0.00  0.00    +0.056 A 
ATOM      6  C   UNL     1       5.019   0.279   5.785  0.00  0.00    +0.162 A 
ATOM      7  C   UNL     1       2.491  -2.307   4.435  0.00  0.00    +0.107 C 
ATOM      8  C   UNL     1       1.373  -2.757   5.399  0.00  0.00    +0.046 C 
ATOM      9  C   UNL     1       1.168  -1.504   6.276  0.00  0.00    +0.039 C 
ENDROOT
BRANCH   1  11
ATOM     10  C   UNL     1       3.905   2.133   8.749  0.00  0.00    +0.277 C 
ATOM     11  O   UNL     1       4.744   1.709   7.672  0.00  0.00    -0.491 OA
ENDBRANCH   1  11
BRANCH   6  12
ATOM     12  O   UNL     1       6.255   0.797   5.556  0.00  0.00    -0.491 OA
ATOM     13  C   UNL     1       7.029   0.193   4.517  0.00  0.00    +0.277 C 
ENDBRANCH   6  12
BRANCH   7  14
ATOM     14  O   UNL     1       1.926  -1.765   3.239  0.00  0.00    -0.382 OA
ATOM     15  H   UNL     1       2.580  -1.426   2.613  0.00  0.00    +0.211 HD
ENDBRANCH   7  14
BRANCH   7  16
ATOM     16  C   UNL     1       3.411  -3.483   4.103  0.00  0.00    +0.143 C 
BRANCH  16  17
ATOM     17  N   UNL     1       2.646  -4.519   3.404  0.00  0.00    -0.312 N 
ATOM     18  C   UNL     1       3.274  -5.611   2.922  0.00  0.00    +0.219 C 
ATOM     19  O   UNL     1       4.454  -5.779   3.144  0.00  0.00    -0.275 OA
ATOM     20  H   UNL     1       1.688  -4.420   3.288  0.00  0.00    +0.149 HD
BRANCH  18  21
ATOM     21  C   UNL     1       2.508  -6.622   2.107  0.00  0.00    +0.048 C 
ATOM     22  C   UNL     1       1.295  -7.105   2.904  0.00  0.00    +0.019 C 
ATOM     23  C   UNL     1       0.518  -8.131   2.077  0.00  0.00    -0.009 C 
ATOM     24  C   UNL     1       1.425  -9.321   1.758  0.00  0.00    +0.007 C 
ATOM     25  C   UNL     1       2.639  -8.838   0.961  0.00  0.00    -0.009 C 
ATOM     26  C   UNL     1       3.416  -7.811   1.788  0.00  0.00    +0.019 C 
ATOM     27  C   UNL     1       2.168  -8.191  -0.343  0.00  0.00    +0.007 C 
ATOM     28  C   UNL     1       1.261  -7.001  -0.024  0.00  0.00    -0.009 C 
ATOM     29  C   UNL     1       0.047  -7.484   0.772  0.00  0.00    +0.007 C 
ATOM     30  C   UNL     1       2.038  -5.975   0.803  0.00  0.00    +0.019 C 
ENDBRANCH  18  21
ENDBRANCH  16  17
ENDBRANCH   7  16
TORSDOF 6
