REMARK  Name = ZINC35779094
REMARK  13 active torsions:
REMARK  status: ('A' for Active; 'I' for Inactive)
REMARK    1  A    between atoms: C_1  and  C_2
REMARK    2  A    between atoms: C_2  and  C_3
REMARK    3  A    between atoms: C_2  and  C_4
REMARK    4  A    between atoms: C_4  and  N_5
REMARK    5  A    between atoms: N_5  and  C_6
REMARK    6  A    between atoms: N_5  and  C_16
REMARK    7  A    between atoms: C_6  and  C_7
REMARK    8  A    between atoms: C_7  and  C_9
REMARK    9  A    between atoms: C_7  and  O_15
REMARK   10  A    between atoms: C_16  and  C_17
REMARK   11  A    between atoms: C_27  and  C_29
REMARK   12  A    between atoms: C_29  and  O_30
REMARK   13  A    between atoms: O_30  and  C_31
REMARK                            x       y       z     vdW  Elec       q    Type
REMARK                         _______ _______ _______ _____ _____    ______ ____
ROOT
ATOM      1  C   UNL     1      -3.511  -2.124  -1.608  0.00  0.00    +0.200 C 
ATOM      2  O   UNL     1      -2.810  -1.551  -2.414  0.00  0.00    -0.278 OA
ATOM      3  N   UNL     1      -4.806  -2.366  -1.893  0.00  0.00    -0.292 N 
ATOM      4  C   UNL     1      -5.667  -3.055  -0.919  0.00  0.00    +0.113 C 
ATOM      5  C   UNL     1      -6.762  -2.077  -0.467  0.00  0.00    +0.061 C 
ATOM      6  C   UNL     1      -7.280  -1.351  -1.665  0.00  0.00    -0.004 A 
ATOM      7  C   UNL     1      -6.707  -1.251  -2.895  0.00  0.00    -0.014 A 
ATOM      8  C   UNL     1      -7.396  -0.501  -3.848  0.00  0.00    +0.013 A 
ATOM      9  C   UNL     1      -8.575   0.079  -3.528  0.00  0.00    +0.046 A 
ATOM     10  S   UNL     1      -8.779  -0.416  -1.824  0.00  0.00    -0.101 S 
ATOM     11  C   UNL     1      -5.379  -1.941  -3.177  0.00  0.00    +0.144 C 
ENDROOT
BRANCH   1  12
ATOM     12  C   UNL     1      -2.935  -2.565  -0.287  0.00  0.00    +0.019 C 
BRANCH  12  13
ATOM     13  N   UNL     1      -1.571  -2.037  -0.147  0.00  0.00    +0.387 N 
ATOM     14  H   UNL     1      -1.122  -2.021  -1.051  0.00  0.00    -0.081 HD
BRANCH  13  15
ATOM     15  C   UNL     1      -1.627  -0.673   0.396  0.00  0.00    -0.075 C 
BRANCH  15  17
ATOM     16  C   UNL     1      -2.465   1.644  -0.018  0.00  0.00    +0.005 C 
ATOM     17  C   UNL     1      -2.251   0.264  -0.641  0.00  0.00    -0.034 C 
ATOM     18  C   UNL     1      -1.314   0.388  -1.845  0.00  0.00    +0.005 C 
ENDBRANCH  15  17
ENDBRANCH  13  15
BRANCH  13  19
ATOM     19  C   UNL     1      -0.804  -2.896   0.765  0.00  0.00    -0.042 C 
BRANCH  19  20
ATOM     20  C   UNL     1       0.647  -2.415   0.820  0.00  0.00    +0.128 C 
BRANCH  20  21
ATOM     21  C   UNL     1       1.441  -3.316   1.729  0.00  0.00    -0.021 A 
ATOM     22  C   UNL     1       1.992  -4.484   1.236  0.00  0.00    +0.006 A 
ATOM     23  C   UNL     1       2.720  -5.311   2.071  0.00  0.00    +0.000 A 
ATOM     24  C   UNL     1       2.898  -4.970   3.398  0.00  0.00    +0.000 A 
ATOM     25  C   UNL     1       2.349  -3.801   3.891  0.00  0.00    +0.000 A 
ATOM     26  C   UNL     1       1.624  -2.972   3.056  0.00  0.00    +0.006 A 
ENDBRANCH  20  21
BRANCH  20  27
ATOM     27  O   UNL     1       1.210  -2.448  -0.494  0.00  0.00    -0.389 OA
ATOM     28  H   UNL     1       1.215  -3.327  -0.897  0.00  0.00    +0.210 HD
ENDBRANCH  20  27
ENDBRANCH  19  20
ENDBRANCH  13  19
ENDBRANCH  12  13
ENDBRANCH   1  12
BRANCH  11  29
ATOM     29  C   UNL     1      -5.612  -3.162  -4.069  0.00  0.00    +0.256 C 
BRANCH  29  30
ATOM     30  O   UNL     1      -6.605  -4.002  -3.477  0.00  0.00    -0.490 OA
BRANCH  30  31
ATOM     31  C   UNL     1      -6.933  -5.138  -4.148  0.00  0.00    +0.121 A 
ATOM     32  C   UNL     1      -6.307  -5.439  -5.349  0.00  0.00    +0.048 A 
ATOM     33  C   UNL     1      -6.641  -6.594  -6.030  0.00  0.00    +0.042 A 
ATOM     34  C   UNL     1      -7.600  -7.450  -5.515  0.00  0.00    +0.124 A 
ATOM     35  C   UNL     1      -8.225  -7.149  -4.316  0.00  0.00    +0.042 A 
ATOM     36  C   UNL     1      -7.888  -5.999  -3.630  0.00  0.00    +0.048 A 
ATOM     37  F   UNL     1      -7.926  -8.578  -6.182  0.00  0.00    -0.205 F 
ENDBRANCH  30  31
ENDBRANCH  29  30
ENDBRANCH  11  29
TORSDOF 11
