REMARK  Name = ZINC00654595
REMARK  5 active torsions:
REMARK  status: ('A' for Active; 'I' for Inactive)
REMARK    1  A    between atoms: C_1  and  C_2
REMARK    2  A    between atoms: C_2  and  C_3
REMARK    3  A    between atoms: C_15  and  C_17
REMARK    4  A    between atoms: C_21  and  N_23
REMARK    5  A    between atoms: C_29  and  C_32
REMARK                            x       y       z     vdW  Elec       q    Type
REMARK                         _______ _______ _______ _____ _____    ______ ____
ROOT
ATOM      1  C   UNL     1       0.729   6.652  -1.837  0.00  0.00    +0.220 C 
ATOM      2  O   UNL     1      -0.416   6.990  -2.051  0.00  0.00    -0.275 OA
ATOM      3  N   UNL     1       1.006   5.825  -0.809  0.00  0.00    -0.258 N 
ATOM      4  C   UNL     1       2.327   5.442  -0.571  0.00  0.00    +0.058 A 
ATOM      5  C   UNL     1       3.035   4.675  -1.482  0.00  0.00    +0.025 A 
ATOM      6  C   UNL     1       4.326   4.280  -1.179  0.00  0.00    +0.002 A 
ATOM      7  C   UNL     1       4.907   4.644   0.023  0.00  0.00    +0.002 A 
ATOM      8  C   UNL     1       4.208   5.425   0.927  0.00  0.00    +0.025 A 
ATOM      9  C   UNL     1       2.925   5.840   0.616  0.00  0.00    +0.053 A 
ATOM     10  N   UNL     1       2.212   6.718   1.422  0.00  0.00    -0.316 N 
ATOM     11  C   UNL     1       1.043   6.426   2.048  0.00  0.00    +0.017 C 
ATOM     12  C   UNL     1      -0.000   5.817   1.465  0.00  0.00    +0.037 C 
ATOM     13  C   UNL     1      -0.070   5.347   0.032  0.00  0.00    +0.147 C 
ATOM     14  C   UNL     1      -1.181   5.561   2.208  0.00  0.00    +0.163 C 
ATOM     15  O   UNL     1      -2.120   5.025   1.652  0.00  0.00    -0.292 OA
ATOM     16  C   UNL     1      -1.311   5.927   3.656  0.00  0.00    +0.088 C 
ATOM     17  C   UNL     1       0.084   5.903   4.292  0.00  0.00    +0.032 C 
ATOM     18  C   UNL     1       0.972   6.862   3.502  0.00  0.00    +0.059 C 
ATOM     19  H   UNL     1       2.578   7.608   1.548  0.00  0.00    +0.152 HD
ENDROOT
BRANCH  13  20
ATOM     20  C   UNL     1      -0.050   3.840   0.023  0.00  0.00    -0.020 A 
ATOM     21  C   UNL     1       1.071   3.161   0.462  0.00  0.00    +0.006 A 
ATOM     22  C   UNL     1       1.090   1.779   0.455  0.00  0.00    +0.003 A 
ATOM     23  C   UNL     1      -0.013   1.076   0.008  0.00  0.00    +0.033 A 
ATOM     24  C   UNL     1      -1.133   1.754  -0.436  0.00  0.00    +0.127 A 
ATOM     25  C   UNL     1      -1.153   3.137  -0.425  0.00  0.00    +0.038 A 
BRANCH  24  26
ATOM     26  N   UNL     1      -2.311   1.001  -0.920  0.00  0.00    +0.056 N 
ATOM     27  O   UNL     1      -2.295  -0.216  -0.927  0.00  0.00    -0.126 OA
ATOM     28  O   UNL     1      -3.297   1.599  -1.312  0.00  0.00    -0.126 OA
ENDBRANCH  24  26
ENDBRANCH  13  20
BRANCH  17  29
ATOM     29  C   UNL     1      -0.001   6.352   5.728  0.00  0.00    -0.044 A 
ATOM     30  C   UNL     1      -0.507   7.602   6.032  0.00  0.00    +0.004 A 
ATOM     31  C   UNL     1      -0.590   8.011   7.350  0.00  0.00    +0.000 A 
ATOM     32  C   UNL     1      -0.158   7.175   8.363  0.00  0.00    +0.000 A 
ATOM     33  C   UNL     1       0.353   5.928   8.057  0.00  0.00    +0.000 A 
ATOM     34  C   UNL     1       0.431   5.516   6.740  0.00  0.00    +0.004 A 
ENDBRANCH  17  29
BRANCH   1  36
ATOM     35  C   UNL     1       1.261   8.070  -3.800  0.00  0.00    +0.013 C 
ATOM     36  C   UNL     1       1.842   7.156  -2.719  0.00  0.00    +0.093 C 
ENDBRANCH   1  36
TORSDOF 4
