REMARK  Name = ZINC39639224
REMARK  10 active torsions:
REMARK  status: ('A' for Active; 'I' for Inactive)
REMARK    1  A    between atoms: C_1  and  C_2
REMARK    2  A    between atoms: C_2  and  C_3
REMARK    3  A    between atoms: C_3  and  C_4
REMARK    4  A    between atoms: C_4  and  C_6
REMARK    5  A    between atoms: C_4  and  C_7
REMARK    6  A    between atoms: C_11  and  C_20
REMARK    7  A    between atoms: N_22  and  C_23
REMARK    8  A    between atoms: C_23  and  C_25
REMARK    9  A    between atoms: C_23  and  C_26
REMARK   10  A    between atoms: C_29  and  C_32
REMARK                            x       y       z     vdW  Elec       q    Type
REMARK                         _______ _______ _______ _____ _____    ______ ____
ROOT
ATOM      1  C   UNL     1       1.660  -2.557   2.537  0.00  0.00    +0.218 C 
ATOM      2  O   UNL     1       2.241  -1.790   3.274  0.00  0.00    -0.275 OA
ATOM      3  N   UNL     1       1.829  -3.887   2.680  0.00  0.00    -0.300 N 
ATOM      4  C   UNL     1       1.216  -4.972   1.878  0.00  0.00    +0.121 C 
ATOM      5  C   UNL     1       2.342  -6.016   1.709  0.00  0.00    +0.100 C 
ATOM      6  C   UNL     1       3.292  -5.764   2.892  0.00  0.00    -0.004 C 
ATOM      7  C   UNL     1       2.675  -4.594   3.671  0.00  0.00    +0.115 C 
ATOM      8  C   UNL     1       3.374  -7.005   3.776  0.00  0.00    -0.010 C 
ATOM      9  C   UNL     1       4.369  -6.750   4.913  0.00  0.00    -0.082 C 
ATOM     10  N   UNL     1       5.688  -6.438   4.350  0.00  0.00    +0.379 N 
ATOM     11  C   UNL     1       5.620  -5.192   3.576  0.00  0.00    -0.082 C 
ATOM     12  C   UNL     1       4.678  -5.381   2.384  0.00  0.00    -0.010 C 
ATOM     13  H   UNL     1       6.355  -6.330   5.100  0.00  0.00    -0.086 HD
ATOM     14  H   UNL     1       5.982  -7.191   3.747  0.00  0.00    -0.086 HD
ENDROOT
BRANCH   5  15
ATOM     15  C   UNL     1       1.777  -7.412   1.774  0.00  0.00    +0.219 C 
ATOM     16  O   UNL     1       0.796  -7.638   2.450  0.00  0.00    -0.275 OA
ATOM     17  N   UNL     1       2.362  -8.409   1.081  0.00  0.00    -0.308 N 
ATOM     18  H   UNL     1       3.147  -8.228   0.540  0.00  0.00    +0.149 HD
BRANCH  17  19
ATOM     19  C   UNL     1       1.814  -9.765   1.144  0.00  0.00    +0.100 C 
ATOM     20  C   UNL     1       0.689  -9.909   0.117  0.00  0.00    +0.033 C 
BRANCH  19  21
ATOM     21  C   UNL     1       2.902 -10.762   0.840  0.00  0.00    -0.027 A 
ATOM     22  C   UNL     1       3.827 -10.495  -0.151  0.00  0.00    +0.006 A 
ATOM     23  C   UNL     1       4.826 -11.409  -0.430  0.00  0.00    +0.004 A 
ATOM     24  C   UNL     1       4.899 -12.591   0.282  0.00  0.00    -0.050 A 
ATOM     25  C   UNL     1       3.974 -12.859   1.274  0.00  0.00    +0.004 A 
ATOM     26  C   UNL     1       2.978 -11.942   1.556  0.00  0.00    +0.006 A 
ATOM     27  C   UNL     1       5.987 -13.588  -0.023  0.00  0.00    +0.044 C 
ENDBRANCH  19  21
ENDBRANCH  17  19
ENDBRANCH   5  15
BRANCH   1  28
ATOM     28  C   UNL     1       0.750  -2.025   1.460  0.00  0.00    +0.072 C 
ATOM     29  C   UNL     1      -0.667  -2.556   1.682  0.00  0.00    +0.017 C 
BRANCH  28  30
ATOM     30  C   UNL     1       0.737  -0.496   1.513  0.00  0.00    +0.012 C 
BRANCH  30  32
ATOM     31  C   UNL     1      -0.100   1.577   0.398  0.00  0.00    +0.004 C 
ATOM     32  C   UNL     1      -0.087   0.048   0.344  0.00  0.00    -0.003 C 
ENDBRANCH  30  32
ENDBRANCH  28  30
ENDBRANCH   1  28
TORSDOF 6
