REMARK  Name = ZINC09267024
REMARK  3 active torsions:
REMARK  status: ('A' for Active; 'I' for Inactive)
REMARK    1  A    between atoms: C_1  and  C_2
REMARK    2  A    between atoms: C_2  and  C_3
REMARK    3  A    between atoms: N_24  and  C_27
REMARK                            x       y       z     vdW  Elec       q    Type
REMARK                         _______ _______ _______ _____ _____    ______ ____
ROOT
ATOM      1  C   UNL     1      -0.179   7.308   2.615  0.00  0.00    -0.026 A 
ATOM      2  C   UNL     1      -1.488   7.092   2.996  0.00  0.00    +0.005 A 
ATOM      3  C   UNL     1      -2.058   5.840   2.855  0.00  0.00    +0.001 A 
ATOM      4  C   UNL     1      -1.312   4.798   2.330  0.00  0.00    +0.004 A 
ATOM      5  C   UNL     1      -0.007   5.010   1.950  0.00  0.00    -0.027 A 
ATOM      6  C   UNL     1       0.578   6.266   2.086  0.00  0.00    +0.039 A 
ATOM      7  N   UNL     1       1.899   6.235   1.634  0.00  0.00    -0.286 N 
ATOM      8  C   UNL     1       2.256   5.014   1.192  0.00  0.00    +0.212 C 
ATOM      9  O   UNL     1       3.337   4.694   0.745  0.00  0.00    -0.277 OA
ATOM     10  C   UNL     1       1.055   4.124   1.360  0.00  0.00    +0.053 C 
ATOM     11  C   UNL     1       0.607   3.531   0.019  0.00  0.00    +0.089 C 
ATOM     12  C   UNL     1       1.208   2.099   0.002  0.00  0.00    +0.074 C 
ATOM     13  C   UNL     1       1.951   1.956   1.342  0.00  0.00    -0.054 C 
ATOM     14  C   UNL     1       0.088   2.361   2.704  0.00  0.00    -0.076 C 
ATOM     15  C   UNL     1       0.414   0.865   2.887  0.00  0.00    -0.020 C 
ATOM     16  C   UNL     1       1.629   0.603   1.976  0.00  0.00    -0.016 C 
ATOM     17  C   UNL     1      -0.014   1.208   0.009  0.00  0.00    +0.228 C 
ATOM     18  O   UNL     1       0.002  -0.004   0.002  0.00  0.00    -0.275 OA
ATOM     19  N   UNL     1      -1.117   1.966   0.018  0.00  0.00    -0.209 N 
ATOM     20  C   UNL     1      -0.884   3.284   0.028  0.00  0.00    +0.229 C 
ATOM     21  O   UNL     1      -1.737   4.146   0.037  0.00  0.00    -0.275 OA
ATOM     22  H   UNL     1       2.490   7.004   1.639  0.00  0.00    +0.155 HD
ATOM     23  N   UNL     1       1.338   2.946   2.190  0.00  0.00    +0.395 N 
ATOM     24  H   UNL     1       1.959   3.200   2.968  0.00  0.00    -0.079 HD
ENDROOT
BRANCH  19  25
ATOM     25  C   UNL     1      -2.407   1.425   0.020  0.00  0.00    +0.052 A 
ATOM     26  C   UNL     1      -3.043   1.151   1.210  0.00  0.00    +0.024 A 
ATOM     27  C   UNL     1      -4.327   0.613   1.224  0.00  0.00    +0.002 A 
ATOM     28  C   UNL     1      -4.989   0.344   0.065  0.00  0.00    +0.008 A 
ATOM     29  C   UNL     1      -4.375   0.610  -1.171  0.00  0.00    -0.016 A 
ATOM     30  C   UNL     1      -3.070   1.162  -1.197  0.00  0.00    +0.004 A 
ATOM     31  C   UNL     1      -2.457   1.422  -2.433  0.00  0.00    +0.010 A 
ATOM     32  C   UNL     1      -3.124   1.150  -3.587  0.00  0.00    +0.001 A 
ATOM     33  C   UNL     1      -4.410   0.612  -3.562  0.00  0.00    +0.001 A 
ATOM     34  C   UNL     1      -5.034   0.342  -2.384  0.00  0.00    +0.008 A 
ENDBRANCH  19  25
BRANCH   1  36
ATOM     35  C   UNL     1       0.306   9.446   1.457  0.00  0.00    +0.009 C 
ATOM     36  C   UNL     1       0.432   8.676   2.773  0.00  0.00    +0.033 C 
ENDBRANCH   1  36
TORSDOF 2
