REMARK  Name = ZINC40335513
REMARK  4 active torsions:
REMARK  status: ('A' for Active; 'I' for Inactive)
REMARK    1  A    between atoms: C_6  and  N_7
REMARK    2  A    between atoms: C_8  and  C_12
REMARK    3  A    between atoms: N_14  and  C_15
REMARK    4  A    between atoms: C_15  and  C_16
REMARK                            x       y       z     vdW  Elec       q    Type
REMARK                         _______ _______ _______ _____ _____    ______ ____
ROOT
ATOM      1  C   UNL     1      -0.017   1.391   0.010  0.00  0.00    +0.025 A 
ATOM      2  C   UNL     1       1.147   2.107   0.002  0.00  0.00    +0.029 A 
ATOM      3  C   UNL     1       2.370   1.446  -0.013  0.00  0.00    +0.067 A 
ATOM      4  C   UNL     1       2.397   0.037  -0.021  0.00  0.00    +0.034 A 
ATOM      5  C   UNL     1       1.207  -0.684  -0.013  0.00  0.00    +0.035 A 
ATOM      6  C   UNL     1       0.002  -0.004   0.002  0.00  0.00    +0.025 A 
ATOM      7  C   UNL     1       3.826  -0.301  -0.037  0.00  0.00    +0.155 A 
ATOM      8  N   UNL     1       4.478   0.842  -0.037  0.00  0.00    -0.168 NA
ATOM      9  N   UNL     1       3.682   1.849  -0.024  0.00  0.00    -0.276 N 
ATOM     10  H   UNL     1       3.970   2.775  -0.022  0.00  0.00    +0.189 HD
ENDROOT
BRANCH   7  11
ATOM     11  C   UNL     1       4.414  -1.653  -0.050  0.00  0.00    +0.265 C 
ATOM     12  O   UNL     1       3.690  -2.630  -0.047  0.00  0.00    -0.268 OA
ATOM     13  N   UNL     1       5.753  -1.805  -0.064  0.00  0.00    -0.305 N 
ATOM     14  H   UNL     1       6.330  -1.026  -0.066  0.00  0.00    +0.149 HD
BRANCH  13  15
ATOM     15  C   UNL     1       6.337  -3.149  -0.076  0.00  0.00    +0.147 C 
BRANCH  15  16
ATOM     16  C   UNL     1       7.840  -3.043  -0.091  0.00  0.00    +0.008 A 
ATOM     17  C   UNL     1       8.702  -2.994   0.954  0.00  0.00    +0.014 A 
ATOM     18  C   UNL     1      10.057  -2.896   0.701  0.00  0.00    +0.023 A 
ATOM     19  C   UNL     1      10.484  -2.852  -0.586  0.00  0.00    +0.055 A 
ATOM     20  S   UNL     1       8.947  -2.958  -1.488  0.00  0.00    -0.085 S 
ATOM     21 BR   UNL     1      12.249  -2.720  -1.252  0.00  0.00    -0.043 Br
ENDBRANCH  15  16
ENDBRANCH  13  15
ENDBRANCH   7  11
BRANCH   6  22
ATOM     22  N   UNL     1      -1.201  -0.717   0.010  0.00  0.00    -0.358 N 
ATOM     23  H   UNL     1      -2.046  -0.242   0.021  0.00  0.00    +0.142 HD
ATOM     24  H   UNL     1      -1.190  -1.687   0.005  0.00  0.00    +0.142 HD
ENDBRANCH   6  22
TORSDOF 4
