REMARK  Name = ZINC26585813
REMARK  10 active torsions:
REMARK  status: ('A' for Active; 'I' for Inactive)
REMARK    1  A    between atoms: C_1  and  C_2
REMARK    2  A    between atoms: C_2  and  O_3
REMARK    3  A    between atoms: O_3  and  C_4
REMARK    4  A    between atoms: C_11  and  C_18
REMARK    5  A    between atoms: C_13  and  O_14
REMARK    6  A    between atoms: C_18  and  O_19
REMARK    7  A    between atoms: O_19  and  C_20
REMARK    8  A    between atoms: C_20  and  C_22
REMARK    9  A    between atoms: C_22  and  N_23
REMARK   10  A    between atoms: C_31  and  C_32
REMARK                            x       y       z     vdW  Elec       q    Type
REMARK                         _______ _______ _______ _____ _____    ______ ____
ROOT
ATOM      1  C   UNL     1      -4.759  -4.263   0.517  0.00  0.00    +0.405 C 
ATOM      2  O   UNL     1      -3.756  -4.718   1.032  0.00  0.00    -0.226 OA
ATOM      3  N   UNL     1      -4.756  -3.006   0.030  0.00  0.00    -0.251 N 
ATOM      4  C   UNL     1      -3.573  -2.266   0.017  0.00  0.00    +0.040 A 
ATOM      5  C   UNL     1      -3.619  -0.885   0.209  0.00  0.00    +0.024 A 
ATOM      6  C   UNL     1      -2.471  -0.147   0.199  0.00  0.00    +0.014 A 
ATOM      7  C   UNL     1      -1.239  -0.781   0.001  0.00  0.00    +0.024 A 
ATOM      8  C   UNL     1       0.008  -0.014  -0.022  0.00  0.00    +0.007 A 
ATOM      9  C   UNL     1       1.172  -0.685  -0.224  0.00  0.00    +0.095 A 
ATOM     10  C   UNL     1       1.152  -2.083  -0.410  0.00  0.00    +0.285 A 
ATOM     11  O   UNL     1       0.005  -2.780  -0.394  0.00  0.00    -0.425 OA
ATOM     12  C   UNL     1      -1.186  -2.174  -0.198  0.00  0.00    +0.141 A 
ATOM     13  C   UNL     1      -2.361  -2.909  -0.185  0.00  0.00    +0.070 A 
ATOM     14  H   UNL     1      -5.686  -2.564  -0.356  0.00  0.00    +0.158 HD
ENDROOT
BRANCH  10  15
ATOM     15  O   UNL     1       2.202  -2.672  -0.590  0.00  0.00    -0.480 OA
ATOM     16  H   UNL     1       2.203  -3.763  -0.737  0.00  0.00    +0.295 HD
ENDBRANCH  10  15
BRANCH   1  17
ATOM     17  O   UNL     1      -5.872  -5.016   0.432  0.00  0.00    -0.450 OA
BRANCH  17  19
ATOM     18  C   UNL     1      -7.152  -7.056   0.790  0.00  0.00    +0.048 C 
ATOM     19  C   UNL     1      -5.803  -6.360   0.976  0.00  0.00    +0.230 C 
ENDBRANCH  17  19
ENDBRANCH   1  17
BRANCH   8  20
ATOM     20  C   UNL     1       0.001   1.480   0.180  0.00  0.00    +0.268 C 
BRANCH  20  21
ATOM     21  O   UNL     1       1.362   1.983   0.118  0.00  0.00    -0.459 OA
BRANCH  21  22
ATOM     22  C   UNL     1       1.531   3.304   0.280  0.00  0.00    +0.327 C 
ATOM     23  O   UNL     1       0.574   4.017   0.468  0.00  0.00    -0.249 OA
BRANCH  22  24
ATOM     24  C   UNL     1       2.915   3.899   0.227  0.00  0.00    +0.244 C 
BRANCH  24  25
ATOM     25  N   UNL     1       2.832   5.348   0.431  0.00  0.00    -0.310 N 
ATOM     26  C   UNL     1       2.686   6.305  -0.553  0.00  0.00    +0.070 A 
ATOM     27  C   UNL     1       2.576   6.261  -1.937  0.00  0.00    +0.028 A 
ATOM     28  C   UNL     1       2.438   7.433  -2.648  0.00  0.00    +0.002 A 
ATOM     29  C   UNL     1       2.408   8.655  -1.992  0.00  0.00    +0.002 A 
ATOM     30  C   UNL     1       2.506   8.717  -0.630  0.00  0.00    +0.030 A 
ATOM     31  C   UNL     1       2.652   7.542   0.112  0.00  0.00    +0.090 A 
ATOM     32  N   UNL     1       2.785   7.282   1.438  0.00  0.00    -0.224 NA
ATOM     33  C   UNL     1       2.890   5.999   1.623  0.00  0.00    +0.216 A 
BRANCH  33  34
ATOM     34  C   UNL     1       3.054   5.331   2.965  0.00  0.00    +0.451 C 
ATOM     35  F   UNL     1       2.735   6.240   3.980  0.00  0.00    -0.163 F 
ATOM     36  F   UNL     1       2.199   4.226   3.043  0.00  0.00    -0.163 F 
ATOM     37  F   UNL     1       4.378   4.908   3.116  0.00  0.00    -0.163 F 
ENDBRANCH  33  34
ENDBRANCH  24  25
ENDBRANCH  22  24
ENDBRANCH  21  22
ENDBRANCH  20  21
ENDBRANCH   8  20
TORSDOF 9
