REMARK  Name = ZINC06165990
REMARK  6 active torsions:
REMARK  status: ('A' for Active; 'I' for Inactive)
REMARK    1  A    between atoms: C_3  and  S_14
REMARK    2  A    between atoms: C_6  and  N_7
REMARK    3  A    between atoms: C_8  and  C_10
REMARK    4  A    between atoms: C_11  and  C_12
REMARK    5  A    between atoms: S_14  and  N_17
REMARK    6  A    between atoms: N_17  and  C_18
REMARK                            x       y       z     vdW  Elec       q    Type
REMARK                         _______ _______ _______ _____ _____    ______ ____
ROOT
ATOM      1  C   UNL     1       3.288   3.517  -1.284  0.00  0.00    +0.025 A 
ATOM      2  C   UNL     1       2.092   2.833  -1.192  0.00  0.00    +0.030 A 
ATOM      3  C   UNL     1       1.528   2.586   0.046  0.00  0.00    +0.109 A 
ATOM      4  C   UNL     1       2.156   3.028   1.196  0.00  0.00    +0.030 A 
ATOM      5  C   UNL     1       3.355   3.708   1.112  0.00  0.00    +0.025 A 
ATOM      6  C   UNL     1       3.925   3.958  -0.130  0.00  0.00    +0.034 A 
ENDROOT
BRANCH   6   7
ATOM      7  N   UNL     1       5.135   4.650  -0.220  0.00  0.00    -0.282 N 
ATOM      8  C   UNL     1       6.068   4.503   0.742  0.00  0.00    +0.241 C 
ATOM      9  O   UNL     1       5.897   3.697   1.636  0.00  0.00    -0.270 OA
ATOM     10  H   UNL     1       5.304   5.237  -0.973  0.00  0.00    +0.155 HD
BRANCH   8  11
ATOM     11  C   UNL     1       7.297   5.319   0.709  0.00  0.00    +0.075 C 
ATOM     12  C   UNL     1       8.227   5.173   1.667  0.00  0.00    +0.101 C 
BRANCH  12  13
ATOM     13  C   UNL     1       9.455   5.989   1.634  0.00  0.00    +0.380 C 
ATOM     14  O   UNL     1       9.626   6.793   0.740  0.00  0.00    -0.241 OA
ATOM     15  O   UNL     1      10.388   5.841   2.595  0.00  0.00    -0.241 OA
ENDBRANCH  12  13
ENDBRANCH   8  11
ENDBRANCH   6   7
BRANCH   3  16
ATOM     16  S   UNL     1       0.002   1.712   0.159  0.00  0.00    +0.072 S 
ATOM     17  O   UNL     1      -0.612   1.801  -1.120  0.00  0.00    -0.150 OA
ATOM     18  O   UNL     1      -0.639   2.165   1.344  0.00  0.00    -0.150 OA
BRANCH  16  19
ATOM     19  N   UNL     1       0.368   0.116   0.399  0.00  0.00    -0.216 N 
ATOM     20  H   UNL     1       0.142  -0.541  -0.278  0.00  0.00    +0.174 HD
BRANCH  19  21
ATOM     21  C   UNL     1       1.003  -0.286   1.577  0.00  0.00    +0.048 A 
ATOM     22  C   UNL     1       2.348  -0.633   1.559  0.00  0.00    +0.025 A 
ATOM     23  C   UNL     1       2.975  -1.023   2.726  0.00  0.00    +0.016 A 
ATOM     24  C   UNL     1       2.262  -1.081   3.909  0.00  0.00    +0.013 A 
ATOM     25  C   UNL     1       0.920  -0.742   3.929  0.00  0.00    +0.016 A 
ATOM     26  C   UNL     1       0.290  -0.345   2.767  0.00  0.00    +0.025 A 
ATOM     27  I   UNL     1       3.214  -1.683   5.676  0.00  0.00    -0.044 I 
ENDBRANCH  19  21
ENDBRANCH  16  19
ENDBRANCH   3  16
TORSDOF 6
