REMARK  Name = ZINC21253847
REMARK  9 active torsions:
REMARK  status: ('A' for Active; 'I' for Inactive)
REMARK    1  A    between atoms: C_1  and  C_2
REMARK    2  A    between atoms: C_2  and  C_3
REMARK    3  A    between atoms: C_6  and  C_9
REMARK    4  A    between atoms: C_14  and  C_20
REMARK    5  A    between atoms: C_22  and  O_29
REMARK    6  A    between atoms: C_23  and  O_28
REMARK    7  A    between atoms: C_24  and  O_26
REMARK    8  A    between atoms: O_26  and  C_27
REMARK    9  A    between atoms: O_29  and  C_30
REMARK                            x       y       z     vdW  Elec       q    Type
REMARK                         _______ _______ _______ _____ _____    ______ ____
ROOT
ATOM      1  C   UNL     1       2.490   1.048  -0.016  0.00  0.00    +0.032 C 
ATOM      2  C   UNL     1       3.288   1.449  -1.258  0.00  0.00    +0.059 C 
ATOM      3  C   UNL     1       4.625   0.751  -1.249  0.00  0.00    +0.018 C 
ATOM      4  C   UNL     1       5.236   0.442  -0.085  0.00  0.00    +0.020 C 
ATOM      5  C   UNL     1       6.580  -0.247  -0.101  0.00  0.00    +0.063 C 
ATOM      6  C   UNL     1       6.642  -1.213  -1.285  0.00  0.00    +0.109 C 
ATOM      7  C   UNL     1       6.173  -0.502  -2.528  0.00  0.00    +0.218 C 
ATOM      8  O   UNL     1       6.661  -0.777  -3.603  0.00  0.00    -0.275 OA
ATOM      9  N   UNL     1       5.214   0.437  -2.447  0.00  0.00    -0.289 N 
ATOM     10  C   UNL     1       4.648   0.748   1.153  0.00  0.00    +0.162 C 
ATOM     11  O   UNL     1       5.234   0.466   2.179  0.00  0.00    -0.292 OA
ATOM     12  C   UNL     1       3.303   1.420   1.229  0.00  0.00    +0.088 C 
ATOM     13  H   UNL     1       4.902   0.956  -3.365  0.00  0.00    +0.155 HD
ENDROOT
BRANCH   1  17
ATOM     14  C   UNL     1      -1.238   3.133   0.029  0.00  0.00    -0.048 A 
ATOM     15  C   UNL     1      -1.219   1.751   0.017  0.00  0.00    +0.004 A 
ATOM     16  C   UNL     1      -0.013   1.076   0.008  0.00  0.00    +0.004 A 
ATOM     17  C   UNL     1       1.175   1.783   0.000  0.00  0.00    -0.043 A 
ATOM     18  C   UNL     1       1.156   3.165   0.008  0.00  0.00    +0.004 A 
ATOM     19  C   UNL     1      -0.050   3.840   0.022  0.00  0.00    +0.004 A 
BRANCH  14  21
ATOM     20  C   UNL     1      -3.010   4.125  -1.393  0.00  0.00    +0.009 C 
ATOM     21  C   UNL     1      -2.553   3.869   0.044  0.00  0.00    +0.032 C 
ENDBRANCH  14  21
ENDBRANCH   1  17
BRANCH   5  22
ATOM     22  C   UNL     1       7.672   0.783  -0.235  0.00  0.00    -0.032 A 
ATOM     23  C   UNL     1       7.710   1.607  -1.345  0.00  0.00    +0.054 A 
ATOM     24  C   UNL     1       8.709   2.560  -1.469  0.00  0.00    +0.165 A 
ATOM     25  C   UNL     1       9.680   2.680  -0.482  0.00  0.00    +0.201 A 
ATOM     26  C   UNL     1       9.641   1.846   0.630  0.00  0.00    +0.165 A 
ATOM     27  C   UNL     1       8.635   0.899   0.750  0.00  0.00    +0.054 A 
BRANCH  26  28
ATOM     28  O   UNL     1      10.588   1.959   1.599  0.00  0.00    -0.491 OA
ATOM     29  C   UNL     1      10.487   1.070   2.713  0.00  0.00    +0.277 C 
ENDBRANCH  26  28
BRANCH  25  30
ATOM     30  O   UNL     1      10.665   3.611  -0.603  0.00  0.00    -0.501 OA
ATOM     31  H   UNL     1      11.432   3.704   0.180  0.00  0.00    +0.292 HD
ENDBRANCH  25  30
BRANCH  24  32
ATOM     32  O   UNL     1       8.743   3.373  -2.559  0.00  0.00    -0.491 OA
ATOM     33  C   UNL     1       7.714   3.193  -3.534  0.00  0.00    +0.277 C 
ENDBRANCH  24  32
ENDBRANCH   5  22
TORSDOF 6
