REMARK  Name = ZINC66887609
REMARK  8 active torsions:
REMARK  status: ('A' for Active; 'I' for Inactive)
REMARK    1  A    between atoms: C_1  and  C_2
REMARK    2  A    between atoms: C_2  and  C_4
REMARK    3  A    between atoms: C_2  and  N_15
REMARK    4  A    between atoms: C_7  and  S_10
REMARK    5  A    between atoms: S_10  and  N_13
REMARK    6  A    between atoms: N_13  and  C_14
REMARK    7  A    between atoms: C_16  and  C_17
REMARK    8  A    between atoms: C_26  and  O_27
REMARK                            x       y       z     vdW  Elec       q    Type
REMARK                         _______ _______ _______ _____ _____    ______ ____
ROOT
ATOM      1  N   UNL     1      -1.366  -0.524   0.019  0.00  0.00    -0.383 N 
ATOM      2  C   UNL     1      -1.796  -1.257  -0.960  0.00  0.00    +0.091 C 
ATOM      3  H   UNL     1      -1.956  -0.310   0.760  0.00  0.00    +0.160 HD
ENDROOT
BRANCH   2   4
ATOM      4  C   UNL     1      -3.136  -1.856  -0.897  0.00  0.00    +0.040 A 
ATOM      5  C   UNL     1      -3.586  -2.790  -1.928  0.00  0.00    -0.006 A 
ATOM      6  C   UNL     1      -2.761  -3.145  -3.002  0.00  0.00    +0.009 A 
ATOM      7  C   UNL     1      -3.219  -4.020  -3.942  0.00  0.00    +0.001 A 
ATOM      8  C   UNL     1      -4.496  -4.567  -3.848  0.00  0.00    +0.001 A 
ATOM      9  C   UNL     1      -5.323  -4.243  -2.816  0.00  0.00    +0.008 A 
ATOM     10  C   UNL     1      -4.885  -3.344  -1.829  0.00  0.00    -0.017 A 
ATOM     11  C   UNL     1      -5.711  -2.987  -0.749  0.00  0.00    +0.012 A 
ATOM     12  C   UNL     1      -5.278  -2.118   0.201  0.00  0.00    +0.046 A 
ATOM     13  C   UNL     1      -4.005  -1.549   0.150  0.00  0.00    +0.126 A 
BRANCH  13  14
ATOM     14  O   UNL     1      -3.611  -0.690   1.123  0.00  0.00    -0.506 OA
ATOM     15  H   UNL     1      -3.821   0.236   0.939  0.00  0.00    +0.292 HD
ENDBRANCH  13  14
ENDBRANCH   2   4
BRANCH   1  17
ATOM     16  C   UNL     1      -0.012   1.512   0.035  0.00  0.00    +0.035 C 
ATOM     17  C   UNL     1       0.008  -0.017   0.008  0.00  0.00    +0.106 C 
BRANCH  17  18
ATOM     18  C   UNL     1       0.744  -0.532   1.218  0.00  0.00    -0.025 A 
ATOM     19  C   UNL     1       0.100  -0.602   2.439  0.00  0.00    +0.007 A 
ATOM     20  C   UNL     1       0.775  -1.075   3.550  0.00  0.00    +0.029 A 
ATOM     21  C   UNL     1       2.093  -1.477   3.438  0.00  0.00    +0.105 A 
ATOM     22  C   UNL     1       2.736  -1.408   2.217  0.00  0.00    +0.029 A 
ATOM     23  C   UNL     1       2.060  -0.940   1.105  0.00  0.00    +0.007 A 
BRANCH  21  24
ATOM     24  S   UNL     1       2.953  -2.078   4.854  0.00  0.00    +0.058 S 
ATOM     25  O   UNL     1       4.337  -1.878   4.603  0.00  0.00    -0.153 OA
ATOM     26  O   UNL     1       2.298  -1.531   5.990  0.00  0.00    -0.153 OA
BRANCH  24  27
ATOM     27  N   UNL     1       2.714  -3.716   4.913  0.00  0.00    -0.193 NA
ATOM     28  C   UNL     1       3.253  -4.573   3.854  0.00  0.00    +0.127 C 
ATOM     29  H   UNL     1       2.218  -4.107   5.649  0.00  0.00    +0.148 HD
ENDBRANCH  24  27
ENDBRANCH  21  24
ENDBRANCH  17  18
ENDBRANCH   1  17
TORSDOF 6
