REMARK  Name = ZINC04554553
REMARK  10 active torsions:
REMARK  status: ('A' for Active; 'I' for Inactive)
REMARK    1  A    between atoms: C_1  and  C_2
REMARK    2  A    between atoms: C_2  and  C_3
REMARK    3  A    between atoms: C_3  and  C_4
REMARK    4  A    between atoms: C_3  and  C_5
REMARK    5  A    between atoms: C_3  and  C_6
REMARK    6  A    between atoms: C_15  and  O_29
REMARK    7  A    between atoms: C_17  and  C_20
REMARK    8  A    between atoms: C_24  and  O_27
REMARK    9  A    between atoms: C_25  and  O_26
REMARK   10  A    between atoms: O_27  and  C_28
REMARK                            x       y       z     vdW  Elec       q    Type
REMARK                         _______ _______ _______ _____ _____    ______ ____
ROOT
ATOM      1  C   UNL     1       0.739  -2.027  -1.265  0.00  0.00    -0.000 C 
ATOM      2  C   UNL     1       1.450  -2.524  -2.527  0.00  0.00    +0.009 C 
ATOM      3  C   UNL     1       1.695  -4.031  -2.429  0.00  0.00    +0.037 C 
ATOM      4  C   UNL     1       0.379  -4.719  -2.092  0.00  0.00    -0.023 A 
ATOM      5  C   UNL     1      -0.661  -4.025  -1.576  0.00  0.00    -0.004 A 
ATOM      6  S   UNL     1      -1.943  -5.228  -1.356  0.00  0.00    -0.078 S 
ATOM      7  C   UNL     1      -1.152  -6.576  -1.910  0.00  0.00    +0.080 A 
ATOM      8  C   UNL     1       0.122  -6.134  -2.287  0.00  0.00    +0.068 A 
ATOM      9  C   UNL     1       1.060  -7.142  -2.844  0.00  0.00    +0.220 C 
ATOM     10  N   UNL     1       0.740  -8.402  -2.719  0.00  0.00    -0.223 NA
ATOM     11  C   UNL     1      -0.440  -8.889  -2.015  0.00  0.00    +0.227 C 
ATOM     12  N   UNL     1      -1.529  -7.895  -2.027  0.00  0.00    -0.313 N 
ATOM     13  C   UNL     1      -0.701  -2.562  -1.261  0.00  0.00    +0.046 C 
ATOM     14  H   UNL     1      -2.459  -8.156  -2.113  0.00  0.00    +0.149 HD
ENDROOT
BRANCH  11  15
ATOM     15  C   UNL     1      -0.070  -9.192  -0.586  0.00  0.00    +0.040 A 
ATOM     16  C   UNL     1      -0.984  -8.971   0.427  0.00  0.00    +0.011 A 
ATOM     17  C   UNL     1      -0.647  -9.248   1.739  0.00  0.00    +0.004 A 
ATOM     18  C   UNL     1       0.606  -9.748   2.044  0.00  0.00    +0.049 A 
ATOM     19  C   UNL     1       1.526  -9.971   1.033  0.00  0.00    +0.162 A 
ATOM     20  C   UNL     1       1.185  -9.698  -0.288  0.00  0.00    +0.165 A 
BRANCH  20  21
ATOM     21  O   UNL     1       2.084  -9.921  -1.284  0.00  0.00    -0.503 OA
ATOM     22  H   UNL     1       2.653  -9.164  -1.478  0.00  0.00    +0.292 HD
ENDBRANCH  20  21
BRANCH  19  23
ATOM     23  O   UNL     1       2.759 -10.463   1.331  0.00  0.00    -0.491 OA
ATOM     24  C   UNL     1       3.037 -10.725   2.708  0.00  0.00    +0.277 C 
ENDBRANCH  19  23
ENDBRANCH  11  15
BRANCH   1  25
ATOM     25  C   UNL     1       0.718  -0.497  -1.257  0.00  0.00    -0.032 C 
ATOM     26  C   UNL     1      -0.022   0.009  -2.496  0.00  0.00    +0.011 C 
ATOM     27  C   UNL     1       2.154   0.032  -1.268  0.00  0.00    +0.011 C 
BRANCH  25  29
ATOM     28  C   UNL     1      -0.019   1.526   0.010  0.00  0.00    +0.004 C 
ATOM     29  C   UNL     1       0.002  -0.004   0.002  0.00  0.00    +0.003 C 
ENDBRANCH  25  29
ENDBRANCH   1  25
BRANCH   9  30
ATOM     30  O   UNL     1       2.205  -6.769  -3.460  0.00  0.00    -0.492 OA
ATOM     31  H   UNL     1       2.737  -7.508  -3.784  0.00  0.00    +0.294 HD
ENDBRANCH   9  30
TORSDOF 6
