REMARK  Name = ZINC36795555
REMARK  8 active torsions:
REMARK  status: ('A' for Active; 'I' for Inactive)
REMARK    1  A    between atoms: C_1  and  C_2
REMARK    2  A    between atoms: C_2  and  C_4
REMARK    3  A    between atoms: C_2  and  S_14
REMARK    4  A    between atoms: N_6  and  C_7
REMARK    5  A    between atoms: S_14  and  C_15
REMARK    6  A    between atoms: N_20  and  C_21
REMARK    7  A    between atoms: C_24  and  S_27
REMARK    8  A    between atoms: S_27  and  C_28
REMARK                            x       y       z     vdW  Elec       q    Type
REMARK                         _______ _______ _______ _____ _____    ______ ____
ROOT
ATOM      1  C   UNL     1       2.348  -0.134   1.701  0.00  0.00    +0.161 A 
ATOM      2  N   UNL     1       2.970   0.559   0.767  0.00  0.00    -0.133 NA
ATOM      3  N   UNL     1       4.301   0.872   0.919  0.00  0.00    -0.125 NA
ATOM      4  C   UNL     1       4.949   0.477   1.997  0.00  0.00    +0.187 A 
ATOM      5  S   UNL     1       3.660  -0.381   2.888  0.00  0.00    -0.024 S 
ATOM      6  N   UNL     1       6.278   0.679   2.350  0.00  0.00    -0.292 N 
ATOM      7  H   UNL     1       6.638   0.258   3.146  0.00  0.00    +0.154 HD
ENDROOT
BRANCH   6   8
ATOM      8  C   UNL     1       7.098   1.490   1.555  0.00  0.00    +0.033 A 
ATOM      9  C   UNL     1       8.474   1.301   1.558  0.00  0.00    +0.024 A 
ATOM     10  C   UNL     1       9.282   2.100   0.774  0.00  0.00    +0.017 A 
ATOM     11  C   UNL     1       8.719   3.093  -0.018  0.00  0.00    +0.013 A 
ATOM     12  C   UNL     1       7.342   3.281  -0.021  0.00  0.00    +0.017 A 
ATOM     13  C   UNL     1       6.534   2.478   0.759  0.00  0.00    +0.024 A 
BRANCH  11  14
ATOM     14  S   UNL     1       9.750   4.114  -1.018  0.00  0.00    -0.056 S 
BRANCH  14  15
ATOM     15  C   UNL     1       8.588   5.231  -1.849  0.00  0.00    +0.404 C 
ATOM     16  F   UNL     1       7.687   4.483  -2.613  0.00  0.00    -0.197 F 
ATOM     17  F   UNL     1       7.885   5.970  -0.891  0.00  0.00    -0.197 F 
ENDBRANCH  14  15
ENDBRANCH  11  14
ENDBRANCH   6   8
BRANCH   1  18
ATOM     18  S   UNL     1       0.669  -0.667   1.765  0.00  0.00    -0.084 S 
BRANCH  18  20
ATOM     19  C   UNL     1      -0.041   1.481   0.228  0.00  0.00    +0.029 C 
ATOM     20  C   UNL     1      -0.046  -0.049   0.217  0.00  0.00    +0.136 C 
BRANCH  20  21
ATOM     21  C   UNL     1      -1.464  -0.545   0.086  0.00  0.00    +0.230 C 
ATOM     22  O   UNL     1      -2.098  -0.837   1.078  0.00  0.00    -0.274 OA
ATOM     23  N   UNL     1      -2.026  -0.663  -1.133  0.00  0.00    -0.282 N 
ATOM     24  H   UNL     1      -1.542  -0.369  -1.921  0.00  0.00    +0.155 HD
BRANCH  23  25
ATOM     25  C   UNL     1      -3.309  -1.209  -1.262  0.00  0.00    +0.069 A 
ATOM     26  C   UNL     1      -4.264  -0.981  -0.281  0.00  0.00    +0.026 A 
ATOM     27  C   UNL     1      -5.529  -1.520  -0.411  0.00  0.00    +0.002 A 
ATOM     28  C   UNL     1      -5.846  -2.287  -1.518  0.00  0.00    +0.003 A 
ATOM     29  C   UNL     1      -4.898  -2.518  -2.497  0.00  0.00    +0.040 A 
ATOM     30  C   UNL     1      -3.631  -1.976  -2.376  0.00  0.00    +0.144 A 
ATOM     31  F   UNL     1      -2.707  -2.196  -3.336  0.00  0.00    -0.204 F 
ENDBRANCH  23  25
ENDBRANCH  20  21
ENDBRANCH  18  20
ENDBRANCH   1  18
TORSDOF 7
