REMARK  Name = ZINC01211022
REMARK  6 active torsions:
REMARK  status: ('A' for Active; 'I' for Inactive)
REMARK    1  A    between atoms: C_1  and  C_2
REMARK    2  A    between atoms: C_14  and  C_16
REMARK    3  A    between atoms: C_20  and  N_22
REMARK    4  A    between atoms: C_28  and  C_31
REMARK    5  A    between atoms: C_34  and  O_37
REMARK    6  A    between atoms: O_37  and  C_38
REMARK                            x       y       z     vdW  Elec       q    Type
REMARK                         _______ _______ _______ _____ _____    ______ ____
ROOT
ATOM      1  C   UNL     1       6.592   8.938  -2.952  0.00  0.00    +0.110 C 
ATOM      2  C   UNL     1       6.171   8.506  -1.571  0.00  0.00    +0.218 C 
ATOM      3  O   UNL     1       5.930   9.339  -0.722  0.00  0.00    -0.276 OA
ATOM      4  N   UNL     1       6.063   7.195  -1.278  0.00  0.00    -0.258 N 
ATOM      5  C   UNL     1       6.343   6.246  -2.262  0.00  0.00    +0.058 A 
ATOM      6  C   UNL     1       7.616   6.104  -2.791  0.00  0.00    +0.025 A 
ATOM      7  C   UNL     1       7.856   5.117  -3.731  0.00  0.00    +0.002 A 
ATOM      8  C   UNL     1       6.836   4.277  -4.140  0.00  0.00    +0.002 A 
ATOM      9  C   UNL     1       5.559   4.428  -3.627  0.00  0.00    +0.025 A 
ATOM     10  C   UNL     1       5.313   5.429  -2.703  0.00  0.00    +0.053 A 
ATOM     11  N   UNL     1       4.036   5.709  -2.234  0.00  0.00    -0.316 N 
ATOM     12  C   UNL     1       3.642   5.601  -0.940  0.00  0.00    +0.017 C 
ATOM     13  C   UNL     1       4.332   6.074   0.113  0.00  0.00    +0.037 C 
ATOM     14  C   UNL     1       5.659   6.792   0.052  0.00  0.00    +0.147 C 
ATOM     15  C   UNL     1       3.833   5.905   1.426  0.00  0.00    +0.163 C 
ATOM     16  O   UNL     1       4.465   6.364   2.357  0.00  0.00    -0.292 OA
ATOM     17  C   UNL     1       2.551   5.180   1.710  0.00  0.00    +0.088 C 
ATOM     18  C   UNL     1       2.316   4.151   0.598  0.00  0.00    +0.032 C 
ATOM     19  C   UNL     1       2.311   4.899  -0.735  0.00  0.00    +0.059 C 
ATOM     20  H   UNL     1       3.376   6.003  -2.881  0.00  0.00    +0.152 HD
ENDROOT
BRANCH  14  21
ATOM     21  C   UNL     1       6.719   5.885   0.620  0.00  0.00    -0.020 A 
ATOM     22  C   UNL     1       7.012   4.687  -0.006  0.00  0.00    +0.006 A 
ATOM     23  C   UNL     1       7.988   3.858   0.512  0.00  0.00    +0.003 A 
ATOM     24  C   UNL     1       8.665   4.221   1.662  0.00  0.00    +0.033 A 
ATOM     25  C   UNL     1       8.369   5.415   2.290  0.00  0.00    +0.127 A 
ATOM     26  C   UNL     1       7.396   6.248   1.769  0.00  0.00    +0.038 A 
BRANCH  25  27
ATOM     27  N   UNL     1       9.094   5.804   3.521  0.00  0.00    +0.056 N 
ATOM     28  O   UNL     1       8.833   6.857   4.075  0.00  0.00    -0.126 OA
ATOM     29  O   UNL     1       9.951   5.070   3.980  0.00  0.00    -0.126 OA
ENDBRANCH  25  27
ENDBRANCH  14  21
BRANCH  18  30
ATOM     30  C   UNL     1       0.988   3.469   0.805  0.00  0.00    -0.043 A 
ATOM     31  C   UNL     1       0.933   2.095   0.949  0.00  0.00    +0.007 A 
ATOM     32  C   UNL     1      -0.283   1.467   1.139  0.00  0.00    +0.046 A 
ATOM     33  C   UNL     1      -1.450   2.217   1.181  0.00  0.00    +0.120 A 
ATOM     34  C   UNL     1      -1.391   3.596   1.043  0.00  0.00    +0.046 A 
ATOM     35  C   UNL     1      -0.173   4.218   0.852  0.00  0.00    +0.007 A 
BRANCH  33  36
ATOM     36  O   UNL     1      -2.648   1.601   1.363  0.00  0.00    -0.495 OA
ATOM     37  C   UNL     1      -3.808   2.435   1.396  0.00  0.00    +0.277 C 
ENDBRANCH  33  36
ENDBRANCH  18  30
TORSDOF 4
