REMARK  Name = ZINC14201848
REMARK  7 active torsions:
REMARK  status: ('A' for Active; 'I' for Inactive)
REMARK    1  A    between atoms: C_1  and  C_2
REMARK    2  A    between atoms: C_2  and  C_4
REMARK    3  A    between atoms: C_2  and  N_20
REMARK    4  A    between atoms: N_9  and  S_12
REMARK    5  A    between atoms: S_12  and  C_15
REMARK    6  A    between atoms: N_20  and  S_21
REMARK    7  A    between atoms: S_21  and  C_24
REMARK                            x       y       z     vdW  Elec       q    Type
REMARK                         _______ _______ _______ _____ _____    ______ ____
ROOT
ATOM      1  C   UNL     1      -4.140   0.557   2.222  0.00  0.00    +0.234 C 
ATOM      2  O   UNL     1      -4.531  -0.567   2.457  0.00  0.00    -0.274 OA
ATOM      3  N   UNL     1      -4.973   1.605   2.376  0.00  0.00    -0.298 N 
ATOM      4  C   UNL     1      -4.548   2.960   1.998  0.00  0.00    +0.125 C 
ATOM      5  C   UNL     1      -5.573   3.531   1.003  0.00  0.00    +0.128 C 
ATOM      6  N   UNL     1      -6.920   3.341   1.558  0.00  0.00    -0.173 NA
ATOM      7  C   UNL     1      -7.343   1.986   1.942  0.00  0.00    +0.128 C 
ATOM      8  C   UNL     1      -6.320   1.415   2.931  0.00  0.00    +0.125 C 
ENDROOT
BRANCH   6   9
ATOM      9  S   UNL     1      -7.943   4.629   1.749  0.00  0.00    +0.067 S 
ATOM     10  O   UNL     1      -7.520   5.623   0.826  0.00  0.00    -0.152 OA
ATOM     11  O   UNL     1      -9.263   4.103   1.750  0.00  0.00    -0.152 OA
BRANCH   9  12
ATOM     12  C   UNL     1      -7.660   5.285   3.360  0.00  0.00    +0.143 A 
ATOM     13  C   UNL     1      -6.782   6.241   3.750  0.00  0.00    +0.036 A 
ATOM     14  C   UNL     1      -6.736   6.604   5.083  0.00  0.00    +0.010 A 
ATOM     15  C   UNL     1      -7.562   5.986   5.962  0.00  0.00    +0.047 A 
ATOM     16  S   UNL     1      -8.450   4.856   4.902  0.00  0.00    -0.077 S 
ENDBRANCH   9  12
ENDBRANCH   6   9
BRANCH   1  18
ATOM     17  C   UNL     1      -1.878   1.286   2.928  0.00  0.00    +0.035 C 
ATOM     18  C   UNL     1      -2.724   0.781   1.758  0.00  0.00    +0.159 C 
BRANCH  18  19
ATOM     19  N   UNL     1      -2.168  -0.480   1.260  0.00  0.00    -0.178 NA
ATOM     20  H   UNL     1      -2.416  -1.318   1.680  0.00  0.00    +0.149 HD
BRANCH  19  21
ATOM     21  S   UNL     1      -1.116  -0.473  -0.019  0.00  0.00    +0.062 S 
ATOM     22  O   UNL     1      -1.710   0.329  -1.030  0.00  0.00    -0.153 OA
ATOM     23  O   UNL     1      -0.739  -1.825  -0.242  0.00  0.00    -0.153 OA
BRANCH  21  24
ATOM     24  C   UNL     1       0.337   0.374   0.507  0.00  0.00    +0.140 A 
ATOM     25  C   UNL     1       1.538  -0.304   0.600  0.00  0.00    +0.031 A 
ATOM     26  C   UNL     1       2.678   0.360   1.011  0.00  0.00    +0.002 A 
ATOM     27  C   UNL     1       2.619   1.704   1.330  0.00  0.00    +0.003 A 
ATOM     28  C   UNL     1       1.420   2.385   1.238  0.00  0.00    +0.040 A 
ATOM     29  C   UNL     1       0.277   1.720   0.826  0.00  0.00    +0.150 A 
ATOM     30  F   UNL     1      -0.895   2.386   0.730  0.00  0.00    -0.203 F 
ENDBRANCH  21  24
ENDBRANCH  19  21
ENDBRANCH  18  19
ENDBRANCH   1  18
TORSDOF 6
