REMARK  Name = ZINC03018812
REMARK  7 active torsions:
REMARK  status: ('A' for Active; 'I' for Inactive)
REMARK    1  A    between atoms: C_1  and  C_2
REMARK    2  A    between atoms: C_7  and  N_8
REMARK    3  A    between atoms: N_17  and  C_21
REMARK    4  A    between atoms: C_23  and  O_29
REMARK    5  A    between atoms: C_26  and  O_27
REMARK    6  A    between atoms: O_27  and  C_28
REMARK    7  A    between atoms: O_29  and  C_30
REMARK                            x       y       z     vdW  Elec       q    Type
REMARK                         _______ _______ _______ _____ _____    ______ ____
ROOT
ATOM      1  N   UNL     1      -3.746  -0.515   7.939  0.00  0.00    -0.256 N 
ATOM      2  C   UNL     1      -3.296   0.665   8.423  0.00  0.00    +0.275 A 
ATOM      3  O   UNL     1      -3.751   1.123   9.457  0.00  0.00    -0.266 OA
ATOM      4  C   UNL     1      -2.304   1.351   7.722  0.00  0.00    +0.120 A 
ATOM      5  C   UNL     1      -1.769   0.863   6.552  0.00  0.00    +0.138 A 
ATOM      6  N   UNL     1      -2.276  -0.355   6.109  0.00  0.00    -0.320 N 
ATOM      7  H   UNL     1      -1.894  -0.805   5.180  0.00  0.00    +0.169 HD
ATOM      8  C   UNL     1      -3.229  -1.001   6.795  0.00  0.00    +0.167 A 
ATOM      9  S   UNL     1      -3.809  -2.496   6.197  0.00  0.00    -0.012 S 
ATOM     10  N   UNL     1      -0.807   1.640   5.976  0.00  0.00    -0.279 N 
ATOM     11  C   UNL     1      -0.427   2.800   6.546  0.00  0.00    +0.132 A 
ATOM     12  S   UNL     1       0.751   3.920   6.009  0.00  0.00    -0.024 S 
ATOM     13  S   UNL     1      -1.432   2.878   7.959  0.00  0.00    -0.055 S 
ENDROOT
BRANCH   1  20
ATOM     14  C   UNL     1      -2.940  -2.408   9.905  0.00  0.00    +0.046 C 
ATOM     15  C   UNL     1      -4.392  -2.158   9.588  0.00  0.00    -0.026 A 
ATOM     16  C   UNL     1      -5.376  -2.856  10.260  0.00  0.00    +0.005 A 
ATOM     17  C   UNL     1      -6.709  -2.627   9.970  0.00  0.00    +0.000 A 
ATOM     18  C   UNL     1      -7.060  -1.699   9.007  0.00  0.00    +0.002 A 
ATOM     19  C   UNL     1      -6.081  -0.994   8.335  0.00  0.00    +0.026 A 
ATOM     20  C   UNL     1      -4.742  -1.225   8.621  0.00  0.00    +0.055 A 
ENDBRANCH   1  20
BRANCH  10  21
ATOM     21  C   UNL     1      -0.203   1.223   4.780  0.00  0.00    +0.094 A 
ATOM     22  C   UNL     1      -0.744   1.600   3.560  0.00  0.00    +0.075 A 
ATOM     23  C   UNL     1      -0.148   1.182   2.380  0.00  0.00    +0.122 A 
ATOM     24  C   UNL     1       0.995   0.397   2.419  0.00  0.00    +0.049 A 
ATOM     25  C   UNL     1       1.539   0.025   3.634  0.00  0.00    +0.051 A 
ATOM     26  C   UNL     1       0.945   0.435   4.816  0.00  0.00    +0.144 A 
BRANCH  26  27
ATOM     27  O   UNL     1       1.482   0.069   6.011  0.00  0.00    -0.493 OA
ATOM     28  C   UNL     1       2.659  -0.740   5.973  0.00  0.00    +0.277 C 
ENDBRANCH  26  27
BRANCH  23  29
ATOM     29  O   UNL     1      -0.682   1.547   1.184  0.00  0.00    -0.495 OA
ATOM     30  C   UNL     1      -0.013   1.086   0.008  0.00  0.00    +0.277 C 
ENDBRANCH  23  29
ENDBRANCH  10  21
TORSDOF 4
