REMARK  Name = ZINC62342629
REMARK  4 active torsions:
REMARK  status: ('A' for Active; 'I' for Inactive)
REMARK    1  A    between atoms: C_1  and  C_2
REMARK    2  A    between atoms: N_7  and  C_9
REMARK    3  A    between atoms: C_9  and  C_10
REMARK    4  A    between atoms: C_10  and  C_12
REMARK                            x       y       z     vdW  Elec       q    Type
REMARK                         _______ _______ _______ _____ _____    ______ ____
ROOT
ATOM      1  C   UNL     1       1.320  -3.989   2.519  0.00  0.00    +0.094 C 
ATOM      2 CL   UNL     1      -0.414  -4.485   2.516  0.00  0.00    -0.119 Cl
ENDROOT
BRANCH   1   3
ATOM      3  C   UNL     1       1.982  -4.485   3.779  0.00  0.00    -0.028 A 
ATOM      4  C   UNL     1       1.447  -4.162   5.012  0.00  0.00    +0.009 A 
ATOM      5  C   UNL     1       2.052  -4.614   6.170  0.00  0.00    +0.050 A 
ATOM      6  C   UNL     1       3.197  -5.394   6.097  0.00  0.00    +0.162 A 
ATOM      7  C   UNL     1       3.733  -5.721   4.857  0.00  0.00    +0.162 A 
ATOM      8  C   UNL     1       3.118  -5.267   3.699  0.00  0.00    +0.054 A 
ATOM      9  O   UNL     1       4.851  -6.491   4.762  0.00  0.00    -0.485 OA
ATOM     10  C   UNL     1       5.646  -6.620   5.946  0.00  0.00    +0.270 C 
ATOM     11  C   UNL     1       4.708  -6.915   7.125  0.00  0.00    +0.270 C 
ATOM     12  O   UNL     1       3.784  -5.828   7.245  0.00  0.00    -0.485 OA
ENDBRANCH   1   3
BRANCH   1  13
ATOM     13  C   UNL     1       1.413  -2.463   2.461  0.00  0.00    -0.055 C 
BRANCH  13  19
ATOM     14  C   UNL     1      -0.019   1.526   0.010  0.00  0.00    +0.005 C 
ATOM     15  C   UNL     1       0.002  -0.004   0.002  0.00  0.00    -0.031 C 
ATOM     16  C   UNL     1       0.721  -0.499  -1.257  0.00  0.00    -0.001 C 
ATOM     17  C   UNL     1       0.805  -2.027  -1.217  0.00  0.00    -0.018 C 
ATOM     18  C   UNL     1       1.518  -2.460   0.066  0.00  0.00    -0.079 C 
ATOM     19  N   UNL     1       0.768  -1.979   1.233  0.00  0.00    +0.381 N 
ATOM     20  C   UNL     1       0.744  -0.512   1.240  0.00  0.00    -0.076 C 
ATOM     21  H   UNL     1      -0.177  -2.330   1.192  0.00  0.00    -0.082 HD
ENDBRANCH  13  19
ENDBRANCH   1  13
TORSDOF 3
