REMARK  Name = ZINC67490610
REMARK  10 active torsions:
REMARK  status: ('A' for Active; 'I' for Inactive)
REMARK    1  A    between atoms: C_1  and  C_2
REMARK    2  A    between atoms: C_2  and  C_3
REMARK    3  A    between atoms: C_3  and  C_4
REMARK    4  A    between atoms: C_4  and  N_5
REMARK    5  A    between atoms: C_11  and  N_14
REMARK    6  A    between atoms: C_15  and  C_17
REMARK    7  A    between atoms: N_19  and  C_20
REMARK    8  A    between atoms: C_20  and  C_21
REMARK    9  A    between atoms: C_21  and  C_23
REMARK   10  A    between atoms: C_21  and  O_29
REMARK                            x       y       z     vdW  Elec       q    Type
REMARK                         _______ _______ _______ _____ _____    ______ ____
ROOT
ATOM      1  N   UNL     1       0.376  -6.840   2.336  0.00  0.00    -0.278 N 
ATOM      2  C   UNL     1      -0.392  -7.867   1.922  0.00  0.00    +0.303 C 
ATOM      3  O   UNL     1      -1.588  -7.853   2.128  0.00  0.00    -0.265 OA
ATOM      4  H   UNL     1       1.317  -6.813   2.102  0.00  0.00    +0.155 HD
ENDROOT
BRANCH   1  11
ATOM      5  N   UNL     1       1.468  -2.527   2.446  0.00  0.00    +0.385 N 
ATOM      6  C   UNL     1       0.672  -2.291   3.671  0.00  0.00    -0.042 C 
ATOM      7  C   UNL     1      -0.161  -3.539   3.863  0.00  0.00    -0.061 A 
ATOM      8  C   UNL     1      -1.292  -3.783   4.620  0.00  0.00    +0.002 A 
ATOM      9  C   UNL     1      -1.871  -5.039   4.620  0.00  0.00    +0.002 A 
ATOM     10  C   UNL     1      -1.320  -6.055   3.864  0.00  0.00    +0.023 A 
ATOM     11  C   UNL     1      -0.183  -5.814   3.102  0.00  0.00    +0.035 A 
ATOM     12  C   UNL     1       0.395  -4.552   3.103  0.00  0.00    -0.041 A 
ATOM     13  C   UNL     1       1.609  -3.999   2.391  0.00  0.00    -0.040 C 
ATOM     14  H   UNL     1       2.374  -2.087   2.520  0.00  0.00    -0.081 HD
BRANCH   5  15
ATOM     15  C   UNL     1       0.752  -2.033   1.262  0.00  0.00    -0.078 C 
BRANCH  15  16
ATOM     16  C   UNL     1       0.729  -0.503   1.281  0.00  0.00    -0.019 C 
BRANCH  16  18
ATOM     17  C   UNL     1      -0.040   1.540   0.067  0.00  0.00    +0.004 C 
ATOM     18  C   UNL     1      -0.018   0.010   0.048  0.00  0.00    -0.005 C 
ENDBRANCH  16  18
ENDBRANCH  15  16
ENDBRANCH   5  15
ENDBRANCH   1  11
BRANCH   2  19
ATOM     19  C   UNL     1       0.230  -9.024   1.210  0.00  0.00    +0.299 C 
ATOM     20  O   UNL     1       1.425  -9.039   1.004  0.00  0.00    -0.265 OA
ATOM     21  N   UNL     1      -0.538 -10.052   0.796  0.00  0.00    -0.305 N 
ATOM     22  H   UNL     1      -1.494 -10.040   0.960  0.00  0.00    +0.149 HD
BRANCH  21  23
ATOM     23  C   UNL     1       0.071 -11.186   0.097  0.00  0.00    +0.140 C 
BRANCH  23  24
ATOM     24  C   UNL     1      -1.012 -12.206  -0.260  0.00  0.00    +0.162 C 
BRANCH  24  25
ATOM     25  C   UNL     1      -0.385 -13.373  -0.979  0.00  0.00    -0.018 A 
ATOM     26  C   UNL     1       0.164 -14.416  -0.256  0.00  0.00    +0.006 A 
ATOM     27  C   UNL     1       0.739 -15.486  -0.915  0.00  0.00    +0.000 A 
ATOM     28  C   UNL     1       0.764 -15.514  -2.297  0.00  0.00    +0.000 A 
ATOM     29  C   UNL     1       0.214 -14.472  -3.020  0.00  0.00    +0.000 A 
ATOM     30  C   UNL     1      -0.364 -13.404  -2.361  0.00  0.00    +0.006 A 
ENDBRANCH  24  25
BRANCH  24  31
ATOM     31  O   UNL     1      -1.646 -12.667   0.935  0.00  0.00    -0.386 OA
ATOM     32  H   UNL     1      -1.044 -13.096   1.558  0.00  0.00    +0.210 HD
ENDBRANCH  24  31
ENDBRANCH  23  24
ENDBRANCH  21  23
ENDBRANCH   2  19
TORSDOF 9
