REMARK  Name = ZINC35506356
REMARK  3 active torsions:
REMARK  status: ('A' for Active; 'I' for Inactive)
REMARK    1  A    between atoms: C_4  and  C_7
REMARK    2  A    between atoms: C_13  and  C_18
REMARK    3  A    between atoms: N_20  and  C_21
REMARK                            x       y       z     vdW  Elec       q    Type
REMARK                         _______ _______ _______ _____ _____    ______ ____
ROOT
ATOM      1  C   UNL     1       3.131  -1.704  -0.330  0.00  0.00    +0.032 C 
ATOM      2  C   UNL     1       3.560  -2.030   1.098  0.00  0.00    +0.062 C 
ATOM      3  C   UNL     1       4.786  -2.906   1.115  0.00  0.00    +0.030 A 
ATOM      4  C   UNL     1       5.121  -3.700   0.032  0.00  0.00    +0.038 A 
ATOM      5  C   UNL     1       6.267  -4.524   0.070  0.00  0.00    +0.031 A 
ATOM      6  C   UNL     1       7.058  -4.519   1.210  0.00  0.00    +0.102 A 
ATOM      7  C   UNL     1       6.662  -3.654   2.324  0.00  0.00    +0.261 A 
ATOM      8  O   UNL     1       7.333  -3.620   3.340  0.00  0.00    -0.267 OA
ATOM      9  N   UNL     1       5.557  -2.898   2.222  0.00  0.00    -0.325 N 
ATOM     10  H   UNL     1       5.305  -2.329   2.966  0.00  0.00    +0.169 HD
ATOM     11  C   UNL     1       4.288  -3.693  -1.183  0.00  0.00    +0.165 C 
ATOM     12  O   UNL     1       4.671  -4.216  -2.208  0.00  0.00    -0.292 OA
ATOM     13  C   UNL     1       2.939  -3.010  -1.112  0.00  0.00    +0.088 C 
ENDROOT
BRANCH   1  17
ATOM     14  C   UNL     1      -0.548   0.466  -0.254  0.00  0.00    +0.000 A 
ATOM     15  C   UNL     1       0.578   1.034  -0.820  0.00  0.00    +0.000 A 
ATOM     16  C   UNL     1       1.768   0.332  -0.844  0.00  0.00    +0.004 A 
ATOM     17  C   UNL     1       1.833  -0.938  -0.302  0.00  0.00    -0.044 A 
ATOM     18  C   UNL     1       0.707  -1.506   0.264  0.00  0.00    +0.004 A 
ATOM     19  C   UNL     1      -0.484  -0.804   0.287  0.00  0.00    +0.000 A 
ENDBRANCH   1  17
BRANCH   6  20
ATOM     20  C   UNL     1       8.262  -5.361   1.298  0.00  0.00    +0.254 C 
ATOM     21  O   UNL     1       8.519  -6.150   0.408  0.00  0.00    -0.270 OA
ATOM     22  N   UNL     1       9.080  -5.258   2.364  0.00  0.00    -0.281 N 
ATOM     23  H   UNL     1       8.836  -4.686   3.108  0.00  0.00    +0.155 HD
BRANCH  22  24
ATOM     24  C   UNL     1      10.280  -5.975   2.396  0.00  0.00    +0.034 A 
ATOM     25  C   UNL     1      10.982  -6.210   1.221  0.00  0.00    +0.023 A 
ATOM     26  C   UNL     1      12.168  -6.919   1.257  0.00  0.00    +0.002 A 
ATOM     27  C   UNL     1      12.655  -7.394   2.460  0.00  0.00    +0.000 A 
ATOM     28  C   UNL     1      11.958  -7.161   3.632  0.00  0.00    +0.002 A 
ATOM     29  C   UNL     1      10.775  -6.449   3.604  0.00  0.00    +0.023 A 
ENDBRANCH  22  24
ENDBRANCH   6  20
TORSDOF 3
