REMARK  Name = ZINC63330698
REMARK  6 active torsions:
REMARK  status: ('A' for Active; 'I' for Inactive)
REMARK    1  A    between atoms: C_6  and  S_10
REMARK    2  A    between atoms: S_10  and  C_11
REMARK    3  A    between atoms: C_11  and  C_12
REMARK    4  A    between atoms: N_14  and  N_15
REMARK    5  A    between atoms: C_16  and  C_17
REMARK    6  A    between atoms: C_20  and  O_23
REMARK                            x       y       z     vdW  Elec       q    Type
REMARK                         _______ _______ _______ _____ _____    ______ ____
ROOT
ATOM      1  C   UNL     1       2.796  -2.941  -4.244  0.00  0.00    +0.242 C 
ATOM      2  O   UNL     1       3.827  -3.578  -4.187  0.00  0.00    -0.273 OA
ATOM      3  N   UNL     1       2.373  -2.446  -5.423  0.00  0.00    -0.206 N 
ATOM      4  H   UNL     1       1.549  -1.937  -5.468  0.00  0.00    +0.177 HD
ENDROOT
BRANCH   3   5
ATOM      5  N   UNL     1       3.125  -2.666  -6.585  0.00  0.00    -0.188 NA
ATOM      6  C   UNL     1       2.783  -2.091  -7.698  0.00  0.00    +0.138 C 
BRANCH   6   7
ATOM      7  C   UNL     1       1.945  -0.879  -7.674  0.00  0.00    -0.005 A 
ATOM      8  C   UNL     1       1.339  -0.423  -8.848  0.00  0.00    +0.013 A 
ATOM      9  C   UNL     1       0.556   0.711  -8.821  0.00  0.00    +0.046 A 
ATOM     10  C   UNL     1       0.369   1.400  -7.630  0.00  0.00    +0.117 A 
ATOM     11  C   UNL     1       0.970   0.951  -6.461  0.00  0.00    +0.046 A 
ATOM     12  C   UNL     1       1.750  -0.185  -6.477  0.00  0.00    +0.013 A 
BRANCH  10  13
ATOM     13  O   UNL     1      -0.404   2.517  -7.608  0.00  0.00    -0.507 OA
ATOM     14  H   UNL     1      -1.338   2.346  -7.426  0.00  0.00    +0.292 HD
ENDBRANCH  10  13
ENDBRANCH   6   7
ENDBRANCH   3   5
BRANCH   1  15
ATOM     15  C   UNL     1       1.988  -2.705  -2.994  0.00  0.00    +0.170 C 
BRANCH  15  16
ATOM     16  S   UNL     1       2.812  -3.491  -1.582  0.00  0.00    -0.106 S 
BRANCH  16  22
ATOM     17  C   UNL     1      -2.448  -1.229  -0.542  0.00  0.00    +0.002 A 
ATOM     18  C   UNL     1      -1.706  -0.063  -0.279  0.00  0.00    +0.002 A 
ATOM     19  C   UNL     1      -0.373  -0.079  -0.085  0.00  0.00    +0.027 A 
ATOM     20  C   UNL     1       0.354  -1.354  -0.146  0.00  0.00    +0.061 A 
ATOM     21  N   UNL     1       1.610  -1.665  -0.002  0.00  0.00    -0.355 N 
ATOM     22  C   UNL     1       1.727  -3.118  -0.177  0.00  0.00    +0.236 C 
ATOM     23  N   UNL     1       0.371  -3.614  -0.442  0.00  0.00    -0.355 N 
ATOM     24  C   UNL     1      -0.430  -2.588  -0.425  0.00  0.00    +0.061 A 
ATOM     25  C   UNL     1      -1.880  -2.449  -0.620  0.00  0.00    +0.027 A 
ATOM     26  H   UNL     1       2.336  -1.049   0.185  0.00  0.00    +0.162 HD
ATOM     27  H   UNL     1       0.118  -4.537  -0.602  0.00  0.00    +0.162 HD
ENDBRANCH  16  22
ENDBRANCH  15  16
ENDBRANCH   1  15
TORSDOF 6
