REMARK  Name = ZINC12711947
REMARK  11 active torsions:
REMARK  status: ('A' for Active; 'I' for Inactive)
REMARK    1  A    between atoms: C_1  and  C_2
REMARK    2  A    between atoms: C_2  and  C_3
REMARK    3  A    between atoms: C_3  and  C_4
REMARK    4  A    between atoms: C_3  and  C_5
REMARK    5  A    between atoms: C_3  and  N_6
REMARK    6  A    between atoms: C_7  and  C_11
REMARK    7  A    between atoms: C_11  and  C_13
REMARK    8  A    between atoms: C_11  and  N_65
REMARK    9  A    between atoms: C_16  and  C_26
REMARK   10  A    between atoms: C_19  and  C_25
REMARK   11  A    between atoms: C_30  and  C_33
REMARK                            x       y       z     vdW  Elec       q    Type
REMARK                         _______ _______ _______ _____ _____    ______ ____
ROOT
ATOM      1  C   UNL     1       0.194   0.009   4.717  0.00  0.00    +0.039 C 
ENDROOT
BRANCH   1   2
ATOM      2  C   UNL     1       0.463  -0.890   3.537  0.00  0.00    +0.011 A 
ATOM      3  C   UNL     1       0.753  -0.349   2.328  0.00  0.00    +0.018 A 
ATOM      4  C   UNL     1       1.009  -1.249   1.202  0.00  0.00    +0.002 A 
ATOM      5  C   UNL     1       1.313  -0.750  -0.069  0.00  0.00    -0.041 A 
ATOM      6  C   UNL     1       1.543  -1.616  -1.099  0.00  0.00    +0.004 A 
ATOM      7  C   UNL     1       1.486  -2.988  -0.894  0.00  0.00    +0.005 A 
ATOM      8  C   UNL     1       1.189  -3.502   0.349  0.00  0.00    -0.026 A 
ATOM      9  C   UNL     1       0.947  -2.639   1.413  0.00  0.00    +0.052 A 
ATOM     10  N   UNL     1       0.648  -3.126   2.668  0.00  0.00    -0.322 N 
ATOM     11  H   UNL     1       0.605  -4.084   2.811  0.00  0.00    +0.169 HD
ATOM     12  C   UNL     1       0.414  -2.291   3.695  0.00  0.00    +0.251 A 
ATOM     13  O   UNL     1       0.152  -2.757   4.791  0.00  0.00    -0.268 OA
ATOM     14  C   UNL     1       1.126  -4.994   0.556  0.00  0.00    +0.046 C 
ATOM     15  C   UNL     1       1.381   0.738  -0.301  0.00  0.00    +0.044 C 
ENDBRANCH   1   2
BRANCH   1  22
ATOM     16  C   UNL     1      -1.365   0.464   6.512  0.00  0.00    -0.077 C 
ATOM     17  C   UNL     1      -2.660  -0.015   7.173  0.00  0.00    -0.018 C 
ATOM     18  C   UNL     1      -3.820   0.140   6.185  0.00  0.00    -0.001 C 
ATOM     19  C   UNL     1      -3.507  -0.655   4.915  0.00  0.00    -0.031 C 
ATOM     20  C   UNL     1      -2.188  -0.158   4.319  0.00  0.00    -0.074 C 
ATOM     21  C   UNL     1      -4.634  -0.458   3.899  0.00  0.00    +0.005 C 
ATOM     22  N   UNL     1      -1.109  -0.358   5.310  0.00  0.00    +0.389 N 
ATOM     23  H   UNL     1      -1.085  -1.347   5.581  0.00  0.00    -0.080 HD
ENDBRANCH   1  22
BRANCH   1  25
ATOM     24  N   UNL     1       2.223   0.706   6.097  0.00  0.00    -0.225 N 
ATOM     25  C   UNL     1       1.273  -0.183   5.751  0.00  0.00    +0.143 A 
ATOM     26  N   UNL     1       1.466  -1.246   6.493  0.00  0.00    -0.115 NA
ATOM     27  N   UNL     1       2.486  -1.025   7.249  0.00  0.00    -0.023 NA
ATOM     28  N   UNL     1       2.943   0.155   7.014  0.00  0.00    -0.043 NA
BRANCH  24  29
ATOM     29  C   UNL     1       2.403   2.048   5.537  0.00  0.00    +0.061 C 
ATOM     30  C   UNL     1       2.590   1.947   4.021  0.00  0.00    +0.036 C 
ATOM     31  C   UNL     1       1.169   2.899   5.843  0.00  0.00    +0.036 C 
BRANCH  29  33
ATOM     32  C   UNL     1       3.828   4.100   5.576  0.00  0.00    +0.006 C 
ATOM     33  C   UNL     1       3.639   2.699   6.160  0.00  0.00    +0.026 C 
ENDBRANCH  29  33
ENDBRANCH  24  29
ENDBRANCH   1  25
TORSDOF 5
