REMARK  Name = ZINC35416146
REMARK  11 active torsions:
REMARK  status: ('A' for Active; 'I' for Inactive)
REMARK    1  A    between atoms: C_1  and  C_2
REMARK    2  A    between atoms: N_8  and  C_9
REMARK    3  A    between atoms: C_9  and  C_10
REMARK    4  A    between atoms: C_10  and  C_11
REMARK    5  A    between atoms: C_11  and  N_12
REMARK    6  A    between atoms: C_13  and  C_15
REMARK    7  A    between atoms: C_15  and  C_16
REMARK    8  A    between atoms: C_22  and  C_24
REMARK    9  A    between atoms: C_24  and  N_25
REMARK   10  A    between atoms: N_25  and  C_26
REMARK   11  A    between atoms: C_29  and  C_31
REMARK                            x       y       z     vdW  Elec       q    Type
REMARK                         _______ _______ _______ _____ _____    ______ ____
ROOT
ATOM      1  C   UNL     1       2.462   4.233   9.136  0.00  0.00    +0.059 A 
ATOM      2  C   UNL     1       2.719   3.230  10.011  0.00  0.00    +0.072 A 
ATOM      3  S   UNL     1       1.530   3.594  11.292  0.00  0.00    -0.060 S 
ATOM      4  C   UNL     1       0.844   4.961  10.591  0.00  0.00    +0.165 A 
ATOM      5  N   UNL     1       1.513   5.089   9.466  0.00  0.00    -0.229 NA
ATOM      6  N   UNL     1      -0.179   5.763  11.084  0.00  0.00    -0.263 N 
ATOM      7  C   UNL     1      -0.748   5.476  12.271  0.00  0.00    +0.236 C 
ATOM      8  O   UNL     1      -0.367   4.518  12.911  0.00  0.00    -0.274 OA
ATOM      9  H   UNL     1      -0.483   6.530  10.573  0.00  0.00    +0.157 HD
ENDROOT
BRANCH   1  10
ATOM     10  C   UNL     1       3.231   4.369   7.847  0.00  0.00    +0.151 C 
BRANCH  10  12
ATOM     11  N   UNL     1       2.731   4.532   5.430  0.00  0.00    -0.315 N 
ATOM     12  C   UNL     1       2.267   4.413   6.689  0.00  0.00    +0.219 C 
ATOM     13  O   UNL     1       1.073   4.341   6.892  0.00  0.00    -0.275 OA
ATOM     14  H   UNL     1       3.686   4.589   5.268  0.00  0.00    +0.149 HD
BRANCH  11  15
ATOM     15  C   UNL     1       1.793   4.574   4.305  0.00  0.00    +0.102 C 
BRANCH  15  16
ATOM     16  C   UNL     1       2.574   4.712   2.996  0.00  0.00    +0.000 C 
BRANCH  16  17
ATOM     17  C   UNL     1       1.595   4.757   1.821  0.00  0.00    -0.077 C 
BRANCH  17  24
ATOM     18  C   UNL     1       0.502   6.260  -0.284  0.00  0.00    -0.013 C 
ATOM     19  C   UNL     1       1.402   5.052  -0.550  0.00  0.00    -0.072 C 
ATOM     20  C   UNL     1       2.179   5.271  -1.850  0.00  0.00    -0.016 C 
ATOM     21  C   UNL     1       3.078   4.060  -2.112  0.00  0.00    -0.003 C 
ATOM     22  C   UNL     1       4.004   3.854  -0.911  0.00  0.00    -0.019 C 
ATOM     23  C   UNL     1       3.160   3.687   0.355  0.00  0.00    -0.078 C 
ATOM     24  N   UNL     1       2.344   4.889   0.564  0.00  0.00    +0.381 N 
ATOM     25  H   UNL     1       2.944   5.698   0.616  0.00  0.00    -0.081 HD
ENDBRANCH  17  24
ENDBRANCH  16  17
ENDBRANCH  15  16
ENDBRANCH  11  15
ENDBRANCH  10  12
ENDBRANCH   1  10
BRANCH   7  26
ATOM     26  C   UNL     1      -1.857   6.346  12.806  0.00  0.00    +0.204 C 
BRANCH  26  27
ATOM     27  N   UNL     1      -2.303   5.828  14.101  0.00  0.00    -0.286 N 
ATOM     28  C   UNL     1      -3.502   5.224  14.209  0.00  0.00    +0.247 C 
ATOM     29  O   UNL     1      -3.913   4.877  15.299  0.00  0.00    -0.270 OA
BRANCH  28  30
ATOM     30  C   UNL     1      -4.320   4.984  13.002  0.00  0.00    +0.037 A 
ATOM     31  C   UNL     1      -3.704   4.838  11.757  0.00  0.00    +0.016 A 
ATOM     32  C   UNL     1      -4.471   4.615  10.634  0.00  0.00    +0.039 A 
ATOM     33  C   UNL     1      -5.852   4.535  10.739  0.00  0.00    +0.123 A 
ATOM     34  C   UNL     1      -6.468   4.680  11.972  0.00  0.00    +0.039 A 
ATOM     35  C   UNL     1      -5.710   4.897  13.103  0.00  0.00    +0.016 A 
ATOM     36  F   UNL     1      -6.599   4.317   9.634  0.00  0.00    -0.205 F 
ENDBRANCH  28  30
BRANCH  27  37
ATOM     37  C   UNL     1      -1.444   5.967  15.280  0.00  0.00    +0.077 C 
ATOM     38  C   UNL     1      -1.762   5.090  16.493  0.00  0.00    +0.024 C 
ATOM     39  C   UNL     1      -2.061   6.589  16.534  0.00  0.00    +0.024 C 
ENDBRANCH  27  37
ENDBRANCH  26  27
ENDBRANCH   7  26
TORSDOF 10
