REMARK  Name = ZINC39872144
REMARK  7 active torsions:
REMARK  status: ('A' for Active; 'I' for Inactive)
REMARK    1  A    between atoms: C_1  and  O_2
REMARK    2  A    between atoms: O_2  and  C_3
REMARK    3  A    between atoms: C_6  and  N_9
REMARK    4  A    between atoms: C_10  and  C_25
REMARK    5  A    between atoms: C_28  and  O_33
REMARK    6  A    between atoms: C_29  and  O_31
REMARK    7  A    between atoms: O_31  and  C_32
REMARK                            x       y       z     vdW  Elec       q    Type
REMARK                         _______ _______ _______ _____ _____    ______ ____
ROOT
ATOM      1  N   UNL     1       2.457  -2.457  -4.301  0.00  0.00    -0.253 N 
ATOM      2  C   UNL     1       2.580  -3.908  -4.514  0.00  0.00    +0.150 C 
ATOM      3  C   UNL     1       3.318  -4.069  -5.803  0.00  0.00    +0.072 A 
ATOM      4  C   UNL     1       3.744  -5.269  -6.529  0.00  0.00    +0.199 A 
ATOM      5  O   UNL     1       3.382  -6.394  -6.230  0.00  0.00    -0.287 OA
ATOM      6  C   UNL     1       4.660  -4.984  -7.663  0.00  0.00    +0.064 A 
ATOM      7  C   UNL     1       5.309  -6.026  -8.325  0.00  0.00    +0.015 A 
ATOM      8  C   UNL     1       6.153  -5.747  -9.364  0.00  0.00    +0.001 A 
ATOM      9  C   UNL     1       6.364  -4.433  -9.759  0.00  0.00    +0.004 A 
ATOM     10  C   UNL     1       5.731  -3.393  -9.117  0.00  0.00    +0.047 A 
ATOM     11  C   UNL     1       4.863  -3.651  -8.056  0.00  0.00    +0.139 A 
ATOM     12  O   UNL     1       4.243  -2.615  -7.446  0.00  0.00    -0.450 OA
ATOM     13  C   UNL     1       3.588  -2.820  -6.286  0.00  0.00    +0.199 A 
ATOM     14  C   UNL     1       3.043  -1.831  -5.341  0.00  0.00    +0.287 C 
ATOM     15  O   UNL     1       3.114  -0.625  -5.478  0.00  0.00    -0.266 OA
ENDROOT
BRANCH   1  19
ATOM     16  C   UNL     1       0.606  -0.607  -1.056  0.00  0.00    +0.120 A 
ATOM     17  C   UNL     1       1.173   0.162  -2.062  0.00  0.00    +0.047 A 
ATOM     18  C   UNL     1       1.786  -0.450  -3.137  0.00  0.00    +0.027 A 
ATOM     19  C   UNL     1       1.836  -1.836  -3.211  0.00  0.00    +0.038 A 
ATOM     20  C   UNL     1       1.268  -2.605  -2.204  0.00  0.00    +0.027 A 
ATOM     21  C   UNL     1       0.660  -1.992  -1.127  0.00  0.00    +0.047 A 
BRANCH  16  23
ATOM     22  C   UNL     1      -0.017   1.425   0.010  0.00  0.00    +0.277 C 
ATOM     23  O   UNL     1       0.002  -0.004   0.002  0.00  0.00    -0.495 OA
ENDBRANCH  16  23
ENDBRANCH   1  19
BRANCH   2  24
ATOM     24  C   UNL     1       3.357  -4.536  -3.386  0.00  0.00    -0.018 A 
ATOM     25  C   UNL     1       4.458  -3.885  -2.861  0.00  0.00    +0.009 A 
ATOM     26  C   UNL     1       5.175  -4.456  -1.826  0.00  0.00    +0.049 A 
ATOM     27  C   UNL     1       4.790  -5.685  -1.313  0.00  0.00    +0.158 A 
ATOM     28  C   UNL     1       3.683  -6.340  -1.842  0.00  0.00    +0.162 A 
ATOM     29  C   UNL     1       2.966  -5.760  -2.876  0.00  0.00    +0.055 A 
BRANCH  28  30
ATOM     30  O   UNL     1       3.301  -7.546  -1.342  0.00  0.00    -0.491 OA
ATOM     31  C   UNL     1       2.155  -8.161  -1.934  0.00  0.00    +0.277 C 
ENDBRANCH  28  30
BRANCH  27  32
ATOM     32  O   UNL     1       5.494  -6.249  -0.296  0.00  0.00    -0.503 OA
ATOM     33  H   UNL     1       5.178  -6.005   0.585  0.00  0.00    +0.292 HD
ENDBRANCH  27  32
ENDBRANCH   2  24
TORSDOF 5
