REMARK  Name = ZINC20690334
REMARK  10 active torsions:
REMARK  status: ('A' for Active; 'I' for Inactive)
REMARK    1  A    between atoms: C_1  and  C_2
REMARK    2  A    between atoms: C_2  and  C_3
REMARK    3  A    between atoms: C_2  and  C_4
REMARK    4  A    between atoms: C_2  and  N_5
REMARK    5  A    between atoms: N_5  and  S_6
REMARK    6  A    between atoms: S_6  and  C_9
REMARK    7  A    between atoms: C_22  and  C_25
REMARK    8  A    between atoms: C_28  and  O_32
REMARK    9  A    between atoms: C_29  and  O_31
REMARK   10  A    between atoms: O_32  and  C_33
REMARK                            x       y       z     vdW  Elec       q    Type
REMARK                         _______ _______ _______ _____ _____    ______ ____
ROOT
ATOM      1  C   UNL     1       0.832   3.083   2.451  0.00  0.00    +0.106 A 
ATOM      2  C   UNL     1       1.557   3.716   1.458  0.00  0.00    +0.030 A 
ATOM      3  C   UNL     1       2.136   2.980   0.445  0.00  0.00    +0.025 A 
ATOM      4  C   UNL     1       1.997   1.598   0.415  0.00  0.00    +0.031 A 
ATOM      5  C   UNL     1       1.253   0.964   1.417  0.00  0.00    -0.018 A 
ATOM      6  C   UNL     1       0.682   1.708   2.426  0.00  0.00    +0.034 A 
ATOM      7  C   UNL     1       1.112  -0.506   1.336  0.00  0.00    +0.049 C 
ATOM      8  C   UNL     1       0.883  -1.340   2.544  0.00  0.00    -0.023 C 
ATOM      9  C   UNL     1       1.442  -2.528   2.350  0.00  0.00    -0.030 C 
ATOM     10  C   UNL     1       2.130  -2.567   0.984  0.00  0.00    +0.033 C 
ATOM     11  C   UNL     1       2.436  -1.081   0.751  0.00  0.00    +0.029 C 
ATOM     12  C   UNL     1       2.483  -0.602  -0.689  0.00  0.00    +0.105 C 
ATOM     13  N   UNL     1       2.608   0.870  -0.614  0.00  0.00    -0.336 N 
ATOM     14  H   UNL     1       3.189   1.413  -1.375  0.00  0.00    +0.147 HD
ENDROOT
BRANCH  12  15
ATOM     15  C   UNL     1       1.214  -0.981  -1.406  0.00  0.00    -0.023 A 
ATOM     16  C   UNL     1       0.212  -0.043  -1.579  0.00  0.00    +0.009 A 
ATOM     17  C   UNL     1      -0.954  -0.386  -2.237  0.00  0.00    +0.050 A 
ATOM     18  C   UNL     1      -1.122  -1.672  -2.725  0.00  0.00    +0.161 A 
ATOM     19  C   UNL     1      -0.115  -2.616  -2.551  0.00  0.00    +0.159 A 
ATOM     20  C   UNL     1       1.054  -2.264  -1.895  0.00  0.00    +0.054 A 
BRANCH  19  21
ATOM     21  O   UNL     1      -0.275  -3.880  -3.028  0.00  0.00    -0.503 OA
ATOM     22  H   UNL     1       0.522  -4.625  -2.890  0.00  0.00    +0.292 HD
ENDBRANCH  19  21
BRANCH  18  23
ATOM     23  O   UNL     1      -2.269  -2.011  -3.372  0.00  0.00    -0.491 OA
ATOM     24  C   UNL     1      -3.260  -0.991  -3.513  0.00  0.00    +0.277 C 
ENDBRANCH  18  23
ENDBRANCH  12  15
BRANCH   1  25
ATOM     25  S   UNL     1       0.101   4.026   3.747  0.00  0.00    +0.059 S 
ATOM     26  O   UNL     1       0.095   5.379   3.311  0.00  0.00    -0.153 OA
ATOM     27  O   UNL     1      -1.086   3.343   4.127  0.00  0.00    -0.153 OA
BRANCH  25  28
ATOM     28  N   UNL     1       1.126   3.952   5.045  0.00  0.00    -0.185 NA
ATOM     29  H   UNL     1       0.879   3.289   5.888  0.00  0.00    +0.149 HD
BRANCH  28  31
ATOM     30  C   UNL     1       2.272   6.097   4.787  0.00  0.00    +0.029 C 
ATOM     31  C   UNL     1       2.444   4.588   4.975  0.00  0.00    +0.032 C 
ATOM     32  C   UNL     1       3.209   4.320   6.272  0.00  0.00    +0.029 C 
ATOM     33  C   UNL     1       3.226   4.012   3.793  0.00  0.00    +0.029 C 
ENDBRANCH  28  31
ENDBRANCH  25  28
ENDBRANCH   1  25
TORSDOF 6
