REMARK  Name = ZINC42113885
REMARK  4 active torsions:
REMARK  status: ('A' for Active; 'I' for Inactive)
REMARK    1  A    between atoms: C_1  and  C_2
REMARK    2  A    between atoms: C_2  and  N_3
REMARK    3  A    between atoms: C_6  and  N_9
REMARK    4  A    between atoms: N_9  and  C_10
REMARK                            x       y       z     vdW  Elec       q    Type
REMARK                         _______ _______ _______ _____ _____    ______ ____
ROOT
ATOM      1  C   UNL     1      -5.224  -3.896  -1.072  0.00  0.00    +0.173 C 
ATOM      2  C   UNL     1      -6.461  -4.445  -0.400  0.00  0.00    +0.005 A 
ATOM      3  C   UNL     1      -6.820  -4.595   0.922  0.00  0.00    +0.046 A 
ATOM      4  C   UNL     1      -8.050  -5.145   1.246  0.00  0.00    +0.127 A 
ATOM      5  C   UNL     1      -8.914  -5.542   0.239  0.00  0.00    +0.078 A 
ATOM      6  C   UNL     1      -8.555  -5.393  -1.086  0.00  0.00    +0.148 A 
ATOM      7  C   UNL     1      -7.317  -4.839  -1.419  0.00  0.00    +0.074 A 
ATOM      8  N   UNL     1      -6.734  -4.589  -2.664  0.00  0.00    -0.281 N 
ATOM      9  C   UNL     1      -5.510  -4.040  -2.552  0.00  0.00    +0.239 C 
ATOM     10  O   UNL     1      -4.775  -3.719  -3.462  0.00  0.00    -0.273 OA
ATOM     11  F   UNL     1      -9.403  -5.784  -2.063  0.00  0.00    -0.203 F 
ATOM     12  F   UNL     1      -8.405  -5.293   2.541  0.00  0.00    -0.205 F 
ATOM     13  H   UNL     1      -7.161  -4.788  -3.511  0.00  0.00    +0.155 HD
ENDROOT
BRANCH   1  14
ATOM     14  N   UNL     1      -5.032  -2.482  -0.720  0.00  0.00    -0.299 NA
ATOM     15  H   UNL     1      -5.356  -2.296   0.217  0.00  0.00    +0.123 HD
BRANCH  14  19
ATOM     16  N   UNL     1      -1.376  -0.512   0.012  0.00  0.00    -0.302 NA
ATOM     17  C   UNL     1      -2.076  -0.161  -1.229  0.00  0.00    +0.086 C 
ATOM     18  C   UNL     1      -3.545  -0.577  -1.124  0.00  0.00    +0.034 C 
ATOM     19  C   UNL     1      -3.627  -2.086  -0.880  0.00  0.00    +0.057 C 
ATOM     20  C   UNL     1      -2.849  -2.433   0.392  0.00  0.00    +0.034 C 
ATOM     21  C   UNL     1      -1.400  -1.963   0.243  0.00  0.00    +0.086 C 
BRANCH  16  23
ATOM     22  C   UNL     1      -0.019   1.526   0.010  0.00  0.00    +0.020 C 
ATOM     23  C   UNL     1       0.002  -0.004   0.002  0.00  0.00    +0.081 C 
ENDBRANCH  16  23
ENDBRANCH  14  19
ENDBRANCH   1  14
TORSDOF 3
