REMARK  Name = ZINC22572795
REMARK  6 active torsions:
REMARK  status: ('A' for Active; 'I' for Inactive)
REMARK    1  A    between atoms: C_12  and  S_13
REMARK    2  A    between atoms: S_13  and  C_14
REMARK    3  A    between atoms: C_14  and  C_15
REMARK    4  A    between atoms: N_17  and  C_18
REMARK    5  A    between atoms: C_18  and  C_19
REMARK    6  A    between atoms: N_21  and  C_22
REMARK                            x       y       z     vdW  Elec       q    Type
REMARK                         _______ _______ _______ _____ _____    ______ ____
ROOT
ATOM      1  C   UNL     1       3.895   7.507   0.427  0.00  0.00    +0.224 C 
ATOM      2  O   UNL     1       2.962   8.281   0.459  0.00  0.00    -0.275 OA
ATOM      3  N   UNL     1       3.669   6.183   0.312  0.00  0.00    -0.306 N 
ATOM      4  H   UNL     1       4.516   5.481   0.283  0.00  0.00    +0.149 HD
ENDROOT
BRANCH   1   5
ATOM      5  C   UNL     1       5.308   8.025   0.516  0.00  0.00    +0.173 C 
BRANCH   5   6
ATOM      6  S   UNL     1       5.280   9.833   0.662  0.00  0.00    -0.076 S 
BRANCH   6  18
ATOM      7  C   UNL     1       5.149  14.497   1.037  0.00  0.00    +0.002 A 
ATOM      8  C   UNL     1       6.065  15.529   1.151  0.00  0.00    +0.001 A 
ATOM      9  C   UNL     1       7.417  15.232   1.172  0.00  0.00    +0.017 A 
ATOM     10  C   UNL     1       7.824  13.922   1.079  0.00  0.00    +0.040 A 
ATOM     11  C   UNL     1       6.924  12.858   0.963  0.00  0.00    +0.065 A 
ATOM     12  C   UNL     1       5.559  13.188   0.944  0.00  0.00    +0.027 A 
ATOM     13  N   UNL     1       7.473  11.570   0.877  0.00  0.00    -0.264 N 
ATOM     14  C   UNL     1       8.837  11.447   0.912  0.00  0.00    +0.202 A 
ATOM     15  S   UNL     1       9.411  13.122   1.068  0.00  0.00    -0.048 S 
ATOM     16  N   UNL     1       9.172  10.195   0.822  0.00  0.00    -0.121 NA
ATOM     17  N   UNL     1       7.990   9.447   0.727  0.00  0.00    -0.121 NA
ATOM     18  C   UNL     1       6.982  10.279   0.755  0.00  0.00    +0.197 A 
ENDBRANCH   6  18
ENDBRANCH   5   6
ENDBRANCH   1   5
BRANCH   3  19
ATOM     19  C   UNL     1       2.296   5.679   0.225  0.00  0.00    +0.200 C 
BRANCH  19  20
ATOM     20  C   UNL     1       2.319   4.177   0.104  0.00  0.00    +0.234 C 
ATOM     21  O   UNL     1       3.378   3.586   0.091  0.00  0.00    -0.274 OA
ATOM     22  N   UNL     1       1.163   3.491   0.009  0.00  0.00    -0.282 N 
ATOM     23  H   UNL     1       0.208   4.031  -0.071  0.00  0.00    +0.155 HD
BRANCH  22  24
ATOM     24  C   UNL     1       1.178   2.090   0.013  0.00  0.00    +0.072 A 
ATOM     25  C   UNL     1       2.230   1.407   0.608  0.00  0.00    +0.029 A 
ATOM     26  C   UNL     1       2.244   0.026   0.611  0.00  0.00    +0.043 A 
ATOM     27  C   UNL     1       1.210  -0.680   0.022  0.00  0.00    +0.161 A 
ATOM     28  C   UNL     1       0.156  -0.003  -0.574  0.00  0.00    +0.195 A 
ATOM     29  C   UNL     1       0.139   1.381  -0.579  0.00  0.00    +0.182 A 
ATOM     30  F   UNL     1      -0.884   2.043  -1.163  0.00  0.00    -0.200 F 
ATOM     31  F   UNL     1      -0.852  -0.694  -1.149  0.00  0.00    -0.199 F 
ATOM     32  F   UNL     1       1.226  -2.031   0.026  0.00  0.00    -0.202 F 
ENDBRANCH  22  24
ENDBRANCH  19  20
ENDBRANCH   3  19
TORSDOF 6
