REMARK  Name = ZINC35526411
REMARK  10 active torsions:
REMARK  status: ('A' for Active; 'I' for Inactive)
REMARK    1  A    between atoms: C_1  and  C_2
REMARK    2  A    between atoms: N_13  and  C_34
REMARK    3  A    between atoms: C_14  and  S_16
REMARK    4  A    between atoms: S_16  and  C_17
REMARK    5  A    between atoms: C_17  and  C_18
REMARK    6  A    between atoms: C_22  and  C_25
REMARK    7  A    between atoms: C_28  and  N_31
REMARK    8  A    between atoms: N_31  and  C_32
REMARK    9  A    between atoms: N_31  and  C_33
REMARK   10  A    between atoms: C_34  and  C_35
REMARK                            x       y       z     vdW  Elec       q    Type
REMARK                         _______ _______ _______ _____ _____    ______ ____
ROOT
ATOM      1  C   UNL     1      -0.529   1.450   0.052  0.00  0.00    +0.008 C 
ATOM      2  C   UNL     1      -0.475  -0.079   0.052  0.00  0.00    -0.009 C 
ATOM      3  C   UNL     1       0.187  -0.570  -1.240  0.00  0.00    +0.008 C 
ATOM      4  C   UNL     1       0.023  -2.085  -1.363  0.00  0.00    +0.037 C 
ATOM      5  C   UNL     1       0.525  -2.742  -0.080  0.00  0.00    -0.023 A 
ATOM      6  C   UNL     1       0.657  -2.021   1.056  0.00  0.00    -0.004 A 
ATOM      7  S   UNL     1       1.258  -3.168   2.269  0.00  0.00    -0.073 S 
ATOM      8  C   UNL     1       1.333  -4.610   1.254  0.00  0.00    +0.117 A 
ATOM      9  C   UNL     1       0.884  -4.149  -0.005  0.00  0.00    +0.076 A 
ATOM     10  C   UNL     1       0.828  -5.106  -1.070  0.00  0.00    +0.263 A 
ATOM     11  O   UNL     1       0.454  -4.804  -2.191  0.00  0.00    -0.267 OA
ATOM     12  N   UNL     1       1.215  -6.364  -0.756  0.00  0.00    -0.283 N 
ATOM     13  C   UNL     1       1.635  -6.721   0.489  0.00  0.00    +0.173 A 
ATOM     14  N   UNL     1       1.700  -5.862   1.497  0.00  0.00    -0.216 NA
ATOM     15  C   UNL     1       0.355  -0.565   1.248  0.00  0.00    +0.046 C 
ENDROOT
BRANCH  13  16
ATOM     16  S   UNL     1       2.112  -8.393   0.773  0.00  0.00    -0.085 S 
BRANCH  16  17
ATOM     17  C   UNL     1       2.588  -8.423   2.523  0.00  0.00    +0.107 C 
BRANCH  17  18
ATOM     18  C   UNL     1       3.030  -9.837   2.907  0.00  0.00    +0.110 C 
ATOM     19  C   UNL     1       3.396  -9.902   4.411  0.00  0.00    -0.046 C 
ATOM     20  N   UNL     1       3.162 -11.342   4.710  0.00  0.00    +0.401 N 
ATOM     21  C   UNL     1       1.999 -11.692   3.865  0.00  0.00    +0.094 C 
ATOM     22  O   UNL     1       1.936 -10.762   2.774  0.00  0.00    -0.388 OA
ATOM     23  H   UNL     1       3.966 -11.893   4.450  0.00  0.00    -0.081 HD
ATOM     24  H   UNL     1       2.942 -11.470   5.686  0.00  0.00    -0.081 HD
BRANCH  21  25
ATOM     25  C   UNL     1       2.163 -13.090   3.327  0.00  0.00    -0.036 A 
ATOM     26  C   UNL     1       2.700 -14.080   4.130  0.00  0.00    +0.006 A 
ATOM     27  C   UNL     1       2.852 -15.362   3.641  0.00  0.00    +0.023 A 
ATOM     28  C   UNL     1       2.465 -15.657   2.340  0.00  0.00    +0.029 A 
ATOM     29  C   UNL     1       1.926 -14.661   1.536  0.00  0.00    +0.023 A 
ATOM     30  C   UNL     1       1.772 -13.382   2.034  0.00  0.00    +0.006 A 
BRANCH  28  31
ATOM     31  N   UNL     1       2.618 -16.953   1.841  0.00  0.00    -0.336 N 
ATOM     32  C   UNL     1       3.187 -18.002   2.691  0.00  0.00    +0.129 C 
ATOM     33  C   UNL     1       2.209 -17.263   0.469  0.00  0.00    +0.129 C 
ENDBRANCH  28  31
ENDBRANCH  21  25
ENDBRANCH  17  18
ENDBRANCH  16  17
ENDBRANCH  13  16
BRANCH  12  34
ATOM     34  C   UNL     1       1.180  -7.388  -1.803  0.00  0.00    +0.154 C 
BRANCH  34  35
ATOM     35  C   UNL     1       2.505  -7.418  -2.521  0.00  0.00    -0.013 C 
ATOM     36  C   UNL     1       3.176  -8.539  -2.610  0.00  0.00    +0.005 C 
ENDBRANCH  34  35
ENDBRANCH  12  34
TORSDOF 7
