REMARK  Name = ZINC10067389
REMARK  15 active torsions:
REMARK  status: ('A' for Active; 'I' for Inactive)
REMARK    1  A    between atoms: C_1  and  C_2
REMARK    2  A    between atoms: C_2  and  N_65
REMARK    3  A    between atoms: C_3  and  C_4
REMARK    4  A    between atoms: C_3  and  N_65
REMARK    5  A    between atoms: C_5  and  C_6
REMARK    6  A    between atoms: C_5  and  N_65
REMARK    7  A    between atoms: C_6  and  N_7
REMARK    8  A    between atoms: C_11  and  O_19
REMARK    9  A    between atoms: C_14  and  O_17
REMARK   10  A    between atoms: O_17  and  C_18
REMARK   11  A    between atoms: O_19  and  C_20
REMARK   12  A    between atoms: C_21  and  C_23
REMARK   13  A    between atoms: C_23  and  C_24
REMARK   14  A    between atoms: C_24  and  S_25
REMARK   15  A    between atoms: S_25  and  C_28
REMARK                            x       y       z     vdW  Elec       q    Type
REMARK                         _______ _______ _______ _____ _____    ______ ____
ROOT
ATOM      1  N   UNL     1       2.719   4.305   0.153  0.00  0.00    -0.252 N 
ATOM      2  C   UNL     1       1.725   3.346   0.279  0.00  0.00    +0.168 A 
ATOM      3  N   UNL     1       1.843   2.041   0.333  0.00  0.00    -0.221 NA
ATOM      4  C   UNL     1       0.776   1.220   0.458  0.00  0.00    +0.125 A 
ATOM      5  C   UNL     1       0.766  -0.197   0.528  0.00  0.00    +0.147 A 
ATOM      6  C   UNL     1      -0.416  -0.885   0.655  0.00  0.00    +0.051 A 
ATOM      7  C   UNL     1      -1.636  -0.225   0.719  0.00  0.00    +0.050 A 
ATOM      8  C   UNL     1      -1.662   1.159   0.653  0.00  0.00    +0.136 A 
ATOM      9  C   UNL     1      -0.481   1.857   0.525  0.00  0.00    +0.086 A 
ATOM     10  S   UNL     1      -0.043   3.574   0.407  0.00  0.00    -0.048 S 
ATOM     11  C   UNL     1       2.393   5.612   0.113  0.00  0.00    +0.223 C 
ATOM     12  O   UNL     1       1.231   5.950   0.188  0.00  0.00    -0.275 OA
ENDROOT
BRANCH   8  13
ATOM     13  O   UNL     1      -2.847   1.825   0.714  0.00  0.00    -0.494 OA
ATOM     14  C   UNL     1      -4.030   1.034   0.846  0.00  0.00    +0.277 C 
ENDBRANCH   8  13
BRANCH   5  15
ATOM     15  O   UNL     1       1.940  -0.882   0.469  0.00  0.00    -0.493 OA
ATOM     16  C   UNL     1       1.864  -2.307   0.545  0.00  0.00    +0.277 C 
ENDBRANCH   5  15
BRANCH   1  17
ATOM     17  C   UNL     1       4.123   3.897   0.062  0.00  0.00    +0.097 C 
BRANCH  17  18
ATOM     18  C   UNL     1       4.499   3.683  -1.406  0.00  0.00    -0.059 C 
BRANCH  18  19
ATOM     19  N   UNL     1       5.922   3.293  -1.482  0.00  0.00    +0.380 N 
ATOM     20  H   UNL     1       6.483   3.973  -0.955  0.00  0.00    -0.082 HD
BRANCH  19  22
ATOM     21  C   UNL     1       5.272   0.912  -1.633  0.00  0.00    -0.017 C 
ATOM     22  C   UNL     1       6.111   1.953  -0.887  0.00  0.00    -0.082 C 
ENDBRANCH  19  22
BRANCH  19  23
ATOM     23  C   UNL     1       6.370   3.289  -2.890  0.00  0.00    -0.082 C 
ATOM     24  C   UNL     1       7.899   3.246  -2.919  0.00  0.00    -0.017 C 
ENDBRANCH  19  23
ENDBRANCH  18  19
ENDBRANCH  17  18
ENDBRANCH   1  17
BRANCH  11  25
ATOM     25  C   UNL     1       3.474   6.654  -0.024  0.00  0.00    +0.119 C 
BRANCH  25  26
ATOM     26  C   UNL     1       2.840   8.046  -0.043  0.00  0.00    +0.181 C 
BRANCH  26  27
ATOM     27  S   UNL     1       4.140   9.300  -0.208  0.00  0.00    -0.003 S 
ATOM     28  O   UNL     1       4.938   9.335   0.968  0.00  0.00    -0.169 OA
ATOM     29  O   UNL     1       4.744   9.213  -1.491  0.00  0.00    -0.169 OA
BRANCH  27  30
ATOM     30  C   UNL     1       3.285  10.841  -0.217  0.00  0.00    +0.088 A 
ATOM     31  C   UNL     1       2.860  11.389  -1.413  0.00  0.00    +0.027 A 
ATOM     32  C   UNL     1       2.185  12.595  -1.420  0.00  0.00    +0.002 A 
ATOM     33  C   UNL     1       1.943  13.258  -0.231  0.00  0.00    +0.000 A 
ATOM     34  C   UNL     1       2.373  12.713   0.964  0.00  0.00    +0.002 A 
ATOM     35  C   UNL     1       3.043  11.504   0.972  0.00  0.00    +0.027 A 
ENDBRANCH  27  30
ENDBRANCH  26  27
ENDBRANCH  25  26
ENDBRANCH  11  25
TORSDOF 11
