REMARK  Name = ZINC02865886
REMARK  13 active torsions:
REMARK  status: ('A' for Active; 'I' for Inactive)
REMARK    1  A    between atoms: C_1  and  C_2
REMARK    2  A    between atoms: C_2  and  C_3
REMARK    3  A    between atoms: C_3  and  C_4
REMARK    4  A    between atoms: C_4  and  C_5
REMARK    5  A    between atoms: C_5  and  C_6
REMARK    6  A    between atoms: N_8  and  C_9
REMARK    7  A    between atoms: C_9  and  N_11
REMARK    8  A    between atoms: N_11  and  C_12
REMARK    9  A    between atoms: C_14  and  C_30
REMARK   10  A    between atoms: C_15  and  O_29
REMARK   11  A    between atoms: C_16  and  C_18
REMARK   12  A    between atoms: C_22  and  C_27
REMARK   13  A    between atoms: C_27  and  C_28
REMARK                            x       y       z     vdW  Elec       q    Type
REMARK                         _______ _______ _______ _____ _____    ______ ____
ROOT
ATOM      1  C   UNL     1       2.769  -8.091  -4.643  0.00  0.00    +0.034 A 
ATOM      2  C   UNL     1       2.184  -8.878  -3.657  0.00  0.00    +0.030 A 
ATOM      3  C   UNL     1       2.286 -10.254  -3.712  0.00  0.00    -0.007 A 
ATOM      4  C   UNL     1       2.974 -10.860  -4.752  0.00  0.00    +0.132 A 
ATOM      5  C   UNL     1       3.565 -10.074  -5.749  0.00  0.00    +0.080 A 
ATOM      6  C   UNL     1       3.454  -8.684  -5.691  0.00  0.00    +0.040 A 
ATOM      7  C   UNL     1       1.649 -11.099  -2.639  0.00  0.00    +0.047 C 
ENDROOT
BRANCH   5   8
ATOM      8  C   UNL     1       4.300 -10.713  -6.859  0.00  0.00    +0.232 A 
ATOM      9  N   UNL     1       4.892 -10.072  -7.835  0.00  0.00    -0.209 NA
ATOM     10  C   UNL     1       5.463 -10.978  -8.670  0.00  0.00    +0.110 A 
ATOM     11  C   UNL     1       6.206 -10.870  -9.848  0.00  0.00    +0.035 A 
ATOM     12  C   UNL     1       6.657 -12.009 -10.477  0.00  0.00    -0.045 A 
ATOM     13  C   UNL     1       6.378 -13.261  -9.950  0.00  0.00    +0.007 A 
ATOM     14  C   UNL     1       5.644 -13.383  -8.787  0.00  0.00    +0.049 A 
ATOM     15  C   UNL     1       5.183 -12.248  -8.139  0.00  0.00    +0.156 A 
ATOM     16  O   UNL     1       4.464 -12.041  -7.013  0.00  0.00    -0.435 OA
BRANCH  12  17
ATOM     17  C   UNL     1       7.459 -11.894 -11.748  0.00  0.00    +0.032 C 
ATOM     18  C   UNL     1       8.947 -11.800 -11.405  0.00  0.00    +0.009 C 
ENDBRANCH  12  17
ENDBRANCH   5   8
BRANCH   1  19
ATOM     19  N   UNL     1       2.660  -6.696  -4.580  0.00  0.00    -0.297 N 
ATOM     20  H   UNL     1       2.426  -6.191  -5.374  0.00  0.00    +0.154 HD
BRANCH  19  21
ATOM     21  C   UNL     1       2.880  -6.055  -3.415  0.00  0.00    +0.141 C 
ATOM     22  S   UNL     1       3.185  -6.952  -1.989  0.00  0.00    -0.018 S 
BRANCH  21  25
ATOM     23  C   UNL     1       3.079  -4.067  -2.207  0.00  0.00    +0.218 C 
ATOM     24  O   UNL     1       3.295  -4.703  -1.197  0.00  0.00    -0.275 OA
ATOM     25  N   UNL     1       2.859  -4.708  -3.372  0.00  0.00    -0.268 N 
ATOM     26  H   UNL     1       2.686  -4.200  -4.180  0.00  0.00    +0.156 HD
BRANCH  23  27
ATOM     27  C   UNL     1       3.056  -2.561  -2.159  0.00  0.00    +0.096 C 
BRANCH  27  28
ATOM     28  C   UNL     1       3.333  -2.092  -0.730  0.00  0.00    +0.009 C 
BRANCH  28  29
ATOM     29  C   UNL     1       3.309  -0.563  -0.681  0.00  0.00    +0.000 C 
BRANCH  29  31
ATOM     30  C   UNL     1       3.563   1.435   0.797  0.00  0.00    +0.004 C 
ATOM     31  C   UNL     1       3.586  -0.094   0.749  0.00  0.00    -0.003 C 
ENDBRANCH  29  31
ENDBRANCH  28  29
ENDBRANCH  27  28
ENDBRANCH  23  27
ENDBRANCH  21  25
ENDBRANCH  19  21
ENDBRANCH   1  19
BRANCH   4  32
ATOM     32  O   UNL     1       3.074 -12.214  -4.804  0.00  0.00    -0.506 OA
ATOM     33  H   UNL     1       2.357 -12.643  -5.290  0.00  0.00    +0.292 HD
ENDBRANCH   4  32
TORSDOF 10
