REMARK  Name = ZINC05542463
REMARK  10 active torsions:
REMARK  status: ('A' for Active; 'I' for Inactive)
REMARK    1  A    between atoms: C_1  and  C_2
REMARK    2  A    between atoms: C_2  and  C_3
REMARK    3  A    between atoms: C_3  and  C_4
REMARK    4  A    between atoms: C_4  and  N_5
REMARK    5  A    between atoms: N_5  and  C_6
REMARK    6  A    between atoms: C_18  and  N_22
REMARK    7  A    between atoms: N_22  and  C_23
REMARK    8  A    between atoms: C_23  and  C_24
REMARK    9  A    between atoms: C_24  and  C_25
REMARK   10  A    between atoms: C_25  and  C_26
REMARK                            x       y       z     vdW  Elec       q    Type
REMARK                         _______ _______ _______ _____ _____    ______ ____
ROOT
ATOM      1  C   UNL     1       1.257  -0.693  -0.123  0.00  0.00    +0.039 A 
ATOM      2  C   UNL     1       0.044  -0.003  -0.137  0.00  0.00    +0.025 A 
ATOM      3  C   UNL     1       0.025   1.375  -0.130  0.00  0.00    +0.018 A 
ATOM      4  C   UNL     1       1.210   2.098  -0.109  0.00  0.00    +0.029 A 
ATOM      5  C   UNL     1       2.430   1.433  -0.095  0.00  0.00    +0.049 A 
ATOM      6  C   UNL     1       2.459   0.024  -0.101  0.00  0.00    +0.055 A 
ATOM      7  C   UNL     1       3.753  -0.681  -0.083  0.00  0.00    +0.197 C 
ATOM      8  O   UNL     1       3.810  -1.869  -0.336  0.00  0.00    -0.287 OA
ATOM      9  C   UNL     1       4.981   0.074   0.245  0.00  0.00    +0.049 A 
ATOM     10  C   UNL     1       6.161  -0.594   0.550  0.00  0.00    +0.029 A 
ATOM     11  C   UNL     1       7.307   0.128   0.856  0.00  0.00    +0.018 A 
ATOM     12  C   UNL     1       7.289   1.506   0.862  0.00  0.00    +0.025 A 
ATOM     13  C   UNL     1       6.115   2.197   0.559  0.00  0.00    +0.039 A 
ATOM     14  C   UNL     1       4.953   1.483   0.249  0.00  0.00    +0.055 A 
ATOM     15  C   UNL     1       3.700   2.189  -0.072  0.00  0.00    +0.197 C 
ATOM     16  O   UNL     1       3.711   3.381  -0.316  0.00  0.00    -0.287 OA
ATOM     17 BR   UNL     1       6.207  -2.484   0.547  0.00  0.00    -0.050 Br
ATOM     18 BR   UNL     1       1.164   3.989  -0.100  0.00  0.00    -0.050 Br
ENDROOT
BRANCH   1  19
ATOM     19  N   UNL     1       1.271  -2.079  -0.131  0.00  0.00    -0.343 N 
ATOM     20  H   UNL     1       2.114  -2.555  -0.195  0.00  0.00    +0.146 HD
BRANCH  19  21
ATOM     21  C   UNL     1       0.013  -2.825  -0.042  0.00  0.00    +0.101 C 
BRANCH  21  22
ATOM     22  C   UNL     1       0.308  -4.326  -0.070  0.00  0.00    +0.018 C 
BRANCH  22  24
ATOM     23  C   UNL     1      -0.712  -6.606  -0.006  0.00  0.00    +0.004 C 
ATOM     24  C   UNL     1      -1.006  -5.105   0.022  0.00  0.00    -0.002 C 
ENDBRANCH  22  24
ENDBRANCH  21  22
ENDBRANCH  19  21
ENDBRANCH   1  19
BRANCH  13  25
ATOM     25  N   UNL     1       6.101   3.583   0.566  0.00  0.00    -0.343 N 
ATOM     26  H   UNL     1       5.265   4.061   0.445  0.00  0.00    +0.146 HD
BRANCH  25  27
ATOM     27  C   UNL     1       7.349   4.328   0.754  0.00  0.00    +0.101 C 
BRANCH  27  28
ATOM     28  C   UNL     1       7.057   5.829   0.720  0.00  0.00    +0.018 C 
BRANCH  28  29
ATOM     29  C   UNL     1       8.360   6.607   0.917  0.00  0.00    -0.002 C 
ATOM     30  C   UNL     1       8.068   8.108   0.883  0.00  0.00    +0.004 C 
ENDBRANCH  28  29
ENDBRANCH  27  28
ENDBRANCH  25  27
ENDBRANCH  13  25
TORSDOF 8
