REMARK  Name = ZINC05256167
REMARK  3 active torsions:
REMARK  status: ('A' for Active; 'I' for Inactive)
REMARK    1  A    between atoms: C_9  and  C_11
REMARK    2  A    between atoms: N_21  and  C_22
REMARK    3  A    between atoms: C_22  and  C_23
REMARK                            x       y       z     vdW  Elec       q    Type
REMARK                         _______ _______ _______ _____ _____    ______ ____
ROOT
ATOM      1  C   UNL     1       3.600   3.842   3.528  0.00  0.00    +0.019 A 
ATOM      2  C   UNL     1       3.087   3.199   2.381  0.00  0.00    +0.025 A 
ATOM      3  C   UNL     1       2.947   4.135   1.429  0.00  0.00    +0.044 A 
ATOM      4  N   UNL     1       3.347   5.339   1.941  0.00  0.00    -0.347 N 
ATOM      5  C   UNL     1       3.750   5.149   3.227  0.00  0.00    +0.086 A 
ATOM      6  C   UNL     1       3.325   6.607   1.203  0.00  0.00    +0.140 C 
ATOM      7  C   UNL     1       3.254   6.315  -0.300  0.00  0.00    +0.132 C 
ATOM      8  N   UNL     1       2.227   5.290  -0.549  0.00  0.00    -0.271 N 
ATOM      9  C   UNL     1       2.441   3.945   0.018  0.00  0.00    +0.156 C 
ATOM     10  C   UNL     1       1.125   5.571  -1.272  0.00  0.00    +0.303 C 
ATOM     11  O   UNL     1       0.253   4.734  -1.402  0.00  0.00    -0.253 OA
ATOM     12  N   UNL     1       0.989   6.781  -1.850  0.00  0.00    -0.298 N 
ATOM     13  H   UNL     1       1.716   7.422  -1.810  0.00  0.00    +0.150 HD
ENDROOT
BRANCH   9  14
ATOM     14  C   UNL     1       1.141   3.183   0.036  0.00  0.00    -0.003 A 
ATOM     15  C   UNL     1       0.083   3.639   0.799  0.00  0.00    +0.009 A 
ATOM     16  C   UNL     1      -1.110   2.940   0.817  0.00  0.00    +0.020 A 
ATOM     17  C   UNL     1      -1.246   1.786   0.066  0.00  0.00    +0.042 A 
ATOM     18  C   UNL     1      -0.186   1.326  -0.693  0.00  0.00    +0.040 A 
ATOM     19  C   UNL     1       1.007   2.026  -0.710  0.00  0.00    +0.048 A 
ATOM     20 CL   UNL     1       2.337   1.452  -1.668  0.00  0.00    -0.083 Cl
ATOM     21 CL   UNL     1      -2.746   0.912   0.083  0.00  0.00    -0.083 Cl
ENDBRANCH   9  14
BRANCH  12  22
ATOM     22  C   UNL     1      -0.256   7.127  -2.540  0.00  0.00    +0.121 C 
BRANCH  22  23
ATOM     23  C   UNL     1      -0.149   8.546  -3.104  0.00  0.00    +0.127 C 
ATOM     24 CL   UNL     1      -1.681   8.972  -3.953  0.00  0.00    -0.124 Cl
ENDBRANCH  22  23
ENDBRANCH  12  22
TORSDOF 3
