REMARK  Name = ZINC09625937
REMARK  7 active torsions:
REMARK  status: ('A' for Active; 'I' for Inactive)
REMARK    1  A    between atoms: C_1  and  C_2
REMARK    2  A    between atoms: C_5  and  C_8
REMARK    3  A    between atoms: C_8  and  C_9
REMARK    4  A    between atoms: C_10  and  C_31
REMARK    5  A    between atoms: N_20  and  C_23
REMARK    6  A    between atoms: C_28  and  O_29
REMARK    7  A    between atoms: O_29  and  C_30
REMARK                            x       y       z     vdW  Elec       q    Type
REMARK                         _______ _______ _______ _____ _____    ______ ____
ROOT
ATOM      1  C   UNL     1      -0.627   1.294  -1.443  0.00  0.00    +0.042 A 
ATOM      2  C   UNL     1      -0.610   2.633  -1.709  0.00  0.00    +0.050 A 
ATOM      3  N   UNL     1      -1.389   3.134  -2.665  0.00  0.00    -0.221 NA
ATOM      4  C   UNL     1      -2.198   2.364  -3.365  0.00  0.00    +0.199 A 
ATOM      5  N   UNL     1      -2.262   1.023  -3.140  0.00  0.00    -0.295 N 
ATOM      6  H   UNL     1      -2.862   0.470  -3.664  0.00  0.00    +0.172 HD
ATOM      7  C   UNL     1      -1.487   0.466  -2.186  0.00  0.00    +0.256 A 
ATOM      8  O   UNL     1      -1.532  -0.735  -1.971  0.00  0.00    -0.267 OA
ATOM      9  N   UNL     1      -2.987   2.922  -4.334  0.00  0.00    -0.298 N 
ATOM     10  C   UNL     1      -2.842   2.204  -5.608  0.00  0.00    +0.127 C 
ATOM     11  C   UNL     1      -3.797   2.808  -6.641  0.00  0.00    +0.124 C 
ATOM     12  N   UNL     1      -3.496   4.236  -6.808  0.00  0.00    -0.324 N 
ATOM     13  C   UNL     1      -3.640   4.954  -5.533  0.00  0.00    +0.124 C 
ATOM     14  C   UNL     1      -2.686   4.351  -4.500  0.00  0.00    +0.127 C 
ATOM     15  C   UNL     1       0.298   3.544  -0.923  0.00  0.00    +0.066 C 
ENDROOT
BRANCH  12  16
ATOM     16  C   UNL     1      -4.302   4.807  -7.799  0.00  0.00    +0.072 A 
ATOM     17  C   UNL     1      -5.368   4.092  -8.325  0.00  0.00    +0.027 A 
ATOM     18  C   UNL     1      -6.166   4.660  -9.301  0.00  0.00    +0.002 A 
ATOM     19  C   UNL     1      -5.899   5.935  -9.761  0.00  0.00    +0.004 A 
ATOM     20  C   UNL     1      -4.835   6.652  -9.245  0.00  0.00    +0.047 A 
ATOM     21  C   UNL     1      -4.034   6.092  -8.264  0.00  0.00    +0.141 A 
BRANCH  21  22
ATOM     22  O   UNL     1      -2.986   6.796  -7.756  0.00  0.00    -0.493 OA
ATOM     23  C   UNL     1      -2.770   8.107  -8.280  0.00  0.00    +0.277 C 
ENDBRANCH  21  22
ENDBRANCH  12  16
BRANCH   1  24
ATOM     24  C   UNL     1       0.256   0.715  -0.368  0.00  0.00    +0.077 C 
BRANCH  24  29
ATOM     25  C   UNL     1       5.203  -1.124  -2.721  0.00  0.00    +0.044 C 
ATOM     26  C   UNL     1       3.913  -0.644  -2.107  0.00  0.00    -0.050 A 
ATOM     27  C   UNL     1       3.840   0.619  -1.551  0.00  0.00    +0.003 A 
ATOM     28  C   UNL     1       2.656   1.059  -0.988  0.00  0.00    +0.004 A 
ATOM     29  C   UNL     1       1.546   0.236  -0.982  0.00  0.00    -0.043 A 
ATOM     30  C   UNL     1       1.620  -1.030  -1.534  0.00  0.00    +0.004 A 
ATOM     31  C   UNL     1       2.803  -1.468  -2.101  0.00  0.00    +0.003 A 
ENDBRANCH  24  29
ENDBRANCH   1  24
TORSDOF 4
