REMARK  Name = ZINC12385073
REMARK  5 active torsions:
REMARK  status: ('A' for Active; 'I' for Inactive)
REMARK    1  A    between atoms: C_1  and  C_2
REMARK    2  A    between atoms: C_7  and  C_17
REMARK    3  A    between atoms: C_24  and  C_26
REMARK    4  A    between atoms: C_26  and  O_28
REMARK    5  A    between atoms: O_28  and  C_29
REMARK                            x       y       z     vdW  Elec       q    Type
REMARK                         _______ _______ _______ _____ _____    ______ ____
ROOT
ATOM      1  C   UNL     1      -0.023   3.647  -3.485  0.00  0.00    +0.009 C 
ATOM      2  C   UNL     1      -1.220   2.736  -3.769  0.00  0.00    +0.013 C 
ATOM      3  C   UNL     1      -2.260   2.887  -2.661  0.00  0.00    +0.055 C 
ATOM      4  C   UNL     1      -1.655   2.501  -1.322  0.00  0.00    +0.017 C 
ATOM      5  C   UNL     1      -0.696   1.563  -1.252  0.00  0.00    +0.038 C 
ATOM      6  C   UNL     1      -0.013   1.086   0.008  0.00  0.00    +0.143 C 
ATOM      7  N   UNL     1      -0.644   1.530   1.232  0.00  0.00    -0.331 N 
ATOM      8  C   UNL     1      -0.688   2.882   1.565  0.00  0.00    +0.049 A 
ATOM      9  C   UNL     1       0.017   3.384   2.648  0.00  0.00    +0.025 A 
ATOM     10  C   UNL     1       0.007   4.746   2.895  0.00  0.00    +0.002 A 
ATOM     11  C   UNL     1      -0.699   5.603   2.070  0.00  0.00    +0.002 A 
ATOM     12  C   UNL     1      -1.424   5.102   1.002  0.00  0.00    +0.025 A 
ATOM     13  C   UNL     1      -1.431   3.739   0.767  0.00  0.00    +0.052 A 
ATOM     14  N   UNL     1      -2.177   3.162  -0.256  0.00  0.00    -0.316 N 
ATOM     15  C   UNL     1      -0.236   0.923  -2.428  0.00  0.00    +0.177 C 
ATOM     16  O   UNL     1       0.616   0.062  -2.332  0.00  0.00    -0.291 OA
ATOM     17  C   UNL     1      -0.765   1.272  -3.787  0.00  0.00    +0.171 C 
ATOM     18  H   UNL     1      -1.040   0.876   1.830  0.00  0.00    +0.147 HD
ATOM     19  H   UNL     1      -3.142   3.237  -0.204  0.00  0.00    +0.152 HD
ENDROOT
BRANCH   6  20
ATOM     20  C   UNL     1       1.410   1.582  -0.003  0.00  0.00    +0.014 A 
ATOM     21  C   UNL     1       2.538   0.930  -0.377  0.00  0.00    +0.013 A 
ATOM     22  C   UNL     1       3.750   1.591  -0.304  0.00  0.00    +0.008 A 
ATOM     23  C   UNL     1       3.774   2.872   0.141  0.00  0.00    +0.045 A 
ATOM     24  S   UNL     1       2.047   3.182   0.467  0.00  0.00    -0.099 S 
ENDBRANCH   6  20
BRANCH  17  25
ATOM     25  C   UNL     1      -1.935   0.382  -4.119  0.00  0.00    +0.318 C 
ATOM     26  O   UNL     1      -3.019   0.867  -4.341  0.00  0.00    -0.250 OA
BRANCH  25  27
ATOM     27  O   UNL     1      -1.772  -0.950  -4.169  0.00  0.00    -0.467 OA
ATOM     28  C   UNL     1      -2.942  -1.745  -4.496  0.00  0.00    +0.280 C 
ENDBRANCH  25  27
ENDBRANCH  17  25
TORSDOF 3
