REMARK  Name = ZINC38965977
REMARK  6 active torsions:
REMARK  status: ('A' for Active; 'I' for Inactive)
REMARK    1  A    between atoms: C_4  and  C_7
REMARK    2  A    between atoms: C_8  and  C_9
REMARK    3  A    between atoms: N_10  and  N_11
REMARK    4  A    between atoms: C_12  and  C_19
REMARK    5  A    between atoms: C_16  and  S_18
REMARK    6  A    between atoms: C_22  and  C_25
REMARK                            x       y       z     vdW  Elec       q    Type
REMARK                         _______ _______ _______ _____ _____    ______ ____
ROOT
ATOM      1  N   UNL     1       6.246  -4.699   0.330  0.00  0.00    -0.207 N 
ATOM      2  C   UNL     1       6.447  -6.155   0.432  0.00  0.00    +0.206 C 
ATOM      3  N   UNL     1       7.910  -6.375   0.501  0.00  0.00    -0.231 NA
ATOM      4  N   UNL     1       8.490  -5.177  -0.125  0.00  0.00    -0.225 NA
ATOM      5  C   UNL     1       7.591  -4.089   0.333  0.00  0.00    +0.231 C 
ATOM      6  H   UNL     1       8.217  -6.468   1.458  0.00  0.00    +0.143 HD
ATOM      7  H   UNL     1       9.436  -5.025   0.192  0.00  0.00    +0.143 HD
ENDROOT
BRANCH   2   8
ATOM      8  C   UNL     1       5.775  -6.690   1.698  0.00  0.00    +0.190 C 
ATOM      9  C   UNL     1       6.030  -8.179   1.852  0.00  0.00    +0.034 C 
ATOM     10  C   UNL     1       4.798  -8.722   1.810  0.00  0.00    +0.091 C 
ATOM     11  N   UNL     1       3.857  -7.754   1.652  0.00  0.00    -0.154 NA
ATOM     12  N   UNL     1       4.310  -6.606   1.584  0.00  0.00    -0.176 NA
BRANCH  10  13
ATOM     13  C   UNL     1       4.509 -10.174   1.920  0.00  0.00    +0.002 A 
ATOM     14  C   UNL     1       5.552 -11.084   2.085  0.00  0.00    +0.010 A 
ATOM     15  C   UNL     1       5.277 -12.432   2.187  0.00  0.00    +0.001 A 
ATOM     16  C   UNL     1       3.970 -12.881   2.125  0.00  0.00    +0.000 A 
ATOM     17  C   UNL     1       2.932 -11.982   1.962  0.00  0.00    +0.001 A 
ATOM     18  C   UNL     1       3.194 -10.631   1.864  0.00  0.00    +0.010 A 
ENDBRANCH  10  13
ENDBRANCH   2   8
BRANCH   1  20
ATOM     19  C   UNL     1       4.995  -2.728   0.149  0.00  0.00    +0.145 C 
ATOM     20  N   UNL     1       5.020  -4.026   0.240  0.00  0.00    -0.188 NA
BRANCH  19  22
ATOM     21  C   UNL     1       3.691  -0.680  -0.038  0.00  0.00    +0.024 C 
ATOM     22  C   UNL     1       3.717  -2.026   0.056  0.00  0.00    +0.038 C 
ATOM     23 BR   UNL     1       2.099  -3.004   0.068  0.00  0.00    -0.049 Br
BRANCH  21  27
ATOM     24  C   UNL     1      -0.003   1.393   0.181  0.00  0.00    +0.000 A 
ATOM     25  C   UNL     1       0.194   0.254   0.943  0.00  0.00    +0.001 A 
ATOM     26  C   UNL     1       1.392  -0.425   0.877  0.00  0.00    +0.008 A 
ATOM     27  C   UNL     1       2.409   0.039   0.037  0.00  0.00    -0.024 A 
ATOM     28  C   UNL     1       2.202   1.190  -0.730  0.00  0.00    +0.008 A 
ATOM     29  C   UNL     1       0.999   1.858  -0.653  0.00  0.00    +0.001 A 
ENDBRANCH  21  27
ENDBRANCH  19  22
ENDBRANCH   1  20
BRANCH   5  30
ATOM     30  S   UNL     1       8.044  -3.562   2.009  0.00  0.00    -0.138 S 
ATOM     31  H   UNL     1       9.272  -3.033   1.863  0.00  0.00    +0.105 HD
ENDBRANCH   5  30
TORSDOF 6
