REMARK  Name = ZINC35842445
REMARK  17 active torsions:
REMARK  status: ('A' for Active; 'I' for Inactive)
REMARK    1  A    between atoms: C_1  and  C_2
REMARK    2  A    between atoms: C_2  and  C_3
REMARK    3  A    between atoms: C_3  and  N_4
REMARK    4  A    between atoms: N_4  and  C_5
REMARK    5  A    between atoms: C_5  and  C_6
REMARK    6  A    between atoms: N_8  and  C_9
REMARK    7  A    between atoms: N_8  and  C_21
REMARK    8  A    between atoms: C_9  and  C_10
REMARK    9  A    between atoms: C_10  and  C_11
REMARK   10  A    between atoms: C_21  and  C_22
REMARK   11  A    between atoms: C_25  and  C_28
REMARK   12  A    between atoms: C_28  and  C_29
REMARK   13  A    between atoms: C_28  and  C_30
REMARK   14  A    between atoms: C_28  and  C_31
REMARK   15  A    between atoms: C_32  and  C_34
REMARK   16  A    between atoms: C_37  and  O_40
REMARK   17  A    between atoms: O_40  and  C_41
REMARK                            x       y       z     vdW  Elec       q    Type
REMARK                         _______ _______ _______ _____ _____    ______ ____
ROOT
ATOM      1  C   UNL     1      -1.088  -2.757  -2.428  0.00  0.00    +0.233 C 
ATOM      2  O   UNL     1      -0.269  -2.490  -3.282  0.00  0.00    -0.274 OA
ATOM      3  N   UNL     1      -2.264  -3.317  -2.775  0.00  0.00    -0.296 N 
ENDROOT
BRANCH   1   4
ATOM      4  C   UNL     1      -0.792  -2.462  -0.981  0.00  0.00    +0.203 C 
BRANCH   4   5
ATOM      5  N   UNL     1       0.539  -1.860  -0.868  0.00  0.00    -0.289 N 
ATOM      6  C   UNL     1       1.600  -2.626  -0.546  0.00  0.00    +0.247 C 
ATOM      7  O   UNL     1       2.690  -2.115  -0.378  0.00  0.00    -0.270 OA
BRANCH   6   8
ATOM      8  C   UNL     1       1.439  -4.086  -0.399  0.00  0.00    +0.037 A 
ATOM      9  C   UNL     1       0.766  -4.819  -1.380  0.00  0.00    +0.016 A 
ATOM     10  C   UNL     1       0.619  -6.181  -1.240  0.00  0.00    +0.046 A 
ATOM     11  C   UNL     1       1.137  -6.826  -0.123  0.00  0.00    +0.120 A 
ATOM     12  C   UNL     1       1.807  -6.101   0.855  0.00  0.00    +0.046 A 
ATOM     13  C   UNL     1       1.964  -4.739   0.719  0.00  0.00    +0.016 A 
BRANCH  11  14
ATOM     14  O   UNL     1       0.989  -8.168   0.012  0.00  0.00    -0.495 OA
ATOM     15  C   UNL     1       1.546  -8.768   1.183  0.00  0.00    +0.277 C 
ENDBRANCH  11  14
ENDBRANCH   6   8
BRANCH   5  16
ATOM     16  C   UNL     1       0.716  -0.425  -1.104  0.00  0.00    +0.108 C 
BRANCH  16  18
ATOM     17  C   UNL     1       0.608   1.843  -0.060  0.00  0.00    +0.005 C 
ATOM     18  C   UNL     1       0.423   0.344   0.186  0.00  0.00    +0.016 C 
ENDBRANCH  16  18
ENDBRANCH   5  16
ENDBRANCH   4   5
ENDBRANCH   1   4
BRANCH   3  19
ATOM     19  C   UNL     1      -3.254  -3.639  -1.744  0.00  0.00    +0.113 C 
BRANCH  19  20
ATOM     20  C   UNL     1      -4.180  -2.439  -1.533  0.00  0.00    +0.056 C 
BRANCH  20  21
ATOM     21  C   UNL     1      -5.198  -2.771  -0.473  0.00  0.00    -0.021 A 
ATOM     22  C   UNL     1      -6.437  -3.246  -0.676  0.00  0.00    +0.087 A 
ATOM     23  N   UNL     1      -7.071  -3.426   0.523  0.00  0.00    -0.360 N 
ATOM     24  H   UNL     1      -7.975  -3.760   0.631  0.00  0.00    +0.165 HD
ATOM     25  C   UNL     1      -6.233  -3.062   1.554  0.00  0.00    +0.047 A 
ATOM     26  C   UNL     1      -5.021  -2.642   0.975  0.00  0.00    +0.003 A 
ATOM     27  C   UNL     1      -3.971  -2.216   1.791  0.00  0.00    +0.010 A 
ATOM     28  C   UNL     1      -4.125  -2.213   3.148  0.00  0.00    +0.001 A 
ATOM     29  C   UNL     1      -5.317  -2.631   3.724  0.00  0.00    +0.002 A 
ATOM     30  C   UNL     1      -6.369  -3.046   2.938  0.00  0.00    +0.026 A 
ENDBRANCH  20  21
ENDBRANCH  19  20
ENDBRANCH   3  19
BRANCH   3  31
ATOM     31  C   UNL     1      -2.552  -3.604  -4.182  0.00  0.00    +0.143 C 
BRANCH  31  32
ATOM     32  C   UNL     1      -2.079  -4.994  -4.519  0.00  0.00    -0.030 A 
ATOM     33  C   UNL     1      -0.790  -5.194  -4.977  0.00  0.00    +0.005 A 
ATOM     34  C   UNL     1      -0.355  -6.469  -5.285  0.00  0.00    +0.004 A 
ATOM     35  C   UNL     1      -1.210  -7.545  -5.136  0.00  0.00    -0.042 A 
ATOM     36  C   UNL     1      -2.499  -7.346  -4.678  0.00  0.00    +0.004 A 
ATOM     37  C   UNL     1      -2.932  -6.071  -4.365  0.00  0.00    +0.005 A 
BRANCH  35  38
ATOM     38  C   UNL     1      -0.737  -8.936  -5.474  0.00  0.00    -0.013 C 
ATOM     39  C   UNL     1       0.465  -9.293  -4.596  0.00  0.00    +0.015 C 
ATOM     40  C   UNL     1      -1.868  -9.935  -5.222  0.00  0.00    +0.015 C 
ATOM     41  C   UNL     1      -0.326  -8.991  -6.947  0.00  0.00    +0.015 C 
ENDBRANCH  35  38
ENDBRANCH  31  32
ENDBRANCH   3  31
TORSDOF 12
