REMARK  Name = ZINC44021893
REMARK  10 active torsions:
REMARK  status: ('A' for Active; 'I' for Inactive)
REMARK    1  A    between atoms: C_1  and  C_2
REMARK    2  A    between atoms: C_13  and  C_32
REMARK    3  A    between atoms: C_14  and  O_27
REMARK    4  A    between atoms: C_17  and  C_24
REMARK    5  A    between atoms: C_17  and  C_25
REMARK    6  A    between atoms: C_18  and  O_23
REMARK    7  A    between atoms: C_20  and  C_22
REMARK    8  A    between atoms: O_27  and  C_28
REMARK    9  A    between atoms: C_28  and  C_30
REMARK   10  A    between atoms: C_30  and  O_31
REMARK                            x       y       z     vdW  Elec       q    Type
REMARK                         _______ _______ _______ _____ _____    ______ ____
ROOT
ATOM      1  C   UNL     1      -0.019   1.518   0.010  0.00  0.00    +0.008 C 
ATOM      2  C   UNL     1       0.002  -0.004   0.002  0.00  0.00    -0.004 C 
ATOM      3  C   UNL     1      -1.426  -0.547  -0.051  0.00  0.00    +0.004 C 
ATOM      4  C   UNL     1      -1.414  -2.078  -0.078  0.00  0.00    +0.008 C 
ATOM      5  C   UNL     1      -0.659  -2.545   1.180  0.00  0.00    -0.014 C 
ATOM      6  C   UNL     1      -0.468  -4.044   1.257  0.00  0.00    +0.015 C 
ATOM      7  C   UNL     1       0.791  -4.245   2.090  0.00  0.00    +0.075 C 
ATOM      8  C   UNL     1       1.602  -2.967   1.957  0.00  0.00    +0.138 C 
ATOM      9  O   UNL     1       2.668  -2.747   2.477  0.00  0.00    -0.297 OA
ATOM     10  C   UNL     1       0.802  -2.061   1.051  0.00  0.00    +0.071 C 
ATOM     11  C   UNL     1       0.796  -0.556   1.195  0.00  0.00    +0.018 C 
ATOM     12  C   UNL     1       0.477   0.169   2.476  0.00  0.00    +0.184 C 
ATOM     13  C   UNL     1       0.647  -0.553   3.812  0.00  0.00    +0.058 C 
ATOM     14  C   UNL     1      -0.440  -1.363   4.542  0.00  0.00    +0.015 C 
ATOM     15  C   UNL     1      -0.700  -2.568   3.696  0.00  0.00    +0.128 C 
ATOM     16  C   UNL     1      -1.311  -2.007   2.446  0.00  0.00    +0.022 C 
ATOM     17  C   UNL     1      -2.808  -2.412   2.424  0.00  0.00    +0.011 C 
ATOM     18  C   UNL     1      -1.681  -0.533   4.829  0.00  0.00    +0.018 C 
ATOM     19  C   UNL     1       2.249  -0.142   0.867  0.00  0.00    +0.016 C 
ENDROOT
BRANCH  15  20
ATOM     20  O   UNL     1      -1.593  -3.472   4.364  0.00  0.00    -0.391 OA
ATOM     21  H   UNL     1      -1.260  -3.798   5.212  0.00  0.00    +0.210 HD
ENDBRANCH  15  20
BRANCH  14  22
ATOM     22  C   UNL     1       0.134  -1.839   5.869  0.00  0.00    -0.025 C 
ATOM     23  C   UNL     1       1.365  -1.533   6.198  0.00  0.00    +0.004 C 
ENDBRANCH  14  22
BRANCH  12  24
ATOM     24  O   UNL     1       1.349   1.317   2.548  0.00  0.00    -0.459 OA
BRANCH  24  25
ATOM     25  C   UNL     1       0.884   2.396   3.197  0.00  0.00    +0.333 C 
ATOM     26  O   UNL     1      -0.219   2.376   3.689  0.00  0.00    -0.248 OA
BRANCH  25  27
ATOM     27  C   UNL     1       1.739   3.632   3.313  0.00  0.00    +0.276 C 
BRANCH  27  28
ATOM     28  O   UNL     1       1.029   4.635   4.043  0.00  0.00    -0.384 OA
ATOM     29  H   UNL     1       1.520   5.460   4.156  0.00  0.00    +0.210 HD
ENDBRANCH  27  28
ENDBRANCH  25  27
ENDBRANCH  24  25
ENDBRANCH  12  24
TORSDOF 6
