REMARK  Name = ZINC08312188
REMARK  6 active torsions:
REMARK  status: ('A' for Active; 'I' for Inactive)
REMARK    1  A    between atoms: C_5  and  C_7
REMARK    2  A    between atoms: C_7  and  C_8
REMARK    3  A    between atoms: C_11  and  S_14
REMARK    4  A    between atoms: N_12  and  N_13
REMARK    5  A    between atoms: S_14  and  C_15
REMARK    6  A    between atoms: C_15  and  C_16
REMARK                            x       y       z     vdW  Elec       q    Type
REMARK                         _______ _______ _______ _____ _____    ______ ____
ROOT
ATOM      1  C   UNL     1       5.369  -4.205   7.702  0.00  0.00    +0.155 A 
ATOM      2  N   UNL     1       5.936  -4.389   6.544  0.00  0.00    -0.132 NA
ATOM      3  N   UNL     1       5.232  -3.845   5.616  0.00  0.00    -0.121 NA
ATOM      4  C   UNL     1       4.168  -3.280   6.137  0.00  0.00    +0.209 A 
ATOM      5  N   UNL     1       4.225  -3.486   7.485  0.00  0.00    -0.228 N 
ENDROOT
BRANCH   5   6
ATOM      6  N   UNL     1       3.325  -3.066   8.423  0.00  0.00    -0.295 N 
ATOM      7  H   UNL     1       2.605  -3.758   8.569  0.00  0.00    +0.163 HD
ATOM      8  H   UNL     1       3.787  -2.836   9.290  0.00  0.00    +0.163 HD
ENDBRANCH   5   6
BRANCH   1   9
ATOM      9  C   UNL     1       5.881  -4.687   9.035  0.00  0.00    +0.116 C 
BRANCH   9  14
ATOM     10  C   UNL     1       7.102  -1.827  11.174  0.00  0.00    +0.000 A 
ATOM     11  C   UNL     1       8.414  -1.706  10.754  0.00  0.00    +0.003 A 
ATOM     12  C   UNL     1       8.908  -2.550   9.778  0.00  0.00    +0.038 A 
ATOM     13  C   UNL     1       8.089  -3.520   9.223  0.00  0.00    +0.127 A 
ATOM     14  C   UNL     1       6.774  -3.636   9.641  0.00  0.00    -0.005 A 
ATOM     15  C   UNL     1       6.283  -2.791  10.618  0.00  0.00    +0.007 A 
ATOM     16  F   UNL     1       8.572  -4.349   8.271  0.00  0.00    -0.205 F 
ENDBRANCH   9  14
ENDBRANCH   1   9
BRANCH   4  17
ATOM     17  S   UNL     1       2.909  -2.412   5.262  0.00  0.00    -0.080 S 
BRANCH  17  18
ATOM     18  C   UNL     1       3.539  -2.564   3.572  0.00  0.00    +0.112 C 
BRANCH  18  19
ATOM     19  C   UNL     1       2.595  -1.874   2.621  0.00  0.00    -0.032 A 
ATOM     20  C   UNL     1       2.773  -0.536   2.321  0.00  0.00    +0.054 A 
ATOM     21  C   UNL     1       1.907   0.101   1.445  0.00  0.00    +0.164 A 
ATOM     22  C   UNL     1       0.861  -0.609   0.868  0.00  0.00    +0.180 A 
ATOM     23  C   UNL     1       0.686  -1.951   1.174  0.00  0.00    +0.086 A 
ATOM     24  C   UNL     1       1.553  -2.580   2.049  0.00  0.00    +0.028 A 
ATOM     25 CL   UNL     1      -0.621  -2.842   0.458  0.00  0.00    -0.080 Cl
ATOM     26  O   UNL     1       0.002  -0.004   0.002  0.00  0.00    -0.483 OA
ATOM     27  C   UNL     1      -0.017   1.427   0.010  0.00  0.00    +0.270 C 
ATOM     28  C   UNL     1       1.433   1.928  -0.001  0.00  0.00    +0.270 C 
ATOM     29  O   UNL     1       2.092   1.420   1.164  0.00  0.00    -0.485 OA
ENDBRANCH  18  19
ENDBRANCH  17  18
ENDBRANCH   4  17
TORSDOF 6
