REMARK  Name = ZINC64730180
REMARK  10 active torsions:
REMARK  status: ('A' for Active; 'I' for Inactive)
REMARK    1  A    between atoms: C_1  and  C_2
REMARK    2  A    between atoms: C_2  and  C_4
REMARK    3  A    between atoms: C_2  and  N_10
REMARK    4  A    between atoms: C_11  and  C_13
REMARK    5  A    between atoms: C_13  and  C_15
REMARK    6  A    between atoms: C_13  and  N_16
REMARK    7  A    between atoms: N_16  and  C_17
REMARK    8  A    between atoms: C_17  and  C_18
REMARK    9  A    between atoms: C_18  and  C_20
REMARK   10  A    between atoms: C_18  and  C_26
REMARK                            x       y       z     vdW  Elec       q    Type
REMARK                         _______ _______ _______ _____ _____    ______ ____
ROOT
ATOM      1  N   UNL     1      -4.045  -0.996  -2.484  0.00  0.00    +0.387 N 
ATOM      2  H   UNL     1      -3.843  -0.247  -3.129  0.00  0.00    -0.085 HD
ATOM      3  H   UNL     1      -3.551  -1.828  -2.769  0.00  0.00    -0.085 HD
ENDROOT
BRANCH   1   4
ATOM      4  C   UNL     1      -3.614  -0.609  -1.134  0.00  0.00    +0.013 C 
ATOM      5  C   UNL     1      -3.805  -1.789  -0.180  0.00  0.00    -0.004 C 
BRANCH   4   7
ATOM      6  N   UNL     1      -1.542   0.176  -0.033  0.00  0.00    -0.310 N 
ATOM      7  C   UNL     1      -2.159  -0.218  -1.165  0.00  0.00    +0.199 C 
ATOM      8  O   UNL     1      -1.542  -0.259  -2.208  0.00  0.00    -0.278 OA
ATOM      9  H   UNL     1      -2.036   0.208   0.802  0.00  0.00    +0.149 HD
BRANCH   6  11
ATOM     10  C   UNL     1      -0.003   2.025  -0.468  0.00  0.00    +0.033 C 
ATOM     11  C   UNL     1      -0.128   0.555  -0.062  0.00  0.00    +0.100 C 
BRANCH  11  12
ATOM     12  C   UNL     1       0.474   0.358   1.305  0.00  0.00    -0.027 A 
ATOM     13  C   UNL     1      -0.252   0.690   2.434  0.00  0.00    +0.005 A 
ATOM     14  C   UNL     1       0.300   0.510   3.688  0.00  0.00    +0.000 A 
ATOM     15  C   UNL     1       1.578  -0.003   3.814  0.00  0.00    +0.000 A 
ATOM     16  C   UNL     1       2.303  -0.336   2.685  0.00  0.00    +0.000 A 
ATOM     17  C   UNL     1       1.750  -0.159   1.431  0.00  0.00    +0.005 A 
ENDBRANCH  11  12
ENDBRANCH   6  11
ENDBRANCH   4   7
ENDBRANCH   1   4
BRANCH   1  18
ATOM     18  C   UNL     1      -5.490  -1.261  -2.479  0.00  0.00    -0.073 C 
BRANCH  18  19
ATOM     19  C   UNL     1      -5.963  -1.537  -3.908  0.00  0.00    +0.014 C 
BRANCH  19  20
ATOM     20  C   UNL     1      -5.800  -0.292  -4.740  0.00  0.00    -0.039 C 
ATOM     21  C   UNL     1      -5.049  -0.152  -5.856  0.00  0.00    -0.001 A 
ATOM     22  C   UNL     1      -4.191  -1.083  -6.600  0.00  0.00    +0.010 A 
ATOM     23  C   UNL     1      -3.551  -0.642  -7.707  0.00  0.00    +0.001 A 
ATOM     24  C   UNL     1      -3.686   0.677  -8.160  0.00  0.00    +0.002 A 
ATOM     25  C   UNL     1      -4.456   1.590  -7.530  0.00  0.00    +0.026 A 
ATOM     26  C   UNL     1      -5.175   1.235  -6.356  0.00  0.00    +0.043 A 
ATOM     27  N   UNL     1      -5.973   1.927  -5.579  0.00  0.00    -0.380 N 
ATOM     28  C   UNL     1      -6.448   1.053  -4.500  0.00  0.00    +0.145 C 
ATOM     29  H   UNL     1      -6.211   2.860  -5.699  0.00  0.00    +0.160 HD
ENDBRANCH  19  20
BRANCH  19  30
ATOM     30  C   UNL     1      -7.437  -1.948  -3.886  0.00  0.00    +0.060 C 
ATOM     31  C   UNL     1      -7.631  -3.340  -3.230  0.00  0.00    +0.042 C 
ATOM     32  C   UNL     1      -8.678  -4.125  -3.952  0.00  0.00    -0.019 C 
ATOM     33  C   UNL     1      -9.031  -3.779  -5.175  0.00  0.00    +0.036 C 
ATOM     34  S   UNL     1      -8.053  -2.341  -5.578  0.00  0.00    -0.129 S 
ENDBRANCH  19  30
ENDBRANCH  18  19
ENDBRANCH   1  18
TORSDOF 8
