REMARK  Name = ZINC08820468
REMARK  8 active torsions:
REMARK  status: ('A' for Active; 'I' for Inactive)
REMARK    1  A    between atoms: C_4  and  C_7
REMARK    2  A    between atoms: C_8  and  C_9
REMARK    3  A    between atoms: N_13  and  C_17
REMARK    4  A    between atoms: C_17  and  C_18
REMARK    5  A    between atoms: C_18  and  C_19
REMARK    6  A    between atoms: N_21  and  N_22
REMARK    7  A    between atoms: C_23  and  C_25
REMARK    8  A    between atoms: C_28  and  N_31
REMARK                            x       y       z     vdW  Elec       q    Type
REMARK                         _______ _______ _______ _____ _____    ______ ____
ROOT
ATOM      1  C   UNL     1       1.280   1.980   0.001  0.00  0.00    +0.116 C 
ENDROOT
BRANCH   1   2
ATOM      2  C   UNL     1      -0.014   1.209   0.009  0.00  0.00    +0.231 C 
ATOM      3  O   UNL     1       0.002  -0.004   0.002  0.00  0.00    -0.274 OA
ATOM      4  N   UNL     1      -1.191   1.867   0.018  0.00  0.00    -0.234 N 
ATOM      5  H   UNL     1      -1.204   2.837   0.023  0.00  0.00    +0.173 HD
BRANCH   4   6
ATOM      6  N   UNL     1      -2.394   1.150   0.020  0.00  0.00    -0.230 N 
ATOM      7  C   UNL     1      -3.571   1.808   0.029  0.00  0.00    +0.260 C 
ATOM      8  O   UNL     1      -3.587   3.023   0.035  0.00  0.00    -0.269 OA
ATOM      9  H   UNL     1      -2.381   0.180   0.014  0.00  0.00    +0.173 HD
BRANCH   7  10
ATOM     10  C   UNL     1      -4.841   1.051   0.031  0.00  0.00    +0.038 A 
ATOM     11  C   UNL     1      -4.825  -0.345   0.017  0.00  0.00    +0.015 A 
ATOM     12  C   UNL     1      -6.014  -1.044   0.024  0.00  0.00    +0.033 A 
ATOM     13  C   UNL     1      -7.220  -0.366   0.033  0.00  0.00    +0.126 A 
ATOM     14  C   UNL     1      -7.242   1.017   0.041  0.00  0.00    +0.033 A 
ATOM     15  C   UNL     1      -6.061   1.729   0.040  0.00  0.00    +0.015 A 
BRANCH  13  16
ATOM     16  N   UNL     1      -8.492  -1.123   0.034  0.00  0.00    +0.056 N 
ATOM     17  O   UNL     1      -9.555  -0.529   0.043  0.00  0.00    -0.126 OA
ATOM     18  O   UNL     1      -8.475  -2.341   0.027  0.00  0.00    -0.126 OA
ENDBRANCH  13  16
ENDBRANCH   7  10
ENDBRANCH   4   6
ENDBRANCH   1   2
BRANCH   1  19
ATOM     19  C   UNL     1       2.457   1.002  -0.016  0.00  0.00    +0.124 C 
BRANCH  19  24
ATOM     20  C   UNL     1       6.343   3.294   2.057  0.00  0.00    +0.020 C 
ATOM     21  C   UNL     1       5.547   2.830   1.051  0.00  0.00    +0.077 C 
ATOM     22  C   UNL     1       4.282   2.076   1.126  0.00  0.00    +0.258 C 
ATOM     23  O   UNL     1       3.784   1.767   2.193  0.00  0.00    -0.269 OA
ATOM     24  N   UNL     1       3.715   1.751  -0.024  0.00  0.00    -0.255 N 
ATOM     25  C   UNL     1       4.273   2.090  -1.204  0.00  0.00    +0.121 C 
ATOM     26  S   UNL     1       3.703   1.759  -2.784  0.00  0.00    -0.027 S 
ATOM     27  S   UNL     1       5.749   2.970  -0.719  0.00  0.00    -0.061 S 
BRANCH  20  29
ATOM     28  C   UNL     1       8.314   4.460   2.751  0.00  0.00    +0.008 C 
ATOM     29  C   UNL     1       7.524   4.000   1.752  0.00  0.00    +0.002 C 
BRANCH  28  33
ATOM     30  C   UNL     1      11.867   6.585   1.833  0.00  0.00    +0.000 A 
ATOM     31  C   UNL     1      11.519   6.364   3.154  0.00  0.00    +0.001 A 
ATOM     32  C   UNL     1      10.366   5.675   3.461  0.00  0.00    +0.008 A 
ATOM     33  C   UNL     1       9.546   5.197   2.432  0.00  0.00    -0.025 A 
ATOM     34  C   UNL     1       9.908   5.420   1.099  0.00  0.00    +0.008 A 
ATOM     35  C   UNL     1      11.062   6.117   0.809  0.00  0.00    +0.001 A 
ENDBRANCH  28  33
ENDBRANCH  20  29
ENDBRANCH  19  24
ENDBRANCH   1  19
TORSDOF 8
