REMARK  Name = ZINC06181566
REMARK  8 active torsions:
REMARK  status: ('A' for Active; 'I' for Inactive)
REMARK    1  A    between atoms: C_1  and  O_2
REMARK    2  A    between atoms: O_2  and  C_3
REMARK    3  A    between atoms: C_6  and  N_9
REMARK    4  A    between atoms: N_9  and  S_10
REMARK    5  A    between atoms: S_10  and  C_13
REMARK    6  A    between atoms: C_20  and  C_23
REMARK    7  A    between atoms: C_23  and  O_24
REMARK    8  A    between atoms: O_24  and  C_25
REMARK                            x       y       z     vdW  Elec       q    Type
REMARK                         _______ _______ _______ _____ _____    ______ ____
ROOT
ATOM      1  C   UNL     1      -3.954  -5.142  -0.337  0.00  0.00    +0.111 A 
ATOM      2  C   UNL     1      -2.617  -5.134  -0.712  0.00  0.00    +0.031 A 
ATOM      3  C   UNL     1      -1.754  -6.099  -0.238  0.00  0.00    +0.030 A 
ATOM      4  C   UNL     1      -2.226  -7.083   0.620  0.00  0.00    +0.066 A 
ATOM      5  C   UNL     1      -3.578  -7.089   0.999  0.00  0.00    +0.091 A 
ATOM      6  C   UNL     1      -4.434  -6.099   0.510  0.00  0.00    +0.058 A 
ATOM      7  N   UNL     1      -3.751  -8.149   1.831  0.00  0.00    -0.229 NA
ATOM      8  C   UNL     1      -2.620  -8.776   1.981  0.00  0.00    +0.146 A 
ATOM      9  N   UNL     1      -1.646  -8.162   1.257  0.00  0.00    -0.339 N 
ATOM     10  H   UNL     1      -0.716  -8.432   1.199  0.00  0.00    +0.167 HD
ENDROOT
BRANCH   1  11
ATOM     11  S   UNL     1      -5.039  -3.899  -0.955  0.00  0.00    +0.072 S 
ATOM     12  O   UNL     1      -6.361  -4.389  -0.776  0.00  0.00    -0.150 OA
ATOM     13  O   UNL     1      -4.535  -3.515  -2.227  0.00  0.00    -0.150 OA
BRANCH  11  14
ATOM     14  N   UNL     1      -4.886  -2.579   0.033  0.00  0.00    -0.216 N 
ATOM     15  H   UNL     1      -4.567  -1.737  -0.328  0.00  0.00    +0.174 HD
BRANCH  14  19
ATOM     16  C   UNL     1      -5.871  -2.874   4.072  0.00  0.00    +0.120 A 
ATOM     17  C   UNL     1      -4.689  -2.257   3.691  0.00  0.00    +0.047 A 
ATOM     18  C   UNL     1      -4.362  -2.159   2.352  0.00  0.00    +0.028 A 
ATOM     19  C   UNL     1      -5.216  -2.679   1.389  0.00  0.00    +0.048 A 
ATOM     20  C   UNL     1      -6.399  -3.296   1.772  0.00  0.00    +0.028 A 
ATOM     21  C   UNL     1      -6.722  -3.398   3.111  0.00  0.00    +0.047 A 
BRANCH  16  23
ATOM     22  C   UNL     1      -5.269  -2.409   6.326  0.00  0.00    +0.277 C 
ATOM     23  O   UNL     1      -6.192  -2.970   5.391  0.00  0.00    -0.495 OA
ENDBRANCH  16  23
ENDBRANCH  14  19
ENDBRANCH  11  14
ENDBRANCH   1  11
BRANCH   8  24
ATOM     24  C   UNL     1      -2.420 -10.002   2.833  0.00  0.00    +0.303 C 
BRANCH  24  25
ATOM     25  O   UNL     1      -1.054 -10.415   2.760  0.00  0.00    -0.484 OA
BRANCH  25  26
ATOM     26  C   UNL     1      -0.702 -11.515   3.476  0.00  0.00    +0.122 A 
ATOM     27  C   UNL     1      -1.670 -12.184   4.232  0.00  0.00    +0.046 A 
ATOM     28  C   UNL     1      -1.349 -13.288   4.959  0.00  0.00    +0.012 A 
ATOM     29  C   UNL     1      -0.027 -13.766   4.954  0.00  0.00    -0.018 A 
ATOM     30  C   UNL     1       0.339 -14.903   5.693  0.00  0.00    +0.008 A 
ATOM     31  C   UNL     1       1.628 -15.339   5.665  0.00  0.00    +0.001 A 
ATOM     32  C   UNL     1       2.594 -14.674   4.913  0.00  0.00    +0.001 A 
ATOM     33  C   UNL     1       2.277 -13.569   4.184  0.00  0.00    +0.008 A 
ATOM     34  C   UNL     1       0.956 -13.089   4.189  0.00  0.00    -0.014 A 
ATOM     35  C   UNL     1       0.590 -11.955   3.445  0.00  0.00    +0.054 A 
ENDBRANCH  25  26
ENDBRANCH  24  25
ENDBRANCH   8  24
TORSDOF 7
