REMARK  Name = ZINC20926842
REMARK  11 active torsions:
REMARK  status: ('A' for Active; 'I' for Inactive)
REMARK    1  A    between atoms: C_1  and  C_2
REMARK    2  A    between atoms: C_2  and  C_3
REMARK    3  A    between atoms: C_3  and  O_4
REMARK    4  A    between atoms: O_4  and  C_5
REMARK    5  A    between atoms: C_8  and  C_12
REMARK    6  A    between atoms: C_12  and  N_13
REMARK    7  A    between atoms: N_13  and  C_14
REMARK    8  A    between atoms: C_14  and  C_15
REMARK    9  A    between atoms: C_15  and  N_16
REMARK   10  A    between atoms: N_16  and  C_17
REMARK   11  A    between atoms: C_20  and  N_23
REMARK                            x       y       z     vdW  Elec       q    Type
REMARK                         _______ _______ _______ _____ _____    ______ ____
ROOT
ATOM      1  N   UNL     1       3.547  -5.011  -0.058  0.00  0.00    +0.383 N 
ATOM      2  H   UNL     1       4.120  -4.726   0.836  0.00  0.00    -0.085 HD
ATOM      3  H   UNL     1       4.103  -4.716  -0.960  0.00  0.00    -0.085 HD
ENDROOT
BRANCH   1   4
ATOM      4  C   UNL     1       3.341  -6.466  -0.063  0.00  0.00    -0.047 C 
BRANCH   4   8
ATOM      5  C   UNL     1       7.130  -8.443  -0.110  0.00  0.00    +0.148 A 
ATOM      6  C   UNL     1       6.526  -8.127   1.099  0.00  0.00    +0.061 A 
ATOM      7  C   UNL     1       5.300  -7.488   1.111  0.00  0.00    +0.020 A 
ATOM      8  C   UNL     1       4.677  -7.162  -0.080  0.00  0.00    -0.062 A 
ATOM      9  C   UNL     1       5.274  -7.481  -1.285  0.00  0.00    +0.020 A 
ATOM     10  C   UNL     1       6.502  -8.116  -1.304  0.00  0.00    +0.061 A 
ATOM     11 BR   UNL     1       7.322  -8.543  -2.953  0.00  0.00    -0.046 Br
ATOM     12 BR   UNL     1       7.378  -8.571   2.727  0.00  0.00    -0.046 Br
BRANCH   5  13
ATOM     13  O   UNL     1       8.335  -9.072  -0.125  0.00  0.00    -0.490 OA
BRANCH  13  14
ATOM     14  C   UNL     1       8.322 -10.501  -0.132  0.00  0.00    +0.229 C 
BRANCH  14  16
ATOM     15  C   UNL     1       9.745 -12.554  -0.155  0.00  0.00    +0.007 C 
ATOM     16  C   UNL     1       9.759 -11.024  -0.148  0.00  0.00    +0.038 C 
ENDBRANCH  14  16
ENDBRANCH  13  14
ENDBRANCH   5  13
ENDBRANCH   4   8
ENDBRANCH   1   4
BRANCH   1  17
ATOM     17  C   UNL     1       2.263  -4.298  -0.042  0.00  0.00    -0.063 C 
BRANCH  17  18
ATOM     18  C   UNL     1       2.518  -2.789  -0.037  0.00  0.00    +0.082 C 
BRANCH  18  19
ATOM     19  N   UNL     1       1.238  -2.077  -0.021  0.00  0.00    -0.346 N 
ATOM     20  H   UNL     1       0.294  -2.643  -0.014  0.00  0.00    +0.146 HD
BRANCH  19  21
ATOM     21  C   UNL     1       1.215  -0.681  -0.013  0.00  0.00    +0.027 A 
ATOM     22  C   UNL     1       0.002  -0.004   0.002  0.00  0.00    +0.025 A 
ATOM     23  C   UNL     1      -0.017   1.377   0.010  0.00  0.00    +0.034 A 
ATOM     24  C   UNL     1       1.171   2.086   0.002  0.00  0.00    +0.126 A 
ATOM     25  C   UNL     1       2.380   1.416  -0.013  0.00  0.00    +0.034 A 
ATOM     26  C   UNL     1       2.406   0.035  -0.021  0.00  0.00    +0.025 A 
BRANCH  24  27
ATOM     27  N   UNL     1       1.147   3.566   0.010  0.00  0.00    +0.056 N 
ATOM     28  O   UNL     1       0.082   4.158   0.023  0.00  0.00    -0.126 OA
ATOM     29  O   UNL     1       2.191   4.192   0.003  0.00  0.00    -0.126 OA
ENDBRANCH  24  27
ENDBRANCH  19  21
ENDBRANCH  18  19
ENDBRANCH  17  18
ENDBRANCH   1  17
TORSDOF 10
