REMARK  Name = ZINC02321085
REMARK  5 active torsions:
REMARK  status: ('A' for Active; 'I' for Inactive)
REMARK    1  A    between atoms: C_1  and  O_2
REMARK    2  A    between atoms: O_2  and  C_3
REMARK    3  A    between atoms: C_6  and  C_9
REMARK    4  A    between atoms: N_15  and  N_16
REMARK    5  A    between atoms: C_17  and  C_18
REMARK                            x       y       z     vdW  Elec       q    Type
REMARK                         _______ _______ _______ _____ _____    ______ ____
ROOT
ATOM      1  C   UNL     1      -2.502   1.004   0.019  0.00  0.00    +0.184 A 
ATOM      2  N   UNL     1      -2.635  -0.266   0.286  0.00  0.00    -0.152 NA
ATOM      3  N   UNL     1      -3.994  -0.592   0.180  0.00  0.00    -0.253 N 
ATOM      4  H   UNL     1      -4.329  -1.622   0.368  0.00  0.00    +0.191 HD
ATOM      5  C   UNL     1      -4.657   0.533  -0.160  0.00  0.00    +0.197 A 
ATOM      6  S   UNL     1      -6.344   0.675  -0.414  0.00  0.00    -0.010 S 
ATOM      7  N   UNL     1      -3.751   1.527  -0.257  0.00  0.00    -0.188 N 
ENDROOT
BRANCH   1  11
ATOM      8  C   UNL     1       1.153   3.171   0.009  0.00  0.00    +0.120 A 
ATOM      9  C   UNL     1       1.171   1.782   0.000  0.00  0.00    +0.046 A 
ATOM     10  C   UNL     1      -0.013   1.076   0.008  0.00  0.00    +0.015 A 
ATOM     11  C   UNL     1      -1.230   1.758   0.017  0.00  0.00    +0.021 A 
ATOM     12  C   UNL     1      -1.244   3.154   0.030  0.00  0.00    +0.015 A 
ATOM     13  C   UNL     1      -0.056   3.853   0.023  0.00  0.00    +0.046 A 
BRANCH   8  15
ATOM     14  C   UNL     1       2.231   5.289   0.011  0.00  0.00    +0.277 C 
ATOM     15  O   UNL     1       2.322   3.863   0.002  0.00  0.00    -0.495 OA
ENDBRANCH   8  15
ENDBRANCH   1  11
BRANCH   7  16
ATOM     16  N   UNL     1      -4.029   2.861  -0.586  0.00  0.00    -0.170 NA
ATOM     17  C   UNL     1      -4.016   3.240  -1.827  0.00  0.00    +0.142 C 
BRANCH  17  18
ATOM     18  C   UNL     1      -4.308   4.643  -2.172  0.00  0.00    +0.013 A 
ATOM     19  C   UNL     1      -4.295   5.054  -3.507  0.00  0.00    +0.012 A 
ATOM     20  C   UNL     1      -4.569   6.368  -3.824  0.00  0.00    +0.021 A 
ATOM     21  C   UNL     1      -4.856   7.280  -2.821  0.00  0.00    +0.042 A 
ATOM     22  C   UNL     1      -4.871   6.880  -1.496  0.00  0.00    +0.040 A 
ATOM     23  C   UNL     1      -4.604   5.567  -1.166  0.00  0.00    +0.051 A 
ATOM     24 CL   UNL     1      -4.629   5.065   0.496  0.00  0.00    -0.083 Cl
ATOM     25 CL   UNL     1      -5.200   8.932  -3.229  0.00  0.00    -0.083 Cl
ENDBRANCH  17  18
ENDBRANCH   7  16
TORSDOF 4
