REMARK  Name = ZINC00966291
REMARK  6 active torsions:
REMARK  status: ('A' for Active; 'I' for Inactive)
REMARK    1  A    between atoms: C_1  and  C_2
REMARK    2  A    between atoms: C_9  and  S_11
REMARK    3  A    between atoms: S_11  and  C_12
REMARK    4  A    between atoms: C_12  and  C_13
REMARK    5  A    between atoms: C_15  and  C_18
REMARK    6  A    between atoms: N_20  and  C_21
REMARK                            x       y       z     vdW  Elec       q    Type
REMARK                         _______ _______ _______ _____ _____    ______ ____
ROOT
ATOM      1  C   UNL     1       0.617   3.157   0.035  0.00  0.00    +0.206 A 
ATOM      2  N   UNL     1      -0.682   3.160   0.042  0.00  0.00    -0.208 NA
ATOM      3  C   UNL     1      -1.117   1.871   0.023  0.00  0.00    +0.164 A 
ATOM      4  C   UNL     1      -0.012   1.076   0.014  0.00  0.00    +0.230 A 
ATOM      5  O   UNL     1       1.056   1.890   0.017  0.00  0.00    -0.446 OA
ENDROOT
BRANCH   3   6
ATOM      6  C   UNL     1      -2.520   1.421   0.018  0.00  0.00    +0.270 C 
ATOM      7  O   UNL     1      -2.777   0.232   0.004  0.00  0.00    -0.268 OA
ATOM      8  N   UNL     1      -3.519   2.326   0.029  0.00  0.00    -0.280 N 
ATOM      9  H   UNL     1      -3.316   3.271   0.108  0.00  0.00    +0.155 HD
BRANCH   8  10
ATOM     10  C   UNL     1      -4.849   1.902  -0.073  0.00  0.00    +0.034 A 
ATOM     11  C   UNL     1      -5.776   2.678  -0.757  0.00  0.00    +0.026 A 
ATOM     12  C   UNL     1      -7.086   2.255  -0.861  0.00  0.00    +0.040 A 
ATOM     13  C   UNL     1      -7.479   1.064  -0.275  0.00  0.00    +0.124 A 
ATOM     14  C   UNL     1      -6.558   0.291   0.411  0.00  0.00    +0.040 A 
ATOM     15  C   UNL     1      -5.245   0.707   0.513  0.00  0.00    +0.026 A 
ATOM     16  F   UNL     1      -8.763   0.655  -0.374  0.00  0.00    -0.205 F 
ENDBRANCH   8  10
ENDBRANCH   3   6
BRANCH   1  17
ATOM     17  C   UNL     1       1.493   4.383   0.045  0.00  0.00    +0.174 C 
BRANCH  17  18
ATOM     18  S   UNL     1       1.853   4.853   1.756  0.00  0.00    -0.058 S 
BRANCH  18  27
ATOM     19  C   UNL     1       5.025   9.251   3.823  0.00  0.00    +0.046 C 
ATOM     20  C   UNL     1       4.872   9.066   2.335  0.00  0.00    -0.021 A 
ATOM     21  C   UNL     1       5.483   9.941   1.463  0.00  0.00    +0.005 A 
ATOM     22  C   UNL     1       5.344   9.776   0.093  0.00  0.00    +0.004 A 
ATOM     23  C   UNL     1       4.594   8.734  -0.414  0.00  0.00    +0.048 A 
ATOM     24  C   UNL     1       3.973   7.847   0.448  0.00  0.00    +0.156 A 
ATOM     25  C   UNL     1       4.110   8.010   1.835  0.00  0.00    +0.113 A 
ATOM     26  N   UNL     1       3.396   7.008   2.418  0.00  0.00    -0.203 NA
ATOM     27  C   UNL     1       2.862   6.271   1.477  0.00  0.00    +0.258 A 
ATOM     28  O   UNL     1       3.192   6.757   0.267  0.00  0.00    -0.431 OA
ENDBRANCH  18  27
ENDBRANCH  17  18
ENDBRANCH   1  17
TORSDOF 5
