REMARK  Name = ZINC44193362
REMARK  5 active torsions:
REMARK  status: ('A' for Active; 'I' for Inactive)
REMARK    1  A    between atoms: C_1  and  C_2
REMARK    2  A    between atoms: C_2  and  O_3
REMARK    3  A    between atoms: O_3  and  C_4
REMARK    4  A    between atoms: C_7  and  C_14
REMARK    5  A    between atoms: C_11  and  O_13
REMARK                            x       y       z     vdW  Elec       q    Type
REMARK                         _______ _______ _______ _____ _____    ______ ____
ROOT
ATOM      1  C   UNL     1       0.746  -1.888  -1.280  0.00  0.00    +0.147 C 
ATOM      2  C   UNL     1       0.755  -2.290  -2.756  0.00  0.00    +0.037 C 
ATOM      3  C   UNL     1       0.836  -3.813  -2.870  0.00  0.00    -0.011 C 
ATOM      4  C   UNL     1       2.118  -4.308  -2.198  0.00  0.00    +0.006 C 
ATOM      5  C   UNL     1       2.108  -3.906  -0.722  0.00  0.00    +0.034 C 
ATOM      6  C   UNL     1       2.028  -2.383  -0.608  0.00  0.00    +0.143 C 
ATOM      7  C   UNL     1      -0.377  -4.441  -2.178  0.00  0.00    +0.007 C 
ENDROOT
BRANCH   6   8
ATOM      8  O   UNL     1       2.019  -2.008   0.771  0.00  0.00    -0.389 OA
ATOM      9  H   UNL     1       2.804  -2.289   1.260  0.00  0.00    +0.210 HD
ENDBRANCH   6   8
BRANCH   1  10
ATOM     10  O   UNL     1       0.671  -0.465  -1.174  0.00  0.00    -0.374 OA
BRANCH  10  12
ATOM     11  C   UNL     1      -0.019   1.526   0.010  0.00  0.00    +0.034 C 
ATOM     12  C   UNL     1       0.002  -0.004   0.002  0.00  0.00    +0.157 C 
ENDBRANCH  10  12
ENDBRANCH   1  10
TORSDOF 3
