REMARK  Name = ZINC36531333
REMARK  13 active torsions:
REMARK  status: ('A' for Active; 'I' for Inactive)
REMARK    1  A    between atoms: C_1  and  C_2
REMARK    2  A    between atoms: C_5  and  S_8
REMARK    3  A    between atoms: S_8  and  C_11
REMARK    4  A    between atoms: C_11  and  N_12
REMARK    5  A    between atoms: C_13  and  C_15
REMARK    6  A    between atoms: C_15  and  C_17
REMARK    7  A    between atoms: C_15  and  N_26
REMARK    8  A    between atoms: C_17  and  C_19
REMARK    9  A    between atoms: C_17  and  C_20
REMARK   10  A    between atoms: N_26  and  C_27
REMARK   11  A    between atoms: C_28  and  C_30
REMARK   12  A    between atoms: C_34  and  O_37
REMARK   13  A    between atoms: C_35  and  O_36
REMARK                            x       y       z     vdW  Elec       q    Type
REMARK                         _______ _______ _______ _____ _____    ______ ____
ROOT
ATOM      1  C   UNL     1       3.312  -4.768   3.641  0.00  0.00    +0.169 C 
ENDROOT
BRANCH   1   3
ATOM      2  N   UNL     1       2.748  -4.681   1.234  0.00  0.00    -0.295 N 
ATOM      3  C   UNL     1       2.992  -5.432   2.326  0.00  0.00    +0.235 C 
ATOM      4  O   UNL     1       2.954  -6.642   2.252  0.00  0.00    -0.274 OA
ATOM      5  H   UNL     1       2.779  -3.714   1.294  0.00  0.00    +0.150 HD
BRANCH   2   6
ATOM      6  C   UNL     1       2.437  -5.327  -0.044  0.00  0.00    +0.278 C 
BRANCH   6   7
ATOM      7  S   UNL     1       0.638  -5.432  -0.246  0.00  0.00    +0.013 S 
ATOM      8  O   UNL     1       0.040  -5.930   0.942  0.00  0.00    -0.168 OA
ATOM      9  O   UNL     1       0.320  -5.999  -1.510  0.00  0.00    -0.168 OA
BRANCH   7  14
ATOM     10  C   UNL     1      -1.220   0.297  -0.619  0.00  0.00    +0.044 C 
ATOM     11  C   UNL     1      -0.756  -1.134  -0.526  0.00  0.00    -0.050 A 
ATOM     12  C   UNL     1      -0.406  -1.823  -1.672  0.00  0.00    +0.005 A 
ATOM     13  C   UNL     1       0.019  -3.135  -1.587  0.00  0.00    +0.027 A 
ATOM     14  C   UNL     1       0.096  -3.759  -0.355  0.00  0.00    +0.090 A 
ATOM     15  C   UNL     1      -0.253  -3.069   0.791  0.00  0.00    +0.027 A 
ATOM     16  C   UNL     1      -0.674  -1.755   0.706  0.00  0.00    +0.005 A 
ENDBRANCH   7  14
ENDBRANCH   6   7
ENDBRANCH   2   6
ENDBRANCH   1   3
BRANCH   1  17
ATOM     17  N   UNL     1       3.535  -5.793   4.664  0.00  0.00    -0.288 N 
ATOM     18  C   UNL     1       4.607  -6.776   4.494  0.00  0.00    +0.133 C 
ATOM     19  C   UNL     1       2.753  -5.830   5.761  0.00  0.00    +0.251 C 
ATOM     20  O   UNL     1       1.804  -5.077   5.858  0.00  0.00    -0.270 OA
BRANCH  19  21
ATOM     21  C   UNL     1       3.050  -6.786   6.846  0.00  0.00    +0.082 A 
ATOM     22  C   UNL     1       4.367  -6.975   7.275  0.00  0.00    +0.017 A 
ATOM     23  C   UNL     1       4.641  -7.867   8.288  0.00  0.00    +0.005 A 
ATOM     24  C   UNL     1       3.616  -8.581   8.887  0.00  0.00    +0.049 A 
ATOM     25  C   UNL     1       2.306  -8.405   8.473  0.00  0.00    +0.159 A 
ATOM     26  C   UNL     1       2.014  -7.503   7.455  0.00  0.00    +0.171 A 
BRANCH  26  27
ATOM     27  O   UNL     1       0.731  -7.323   7.050  0.00  0.00    -0.503 OA
ATOM     28  H   UNL     1       0.456  -7.917   6.338  0.00  0.00    +0.292 HD
ENDBRANCH  26  27
BRANCH  25  29
ATOM     29  O   UNL     1       1.305  -9.110   9.066  0.00  0.00    -0.503 OA
ATOM     30  H   UNL     1       0.914  -8.669   9.833  0.00  0.00    +0.292 HD
ENDBRANCH  25  29
ENDBRANCH  19  21
ENDBRANCH   1  17
BRANCH   1  31
ATOM     31  C   UNL     1       4.574  -3.916   3.488  0.00  0.00    +0.045 C 
ATOM     32  C   UNL     1       4.898  -3.242   4.823  0.00  0.00    +0.015 C 
BRANCH  31  33
ATOM     33  C   UNL     1       4.344  -2.862   2.436  0.00  0.00    -0.042 A 
ATOM     34  C   UNL     1       3.336  -1.931   2.599  0.00  0.00    +0.004 A 
ATOM     35  C   UNL     1       3.126  -0.964   1.633  0.00  0.00    +0.000 A 
ATOM     36  C   UNL     1       3.924  -0.929   0.505  0.00  0.00    +0.000 A 
ATOM     37  C   UNL     1       4.933  -1.860   0.343  0.00  0.00    +0.000 A 
ATOM     38  C   UNL     1       5.146  -2.824   1.310  0.00  0.00    +0.004 A 
ENDBRANCH  31  33
ENDBRANCH   1  31
TORSDOF 10
