REMARK  Name = ZINC42445429
REMARK  8 active torsions:
REMARK  status: ('A' for Active; 'I' for Inactive)
REMARK    1  A    between atoms: C_1  and  C_2
REMARK    2  A    between atoms: C_2  and  N_3
REMARK    3  A    between atoms: N_3  and  C_4
REMARK    4  A    between atoms: N_3  and  C_12
REMARK    5  A    between atoms: C_4  and  C_5
REMARK    6  A    between atoms: C_5  and  C_7
REMARK    7  A    between atoms: C_5  and  C_8
REMARK    8  A    between atoms: N_9  and  O_10
REMARK                            x       y       z     vdW  Elec       q    Type
REMARK                         _______ _______ _______ _____ _____    ______ ____
ROOT
ATOM      1  N   UNL     1       0.805  -0.377  -0.879  0.00  0.00    -0.329 N 
ENDROOT
BRANCH   1   2
ATOM      2  C   UNL     1      -0.153  -0.756  -1.807  0.00  0.00    +0.040 A 
ATOM      3  C   UNL     1      -0.408   0.018  -2.928  0.00  0.00    +0.041 A 
ATOM      4  C   UNL     1      -1.373  -0.388  -3.839  0.00  0.00    +0.085 A 
ATOM      5  N   UNL     1      -2.061  -1.494  -3.673  0.00  0.00    -0.361 N 
ATOM      6  C   UNL     1      -1.868  -2.289  -2.614  0.00  0.00    +0.050 A 
ATOM      7  C   UNL     1      -0.897  -1.948  -1.642  0.00  0.00    +0.019 A 
ATOM      8  C   UNL     1      -0.695  -2.787  -0.537  0.00  0.00    +0.013 A 
ATOM      9  C   UNL     1      -1.431  -3.926  -0.413  0.00  0.00    +0.021 A 
ATOM     10  C   UNL     1      -2.384  -4.269  -1.371  0.00  0.00    +0.043 A 
ATOM     11  C   UNL     1      -2.613  -3.469  -2.450  0.00  0.00    +0.046 A 
ATOM     12 CL   UNL     1      -3.303  -5.729  -1.179  0.00  0.00    -0.083 Cl
ATOM     13  H   UNL     1      -2.727  -1.741  -4.334  0.00  0.00    +0.165 HD
ENDBRANCH   1   2
BRANCH   1  15
ATOM     14  C   UNL     1       0.593   1.942  -0.132  0.00  0.00    +0.024 C 
ATOM     15  C   UNL     1       0.431   0.471   0.256  0.00  0.00    +0.102 C 
ENDBRANCH   1  15
BRANCH   1  16
ATOM     16  C   UNL     1       2.192  -0.823  -1.034  0.00  0.00    +0.116 C 
BRANCH  16  17
ATOM     17  C   UNL     1       2.827  -0.109  -2.228  0.00  0.00    +0.070 C 
ATOM     18  C   UNL     1       2.874   1.396  -1.957  0.00  0.00    +0.017 C 
BRANCH  17  19
ATOM     19  C   UNL     1       4.228  -0.626  -2.435  0.00  0.00    +0.136 C 
ATOM     20  N   UNL     1       5.231   0.003  -1.919  0.00  0.00    -0.076 NA
ATOM     21  N   UNL     1       4.438  -1.768  -3.175  0.00  0.00    -0.344 N 
ATOM     22  H   UNL     1       3.685  -2.240  -3.563  0.00  0.00    +0.144 HD
ATOM     23  H   UNL     1       5.340  -2.101  -3.308  0.00  0.00    +0.144 HD
BRANCH  20  24
ATOM     24  O   UNL     1       6.547  -0.482  -2.113  0.00  0.00    -0.408 OA
ATOM     25  H   UNL     1       7.231   0.054  -1.689  0.00  0.00    +0.328 HD
ENDBRANCH  20  24
ENDBRANCH  17  19
ENDBRANCH  16  17
ENDBRANCH   1  16
TORSDOF 6
