REMARK  Name = ZINC28624029
REMARK  4 active torsions:
REMARK  status: ('A' for Active; 'I' for Inactive)
REMARK    1  A    between atoms: C_1  and  C_2
REMARK    2  A    between atoms: C_5  and  C_11
REMARK    3  A    between atoms: C_6  and  C_10
REMARK    4  A    between atoms: N_18  and  C_19
REMARK                            x       y       z     vdW  Elec       q    Type
REMARK                         _______ _______ _______ _____ _____    ______ ____
ROOT
ATOM      1  C   UNL     1      -2.543   1.470   0.022  0.00  0.00    +0.048 C 
ATOM      2  C   UNL     1      -1.248   1.940   0.018  0.00  0.00    +0.081 C 
ATOM      3  C   UNL     1      -0.015   1.218   0.009  0.00  0.00    +0.276 C 
ATOM      4  O   UNL     1       0.002  -0.004   0.002  0.00  0.00    -0.267 OA
ATOM      5  N   UNL     1       1.103   1.913   0.002  0.00  0.00    -0.154 NA
ATOM      6  C   UNL     1       1.103   3.239   0.009  0.00  0.00    +0.152 C 
ATOM      7  S   UNL     1      -0.642   3.622   0.028  0.00  0.00    -0.052 S 
ATOM      8  N   UNL     1       2.173   4.099   0.003  0.00  0.00    -0.322 N 
ATOM      9  H   UNL     1       2.005   5.186   0.011  0.00  0.00    +0.148 HD
ENDROOT
BRANCH   1  14
ATOM     10  C   UNL     1      -7.035   1.256  -3.643  0.00  0.00    +0.053 C 
ATOM     11  C   UNL     1      -6.351   1.935  -2.484  0.00  0.00    +0.007 A 
ATOM     12  C   UNL     1      -5.200   1.622  -1.887  0.00  0.00    +0.104 A 
ATOM     13  N   UNL     1      -4.729   2.367  -0.832  0.00  0.00    -0.293 N 
ATOM     14  C   UNL     1      -3.620   2.375   0.032  0.00  0.00    +0.071 A 
ATOM     15  C   UNL     1      -3.787   3.449   0.890  0.00  0.00    +0.065 A 
ATOM     16  N   UNL     1      -4.927   4.052   0.574  0.00  0.00    -0.226 NA
ATOM     17  C   UNL     1      -5.491   3.428  -0.429  0.00  0.00    +0.178 A 
ATOM     18  S   UNL     1      -6.874   3.362  -1.546  0.00  0.00    -0.055 S 
ATOM     19  C   UNL     1      -2.842   3.860   1.990  0.00  0.00    +0.068 C 
ENDBRANCH   1  14
BRANCH   8  20
ATOM     20  C   UNL     1       3.538   3.569  -0.012  0.00  0.00    +0.072 C 
ATOM     21  C   UNL     1       3.982   3.260   1.419  0.00  0.00    +0.022 C 
ATOM     22  C   UNL     1       5.408   2.707   1.403  0.00  0.00    +0.002 C 
ATOM     23  C   UNL     1       6.351   3.744   0.790  0.00  0.00    +0.000 C 
ATOM     24  C   UNL     1       5.907   4.053  -0.641  0.00  0.00    +0.002 C 
ATOM     25  C   UNL     1       4.481   4.606  -0.625  0.00  0.00    +0.022 C 
ENDBRANCH   8  20
TORSDOF 2
