REMARK  Name = ZINC06794506
REMARK  5 active torsions:
REMARK  status: ('A' for Active; 'I' for Inactive)
REMARK    1  A    between atoms: C_1  and  C_2
REMARK    2  A    between atoms: C_2  and  C_3
REMARK    3  A    between atoms: C_3  and  C_5
REMARK    4  A    between atoms: C_3  and  N_14
REMARK    5  A    between atoms: C_23  and  C_28
REMARK                            x       y       z     vdW  Elec       q    Type
REMARK                         _______ _______ _______ _____ _____    ______ ____
ROOT
ATOM      1  N   UNL     1      -0.720  -2.137   0.495  0.00  0.00    -0.266 N 
ATOM      2  C   UNL     1      -0.096  -2.978  -0.414  0.00  0.00    +0.070 A 
ATOM      3  C   UNL     1       0.491  -2.761  -1.653  0.00  0.00    +0.028 A 
ATOM      4  C   UNL     1       1.049  -3.816  -2.347  0.00  0.00    +0.002 A 
ATOM      5  C   UNL     1       1.028  -5.097  -1.818  0.00  0.00    +0.001 A 
ATOM      6  C   UNL     1       0.449  -5.332  -0.589  0.00  0.00    +0.014 A 
ATOM      7  C   UNL     1      -0.117  -4.276   0.122  0.00  0.00    +0.044 A 
ATOM      8  C   UNL     1      -0.797  -4.183   1.427  0.00  0.00    +0.166 A 
ATOM      9  N   UNL     1      -1.137  -2.875   1.610  0.00  0.00    -0.237 N 
ATOM     10  C   UNL     1      -1.793  -2.491   2.744  0.00  0.00    +0.045 A 
ATOM     11  C   UNL     1      -2.092  -3.412   3.685  0.00  0.00    +0.095 A 
ATOM     12  C   UNL     1      -1.720  -4.763   3.466  0.00  0.00    +0.274 A 
ATOM     13  O   UNL     1      -1.978  -5.616   4.302  0.00  0.00    -0.266 OA
ATOM     14  N   UNL     1      -1.082  -5.095   2.336  0.00  0.00    -0.189 NA
ATOM     15  C   UNL     1      -2.175  -1.047   2.948  0.00  0.00    +0.066 C 
ENDROOT
BRANCH   1  16
ATOM     16  C   UNL     1      -0.908  -0.695   0.318  0.00  0.00    +0.192 C 
BRANCH  16  17
ATOM     17  C   UNL     1       0.426  -0.041   0.068  0.00  0.00    +0.240 C 
ATOM     18  O   UNL     1       1.385  -0.717  -0.241  0.00  0.00    -0.273 OA
ATOM     19  N   UNL     1       0.555   1.295   0.186  0.00  0.00    -0.300 N 
ATOM     20  C   UNL     1       1.869   1.881   0.043  0.00  0.00    +0.108 C 
ATOM     21  C   UNL     1       2.576   1.926   1.414  0.00  0.00    +0.019 C 
ATOM     22  C   UNL     1       1.951   2.940   2.277  0.00  0.00    +0.002 C 
ATOM     23  C   UNL     1       0.489   2.663   2.614  0.00  0.00    +0.002 C 
ATOM     24  C   UNL     1      -0.388   3.199   1.509  0.00  0.00    +0.019 C 
ATOM     25  C   UNL     1      -0.651   2.100   0.463  0.00  0.00    +0.108 C 
ENDBRANCH  16  17
BRANCH  16  27
ATOM     26  C   UNL     1      -3.220  -1.012  -0.574  0.00  0.00    +0.006 C 
ATOM     27  C   UNL     1      -1.831  -0.443  -0.875  0.00  0.00    +0.033 C 
ENDBRANCH  16  27
ENDBRANCH   1  16
TORSDOF 3
