REMARK  Name = ZINC36955065
REMARK  8 active torsions:
REMARK  status: ('A' for Active; 'I' for Inactive)
REMARK    1  A    between atoms: C_1  and  C_2
REMARK    2  A    between atoms: C_5  and  N_12
REMARK    3  A    between atoms: C_8  and  C_10
REMARK    4  A    between atoms: C_8  and  C_11
REMARK    5  A    between atoms: N_12  and  C_13
REMARK    6  A    between atoms: C_16  and  C_19
REMARK    7  A    between atoms: N_21  and  C_22
REMARK    8  A    between atoms: N_21  and  C_23
REMARK                            x       y       z     vdW  Elec       q    Type
REMARK                         _______ _______ _______ _____ _____    ______ ____
ROOT
ATOM      1  N   UNL     1      -1.318  -1.303  -2.489  0.00  0.00    -0.341 N 
ATOM      2  H   UNL     1      -2.014  -0.991  -1.891  0.00  0.00    +0.146 HD
ENDROOT
BRANCH   1   6
ATOM      3  C   UNL     1      -1.167   2.572  -0.640  0.00  0.00    +0.007 C 
ATOM      4  C   UNL     1      -0.789   1.142  -1.031  0.00  0.00    -0.012 C 
ATOM      5  C   UNL     1      -0.651   1.049  -2.552  0.00  0.00    +0.025 C 
ATOM      6  C   UNL     1      -0.274  -0.381  -2.943  0.00  0.00    +0.071 C 
ATOM      7  C   UNL     1       1.057  -0.755  -2.286  0.00  0.00    +0.028 C 
ATOM      8  C   UNL     1       0.919  -0.662  -0.765  0.00  0.00    -0.033 C 
ATOM      9  C   UNL     1       0.541   0.768  -0.374  0.00  0.00    +0.009 C 
ATOM     10  C   UNL     1       2.250  -1.036  -0.109  0.00  0.00    +0.011 C 
ATOM     11  C   UNL     1      -0.171  -1.625  -0.292  0.00  0.00    +0.011 C 
ENDBRANCH   1   6
BRANCH   1  12
ATOM     12  C   UNL     1      -1.310  -2.627  -2.917  0.00  0.00    +0.027 A 
ATOM     13  C   UNL     1      -0.306  -3.075  -3.771  0.00  0.00    +0.023 A 
ATOM     14  C   UNL     1      -0.296  -4.384  -4.196  0.00  0.00    +0.015 A 
ATOM     15  C   UNL     1      -1.295  -5.263  -3.768  0.00  0.00    +0.037 A 
ATOM     16  C   UNL     1      -2.302  -4.810  -2.911  0.00  0.00    +0.015 A 
ATOM     17  C   UNL     1      -2.303  -3.502  -2.485  0.00  0.00    +0.023 A 
BRANCH  15  18
ATOM     18  C   UNL     1      -1.287  -6.667  -4.222  0.00  0.00    +0.246 C 
ATOM     19  O   UNL     1      -0.264  -7.161  -4.654  0.00  0.00    -0.270 OA
ATOM     20  N   UNL     1      -2.415  -7.402  -4.158  0.00  0.00    -0.304 N 
ATOM     21  C   UNL     1      -2.462  -8.727  -4.782  0.00  0.00    +0.132 C 
ATOM     22  C   UNL     1      -3.594  -6.877  -3.465  0.00  0.00    +0.132 C 
ENDBRANCH  15  18
ENDBRANCH   1  12
TORSDOF 3
