REMARK  Name = ZINC08819915
REMARK  12 active torsions:
REMARK  status: ('A' for Active; 'I' for Inactive)
REMARK    1  A    between atoms: C_1  and  O_2
REMARK    2  A    between atoms: O_2  and  C_3
REMARK    3  A    between atoms: C_6  and  C_9
REMARK    4  A    between atoms: N_13  and  C_17
REMARK    5  A    between atoms: C_17  and  C_18
REMARK    6  A    between atoms: C_18  and  C_19
REMARK    7  A    between atoms: C_19  and  C_20
REMARK    8  A    between atoms: C_20  and  C_21
REMARK    9  A    between atoms: C_21  and  C_22
REMARK   10  A    between atoms: N_24  and  C_25
REMARK   11  A    between atoms: C_28  and  O_33
REMARK   12  A    between atoms: C_29  and  C_31
REMARK                            x       y       z     vdW  Elec       q    Type
REMARK                         _______ _______ _______ _____ _____    ______ ____
ROOT
ATOM      1  C   UNL     1       0.801 -10.761   3.180  0.00  0.00    +0.019 C 
ENDROOT
BRANCH   1   2
ATOM      2  C   UNL     1       0.653 -12.207   3.657  0.00  0.00    +0.115 C 
BRANCH   2   7
ATOM      3  C   UNL     1      -0.898 -12.081   8.368  0.00  0.00    +0.028 C 
ATOM      4  C   UNL     1      -0.012 -12.187   7.345  0.00  0.00    +0.077 C 
ATOM      5  C   UNL     1      -0.245 -12.123   5.888  0.00  0.00    +0.258 C 
ATOM      6  O   UNL     1      -1.357 -11.952   5.425  0.00  0.00    -0.269 OA
ATOM      7  N   UNL     1       0.817 -12.261   5.112  0.00  0.00    -0.255 N 
ATOM      8  C   UNL     1       2.048 -12.455   5.629  0.00  0.00    +0.121 C 
ATOM      9  S   UNL     1       3.530 -12.659   4.798  0.00  0.00    -0.027 S 
ATOM     10  S   UNL     1       1.756 -12.444   7.391  0.00  0.00    -0.061 S 
BRANCH   3  14
ATOM     11  C   UNL     1       0.294 -13.066  12.316  0.00  0.00    +0.120 A 
ATOM     12  C   UNL     1      -0.928 -12.442  12.097  0.00  0.00    +0.046 A 
ATOM     13  C   UNL     1      -1.320 -12.120  10.818  0.00  0.00    +0.011 A 
ATOM     14  C   UNL     1      -0.485 -12.422   9.735  0.00  0.00    -0.024 A 
ATOM     15  C   UNL     1       0.743 -13.056   9.961  0.00  0.00    +0.011 A 
ATOM     16  C   UNL     1       1.127 -13.369  11.245  0.00  0.00    +0.046 A 
BRANCH  11  18
ATOM     17  C   UNL     1       1.944 -14.023  13.734  0.00  0.00    +0.277 C 
ATOM     18  O   UNL     1       0.676 -13.382  13.580  0.00  0.00    -0.495 OA
ENDBRANCH  11  18
ENDBRANCH   3  14
ENDBRANCH   2   7
ENDBRANCH   1   2
BRANCH   1  19
ATOM     19  C   UNL     1       0.629 -10.705   1.661  0.00  0.00    +0.002 C 
BRANCH  19  20
ATOM     20  C   UNL     1       0.778  -9.259   1.184  0.00  0.00    +0.009 C 
BRANCH  20  21
ATOM     21  C   UNL     1       0.606  -9.203  -0.335  0.00  0.00    +0.096 C 
BRANCH  21  22
ATOM     22  C   UNL     1       0.753  -7.778  -0.805  0.00  0.00    +0.217 C 
ATOM     23  O   UNL     1       0.973  -6.895  -0.004  0.00  0.00    -0.275 OA
ATOM     24  N   UNL     1       0.639  -7.486  -2.116  0.00  0.00    -0.285 N 
ATOM     25  H   UNL     1       0.399  -8.181  -2.749  0.00  0.00    +0.155 HD
BRANCH  24  26
ATOM     26  C   UNL     1       0.867  -6.178  -2.565  0.00  0.00    +0.034 A 
ATOM     27  C   UNL     1       0.205  -5.707  -3.694  0.00  0.00    +0.027 A 
ATOM     28  C   UNL     1       0.424  -4.421  -4.144  0.00  0.00    +0.048 A 
ATOM     29  C   UNL     1       1.306  -3.588  -3.471  0.00  0.00    +0.131 A 
ATOM     30  C   UNL     1       1.981  -4.057  -2.336  0.00  0.00    +0.106 A 
ATOM     31  C   UNL     1       1.750  -5.359  -1.884  0.00  0.00    +0.042 A 
BRANCH  30  32
ATOM     32  C   UNL     1       2.925  -3.180  -1.620  0.00  0.00    +0.390 C 
ATOM     33  O   UNL     1       3.119  -2.047  -2.013  0.00  0.00    -0.240 OA
ATOM     34  O   UNL     1       3.571  -3.635  -0.529  0.00  0.00    -0.240 OA
ENDBRANCH  30  32
BRANCH  29  35
ATOM     35  O   UNL     1       1.520  -2.323  -3.915  0.00  0.00    -0.506 OA
ATOM     36  H   UNL     1       0.921  -1.667  -3.535  0.00  0.00    +0.292 HD
ENDBRANCH  29  35
ENDBRANCH  24  26
ENDBRANCH  21  22
ENDBRANCH  20  21
ENDBRANCH  19  20
ENDBRANCH   1  19
TORSDOF 11
