REMARK  Name = ZINC41850747
REMARK  8 active torsions:
REMARK  status: ('A' for Active; 'I' for Inactive)
REMARK    1  A    between atoms: C_1  and  C_2
REMARK    2  A    between atoms: C_5  and  C_9
REMARK    3  A    between atoms: C_6  and  C_8
REMARK    4  A    between atoms: C_9  and  C_10
REMARK    5  A    between atoms: C_9  and  C_11
REMARK    6  A    between atoms: C_9  and  N_14
REMARK    7  A    between atoms: C_15  and  C_23
REMARK    8  A    between atoms: C_20  and  C_22
REMARK                            x       y       z     vdW  Elec       q    Type
REMARK                         _______ _______ _______ _____ _____    ______ ____
ROOT
ATOM      1  C   UNL     1      -0.817  -5.230  -1.266  0.00  0.00    +0.062 C 
ATOM      2  C   UNL     1      -0.079  -4.857   0.021  0.00  0.00    +0.007 C 
ENDROOT
BRANCH   1   3
ATOM      3  N   UNL     1       0.010  -6.153  -2.054  0.00  0.00    +0.397 N 
ATOM      4  C   UNL     1       1.257  -5.482  -2.441  0.00  0.00    -0.069 C 
ATOM      5  C   UNL     1       2.086  -6.412  -3.331  0.00  0.00    -0.016 C 
ATOM      6  C   UNL     1       2.412  -7.693  -2.557  0.00  0.00    -0.003 C 
ATOM      7  C   UNL     1       1.105  -8.345  -2.095  0.00  0.00    -0.016 C 
ATOM      8  C   UNL     1       0.313  -7.344  -1.251  0.00  0.00    -0.069 C 
ATOM      9  C   UNL     1      -0.993  -7.991  -0.786  0.00  0.00    -0.013 C 
ATOM     10  C   UNL     1       0.929  -4.201  -3.211  0.00  0.00    -0.013 C 
ATOM     11  H   UNL     1      -0.493  -6.428  -2.885  0.00  0.00    -0.079 HD
ENDBRANCH   1   3
BRANCH   1  16
ATOM     12  C   UNL     1      -1.840  -0.452  -4.351  0.00  0.00    +0.044 C 
ATOM     13  C   UNL     1      -1.573  -1.698  -3.546  0.00  0.00    -0.050 A 
ATOM     14  C   UNL     1      -0.801  -1.629  -2.402  0.00  0.00    +0.003 A 
ATOM     15  C   UNL     1      -0.557  -2.772  -1.664  0.00  0.00    +0.003 A 
ATOM     16  C   UNL     1      -1.084  -3.984  -2.070  0.00  0.00    -0.045 A 
ATOM     17  C   UNL     1      -1.857  -4.052  -3.214  0.00  0.00    -0.048 A 
ATOM     18  C   UNL     1      -2.105  -2.908  -3.950  0.00  0.00    +0.007 A 
ATOM     19  C   UNL     1      -2.432  -5.373  -3.657  0.00  0.00    +0.044 C 
ENDBRANCH   1  16
BRANCH   1  20
ATOM     20  C   UNL     1      -2.124  -5.895  -0.921  0.00  0.00    +0.350 C 
ATOM     21  O   UNL     1      -2.544  -6.808  -1.612  0.00  0.00    -0.248 OA
ATOM     22  O   UNL     1      -2.762  -5.521   0.048  0.00  0.00    -0.248 OA
ENDBRANCH   1  20
TORSDOF 3
