REMARK  Name = ZINC24960196
REMARK  6 active torsions:
REMARK  status: ('A' for Active; 'I' for Inactive)
REMARK    1  A    between atoms: C_8  and  C_10
REMARK    2  A    between atoms: C_10  and  C_11
REMARK    3  A    between atoms: C_14  and  N_17
REMARK    4  A    between atoms: C_18  and  C_20
REMARK    5  A    between atoms: C_20  and  C_21
REMARK    6  A    between atoms: C_21  and  C_22
REMARK                            x       y       z     vdW  Elec       q    Type
REMARK                         _______ _______ _______ _____ _____    ______ ____
ROOT
ATOM      1  N   UNL     1       1.993   9.096   5.382  0.00  0.00    -0.285 N 
ATOM      2  C   UNL     1       0.929   9.650   5.996  0.00  0.00    +0.218 C 
ATOM      3  O   UNL     1      -0.147   9.678   5.437  0.00  0.00    -0.275 OA
ATOM      4  H   UNL     1       2.947   8.992   5.921  0.00  0.00    +0.155 HD
ENDROOT
BRANCH   1   8
ATOM      5  C   UNL     1       1.672   7.777   1.443  0.00  0.00    -0.041 A 
ATOM      6  C   UNL     1       2.494   7.106   2.331  0.00  0.00    +0.006 A 
ATOM      7  C   UNL     1       2.606   7.544   3.636  0.00  0.00    +0.023 A 
ATOM      8  C   UNL     1       1.885   8.653   4.059  0.00  0.00    +0.033 A 
ATOM      9  C   UNL     1       1.057   9.321   3.167  0.00  0.00    +0.023 A 
ATOM     10  C   UNL     1       0.952   8.881   1.862  0.00  0.00    +0.006 A 
BRANCH   5  11
ATOM     11  C   UNL     1       1.556   7.300   0.018  0.00  0.00    +0.098 C 
BRANCH  11  19
ATOM     12  C   UNL     1       6.683   8.870  -3.038  0.00  0.00    +0.002 A 
ATOM     13  C   UNL     1       6.118  10.040  -3.525  0.00  0.00    +0.001 A 
ATOM     14  C   UNL     1       4.814  10.355  -3.191  0.00  0.00    +0.017 A 
ATOM     15  C   UNL     1       4.103   9.506  -2.378  0.00  0.00    +0.039 A 
ATOM     16  C   UNL     1       4.654   8.311  -1.863  0.00  0.00    +0.078 A 
ATOM     17  C   UNL     1       5.989   8.025  -2.228  0.00  0.00    +0.029 A 
ATOM     18  N   UNL     1       3.816   7.598  -1.082  0.00  0.00    -0.244 NA
ATOM     19  C   UNL     1       2.598   7.986  -0.828  0.00  0.00    +0.084 A 
ATOM     20  S   UNL     1       2.463   9.482  -1.698  0.00  0.00    -0.072 S 
ENDBRANCH  11  19
ENDBRANCH   5  11
ENDBRANCH   1   8
BRANCH   2  21
ATOM     21  C   UNL     1       1.077  10.236   7.377  0.00  0.00    +0.104 C 
BRANCH  21  22
ATOM     22  C   UNL     1      -0.270  10.795   7.840  0.00  0.00    +0.083 C 
BRANCH  22  23
ATOM     23  C   UNL     1      -0.123  11.380   9.221  0.00  0.00    +0.111 A 
ATOM     24  N   UNL     1      -1.203  11.935   9.828  0.00  0.00    -0.310 N 
ATOM     25  H   UNL     1      -2.174  11.955   9.312  0.00  0.00    +0.170 HD
ATOM     26  C   UNL     1      -1.116  12.469  11.061  0.00  0.00    +0.260 A 
ATOM     27  O   UNL     1      -2.093  12.965  11.594  0.00  0.00    -0.267 OA
ATOM     28  C   UNL     1       0.148  12.444  11.735  0.00  0.00    +0.075 A 
ATOM     29  C   UNL     1       0.473  12.963  13.072  0.00  0.00    -0.023 A 
ATOM     30  C   UNL     1       1.743  12.818  13.488  0.00  0.00    -0.004 A 
ATOM     31  S   UNL     1       2.575  11.997  12.148  0.00  0.00    -0.073 S 
ATOM     32  C   UNL     1       1.205  11.851  11.031  0.00  0.00    +0.116 A 
ATOM     33  N   UNL     1       1.041  11.339   9.814  0.00  0.00    -0.227 NA
ATOM     34  C   UNL     1       1.957  13.380  14.868  0.00  0.00    +0.043 C 
ATOM     35  C   UNL     1       0.534  13.524  15.452  0.00  0.00    +0.010 C 
ATOM     36  C   UNL     1      -0.315  13.674  14.175  0.00  0.00    +0.037 C 
ENDBRANCH  22  23
ENDBRANCH  21  22
ENDBRANCH   2  21
TORSDOF 6
