REMARK  Name = ZINC39631985
REMARK  13 active torsions:
REMARK  status: ('A' for Active; 'I' for Inactive)
REMARK    1  A    between atoms: C_1  and  C_2
REMARK    2  A    between atoms: C_2  and  C_4
REMARK    3  A    between atoms: C_2  and  N_11
REMARK    4  A    between atoms: C_4  and  C_5
REMARK    5  A    between atoms: C_5  and  C_6
REMARK    6  A    between atoms: C_6  and  C_7
REMARK    7  A    between atoms: C_7  and  C_8
REMARK    8  A    between atoms: C_7  and  C_9
REMARK    9  A    between atoms: C_7  and  O_10
REMARK   10  A    between atoms: C_12  and  C_14
REMARK   11  A    between atoms: C_25  and  C_27
REMARK   12  A    between atoms: C_30  and  O_34
REMARK   13  A    between atoms: O_34  and  C_35
REMARK                            x       y       z     vdW  Elec       q    Type
REMARK                         _______ _______ _______ _____ _____    ______ ____
ROOT
ATOM      1  C   UNL     1       3.434   0.441   1.311  0.00  0.00    +0.100 C 
ATOM      2  C   UNL     1       3.092  -0.917   1.965  0.00  0.00    +0.121 C 
ATOM      3  N   UNL     1       4.390  -1.625   2.058  0.00  0.00    -0.296 N 
ATOM      4  C   UNL     1       5.360  -0.569   2.436  0.00  0.00    +0.115 C 
ATOM      5  C   UNL     1       4.922   0.667   1.626  0.00  0.00    -0.004 C 
ATOM      6  C   UNL     1       5.727   0.761   0.333  0.00  0.00    -0.010 C 
ATOM      7  C   UNL     1       7.194   1.042   0.670  0.00  0.00    -0.082 C 
ATOM      8  N   UNL     1       7.293   2.298   1.424  0.00  0.00    +0.379 N 
ATOM      9  C   UNL     1       6.593   2.168   2.708  0.00  0.00    -0.082 C 
ATOM     10  C   UNL     1       5.101   1.934   2.457  0.00  0.00    -0.010 C 
ATOM     11  C   UNL     1       4.634  -2.934   1.847  0.00  0.00    +0.247 C 
ATOM     12  O   UNL     1       5.748  -3.382   2.035  0.00  0.00    -0.270 OA
ATOM     13  H   UNL     1       8.264   2.512   1.592  0.00  0.00    -0.086 HD
ATOM     14  H   UNL     1       6.874   3.043   0.889  0.00  0.00    -0.086 HD
ENDROOT
BRANCH  11  15
ATOM     15  C   UNL     1       3.549  -3.822   1.387  0.00  0.00    +0.040 A 
ATOM     16  C   UNL     1       2.217  -3.501   1.663  0.00  0.00    +0.036 A 
ATOM     17  C   UNL     1       1.206  -4.333   1.231  0.00  0.00    +0.085 A 
ATOM     18  C   UNL     1       1.511  -5.491   0.523  0.00  0.00    +0.157 A 
ATOM     19  C   UNL     1       2.835  -5.813   0.247  0.00  0.00    +0.085 A 
ATOM     20  C   UNL     1       3.850  -4.982   0.669  0.00  0.00    +0.036 A 
ATOM     21 CL   UNL     1       3.209  -7.259  -0.637  0.00  0.00    -0.080 Cl
ATOM     22 CL   UNL     1      -0.449  -3.936   1.573  0.00  0.00    -0.080 Cl
BRANCH  18  23
ATOM     23  O   UNL     1       0.513  -6.308   0.101  0.00  0.00    -0.492 OA
ATOM     24  C   UNL     1       0.011  -6.091  -1.220  0.00  0.00    +0.277 C 
ENDBRANCH  18  23
ENDBRANCH  11  15
BRANCH   1  26
ATOM     25  N   UNL     1       2.928   1.497  -0.868  0.00  0.00    -0.312 N 
ATOM     26  C   UNL     1       3.217   0.375  -0.179  0.00  0.00    +0.218 C 
ATOM     27  O   UNL     1       3.302  -0.687  -0.758  0.00  0.00    -0.275 OA
ATOM     28  H   UNL     1       2.935   2.357  -0.419  0.00  0.00    +0.149 HD
BRANCH  25  30
ATOM     29  C   UNL     1       3.893   1.468  -3.115  0.00  0.00    +0.028 C 
ATOM     30  C   UNL     1       2.603   1.418  -2.294  0.00  0.00    +0.070 C 
BRANCH  30  31
ATOM     31  C   UNL     1       1.707   2.597  -2.679  0.00  0.00    +0.022 C 
BRANCH  31  32
ATOM     32  C   UNL     1       0.383   2.501  -1.918  0.00  0.00    +0.005 C 
BRANCH  32  33
ATOM     33  C   UNL     1      -0.560   3.607  -2.395  0.00  0.00    +0.034 C 
BRANCH  33  34
ATOM     34  C   UNL     1      -1.904   3.476  -1.675  0.00  0.00    +0.061 C 
ATOM     35  C   UNL     1      -2.823   4.624  -2.099  0.00  0.00    +0.041 C 
ATOM     36  C   UNL     1      -2.553   2.141  -2.045  0.00  0.00    +0.041 C 
BRANCH  34  37
ATOM     37  O   UNL     1      -1.696   3.530  -0.263  0.00  0.00    -0.389 OA
ATOM     38  H   UNL     1      -2.496   3.379   0.259  0.00  0.00    +0.210 HD
ENDBRANCH  34  37
ENDBRANCH  33  34
ENDBRANCH  32  33
ENDBRANCH  31  32
ENDBRANCH  30  31
ENDBRANCH  25  30
ENDBRANCH   1  26
TORSDOF 9
