REMARK  Name = ZINC39152425
REMARK  4 active torsions:
REMARK  status: ('A' for Active; 'I' for Inactive)
REMARK    1  A    between atoms: C_9  and  N_12
REMARK    2  A    between atoms: C_13  and  C_15
REMARK    3  A    between atoms: C_15  and  S_16
REMARK    4  A    between atoms: S_16  and  C_17
REMARK                            x       y       z     vdW  Elec       q    Type
REMARK                         _______ _______ _______ _____ _____    ______ ____
ROOT
ATOM      1  N   UNL     1       5.634   1.499  -1.251  0.00  0.00    -0.288 N 
ATOM      2  C   UNL     1       6.857   0.945  -1.374  0.00  0.00    +0.225 C 
ATOM      3  O   UNL     1       7.304   0.257  -0.481  0.00  0.00    -0.275 OA
ATOM      4  H   UNL     1       5.277   2.049  -1.965  0.00  0.00    +0.151 HD
ENDROOT
BRANCH   1  13
ATOM      5  C   UNL     1      -0.017   1.379   0.010  0.00  0.00    +0.017 A 
ATOM      6  C   UNL     1       1.152   2.105   0.002  0.00  0.00    +0.025 A 
ATOM      7  C   UNL     1       2.405   1.469  -0.013  0.00  0.00    +0.043 A 
ATOM      8  C   UNL     1       2.391   0.070  -0.020  0.00  0.00    +0.033 A 
ATOM      9  C   UNL     1       1.224  -0.658  -0.013  0.00  0.00    +0.032 A 
ATOM     10  C   UNL     1       0.002  -0.004   0.002  0.00  0.00    +0.019 A 
ATOM     11 BR   UNL     1      -1.614  -0.987   0.013  0.00  0.00    -0.050 Br
ATOM     12  S   UNL     1       4.103  -0.411  -0.039  0.00  0.00    -0.082 S 
ATOM     13  C   UNL     1       4.846   1.270  -0.037  0.00  0.00    +0.224 C 
ATOM     14  N   UNL     1       3.642   2.112  -0.021  0.00  0.00    -0.316 N 
ATOM     15  H   UNL     1       3.706   3.080  -0.017  0.00  0.00    +0.149 HD
ENDBRANCH   1  13
BRANCH   2  16
ATOM     16  C   UNL     1       7.668   1.181  -2.622  0.00  0.00    +0.171 C 
BRANCH  16  17
ATOM     17  S   UNL     1       9.254   0.310  -2.486  0.00  0.00    -0.094 S 
BRANCH  17  18
ATOM     18  C   UNL     1      10.074   0.679  -4.001  0.00  0.00    +0.126 A 
ATOM     19  N   UNL     1       9.493   1.448  -4.920  0.00  0.00    -0.227 NA
ATOM     20  C   UNL     1      10.102   1.729  -6.058  0.00  0.00    +0.224 A 
ATOM     21  N   UNL     1      11.300   1.274  -6.350  0.00  0.00    -0.214 NA
ATOM     22  C   UNL     1      11.961   0.494  -5.487  0.00  0.00    +0.182 A 
ATOM     23  N   UNL     1      13.163  -0.111  -5.493  0.00  0.00    -0.216 NA
ATOM     24  C   UNL     1      13.330  -0.771  -4.380  0.00  0.00    +0.199 A 
ATOM     25  N   UNL     1      12.243  -0.630  -3.589  0.00  0.00    -0.341 N 
ATOM     26  C   UNL     1      11.351   0.177  -4.263  0.00  0.00    +0.117 A 
ATOM     27  H   UNL     1      12.116  -1.020  -2.710  0.00  0.00    +0.167 HD
ENDBRANCH  17  18
ENDBRANCH  16  17
ENDBRANCH   2  16
TORSDOF 4
