REMARK  Name = ZINC08695761
REMARK  13 active torsions:
REMARK  status: ('A' for Active; 'I' for Inactive)
REMARK    1  A    between atoms: C_1  and  N_2
REMARK    2  A    between atoms: N_2  and  C_3
REMARK    3  A    between atoms: N_2  and  C_4
REMARK    4  A    between atoms: C_7  and  N_10
REMARK    5  A    between atoms: C_11  and  C_13
REMARK    6  A    between atoms: C_13  and  C_15
REMARK    7  A    between atoms: C_13  and  N_22
REMARK    8  A    between atoms: N_22  and  C_23
REMARK    9  A    between atoms: C_23  and  C_24
REMARK   10  A    between atoms: C_27  and  O_30
REMARK   11  A    between atoms: O_30  and  C_31
REMARK   12  A    between atoms: C_32  and  C_34
REMARK   13  A    between atoms: C_34  and  N_35
REMARK                            x       y       z     vdW  Elec       q    Type
REMARK                         _______ _______ _______ _____ _____    ______ ____
ROOT
ATOM      1  N   UNL     1      -4.013  -3.405  -2.087  0.00  0.00    -0.284 N 
ATOM      2  C   UNL     1      -4.371  -2.515  -1.140  0.00  0.00    +0.234 C 
ATOM      3  O   UNL     1      -4.414  -1.333  -1.405  0.00  0.00    -0.274 OA
ENDROOT
BRANCH   1   4
ATOM      4  C   UNL     1      -3.576  -2.937  -3.404  0.00  0.00    +0.166 C 
BRANCH   4   5
ATOM      5  C   UNL     1      -2.340  -2.050  -3.246  0.00  0.00    +0.023 C 
ATOM      6  C   UNL     1      -1.774  -1.702  -4.628  0.00  0.00    +0.010 C 
ATOM      7  C   UNL     1      -0.650  -0.680  -4.449  0.00  0.00    +0.027 C 
ATOM      8  C   UNL     1       0.305  -1.137  -3.386  0.00  0.00    -0.031 C 
ATOM      9  C   UNL     1       0.036  -2.056  -2.515  0.00  0.00    -0.031 C 
ATOM     10  C   UNL     1      -1.267  -2.799  -2.453  0.00  0.00    +0.032 C 
ENDBRANCH   4   5
BRANCH   4  12
ATOM     11  N   UNL     1      -4.578  -1.764  -5.338  0.00  0.00    -0.284 N 
ATOM     12  C   UNL     1      -4.684  -2.145  -4.049  0.00  0.00    +0.238 C 
ATOM     13  O   UNL     1      -5.670  -1.850  -3.409  0.00  0.00    -0.273 OA
ATOM     14  H   UNL     1      -3.826  -2.065  -5.872  0.00  0.00    +0.155 HD
BRANCH  11  18
ATOM     15  C   UNL     1      -7.482   0.707  -7.027  0.00  0.00    +0.029 A 
ATOM     16  C   UNL     1      -6.873  -0.275  -7.797  0.00  0.00    +0.025 A 
ATOM     17  C   UNL     1      -5.912  -1.093  -7.237  0.00  0.00    +0.025 A 
ATOM     18  C   UNL     1      -5.554  -0.934  -5.905  0.00  0.00    +0.034 A 
ATOM     19  C   UNL     1      -6.167   0.045  -5.134  0.00  0.00    +0.025 A 
ATOM     20  C   UNL     1      -7.124   0.867  -5.694  0.00  0.00    +0.025 A 
BRANCH  15  22
ATOM     21  C   UNL     1      -8.833   1.369  -8.999  0.00  0.00    +0.129 C 
ATOM     22  N   UNL     1      -8.456   1.536  -7.594  0.00  0.00    -0.336 N 
ATOM     23  C   UNL     1      -9.098   2.573  -6.782  0.00  0.00    +0.129 C 
ENDBRANCH  15  22
ENDBRANCH  11  18
ENDBRANCH   4  12
ENDBRANCH   1   4
BRANCH   1  24
ATOM     24  C   UNL     1      -4.062  -4.841  -1.798  0.00  0.00    +0.143 C 
BRANCH  24  25
ATOM     25  C   UNL     1      -5.364  -5.410  -2.301  0.00  0.00    -0.030 A 
ATOM     26  C   UNL     1      -6.475  -5.424  -1.478  0.00  0.00    +0.009 A 
ATOM     27  C   UNL     1      -7.670  -5.940  -1.939  0.00  0.00    +0.046 A 
ATOM     28  C   UNL     1      -7.753  -6.455  -3.224  0.00  0.00    +0.120 A 
ATOM     29  C   UNL     1      -6.635  -6.446  -4.046  0.00  0.00    +0.046 A 
ATOM     30  C   UNL     1      -5.443  -5.923  -3.583  0.00  0.00    +0.009 A 
BRANCH  28  31
ATOM     31  O   UNL     1      -8.927  -6.969  -3.678  0.00  0.00    -0.495 OA
ATOM     32  C   UNL     1     -10.036  -6.946  -2.778  0.00  0.00    +0.277 C 
ENDBRANCH  28  31
ENDBRANCH  24  25
ENDBRANCH   1  24
BRANCH   2  33
ATOM     33  C   UNL     1      -4.716  -2.990   0.248  0.00  0.00    +0.210 C 
BRANCH  33  34
ATOM     34  N   UNL     1      -4.932  -1.832   1.120  0.00  0.00    -0.255 N 
ATOM     35  C   UNL     1      -3.930  -1.211   1.861  0.00  0.00    +0.048 A 
ATOM     36  C   UNL     1      -2.575  -1.488   1.986  0.00  0.00    +0.024 A 
ATOM     37  C   UNL     1      -1.779  -0.711   2.807  0.00  0.00    +0.002 A 
ATOM     38  C   UNL     1      -2.319   0.347   3.519  0.00  0.00    +0.001 A 
ATOM     39  C   UNL     1      -3.664   0.637   3.414  0.00  0.00    +0.014 A 
ATOM     40  C   UNL     1      -4.476  -0.140   2.588  0.00  0.00    +0.048 A 
ATOM     41  C   UNL     1      -5.913  -0.099   2.262  0.00  0.00    +0.250 C 
ATOM     42  O   UNL     1      -6.745   0.681   2.677  0.00  0.00    -0.282 OA
ATOM     43  C   UNL     1      -6.121  -1.233   1.302  0.00  0.00    +0.292 C 
ATOM     44  O   UNL     1      -7.172  -1.551   0.785  0.00  0.00    -0.266 OA
ENDBRANCH  33  34
ENDBRANCH   2  33
TORSDOF 10
