REMARK  Name = ZINC49640509
REMARK  7 active torsions:
REMARK  status: ('A' for Active; 'I' for Inactive)
REMARK    1  A    between atoms: C_4  and  C_7
REMARK    2  A    between atoms: C_7  and  N_8
REMARK    3  A    between atoms: N_8  and  C_9
REMARK    4  A    between atoms: C_9  and  C_10
REMARK    5  A    between atoms: C_10  and  N_12
REMARK    6  A    between atoms: C_16  and  C_18
REMARK    7  A    between atoms: C_18  and  C_19
REMARK                            x       y       z     vdW  Elec       q    Type
REMARK                         _______ _______ _______ _____ _____    ______ ____
ROOT
ATOM      1  N   UNL     1       7.029  -2.560   2.967  0.00  0.00    -0.158 NA
ATOM      2  C   UNL     1       7.431  -2.784   4.220  0.00  0.00    +0.163 A 
ATOM      3  N   UNL     1       6.809  -2.442   5.380  0.00  0.00    -0.342 N 
ATOM      4  C   UNL     1       7.397  -2.769   6.561  0.00  0.00    +0.095 A 
ATOM      5  C   UNL     1       8.567  -3.417   6.505  0.00  0.00    +0.013 A 
ATOM      6  S   UNL     1       8.824  -3.563   4.747  0.00  0.00    -0.057 S 
ATOM      7  H   UNL     1       5.960  -1.972   5.365  0.00  0.00    +0.167 HD
ENDROOT
BRANCH   1   8
ATOM      8  C   UNL     1       5.888  -1.923   2.740  0.00  0.00    +0.221 C 
ATOM      9  O   UNL     1       5.208  -1.541   3.673  0.00  0.00    -0.276 OA
BRANCH   8  10
ATOM     10  C   UNL     1       5.435  -1.670   1.325  0.00  0.00    +0.017 C 
BRANCH  10  11
ATOM     11  N   UNL     1       4.153  -0.953   1.342  0.00  0.00    +0.387 N 
ATOM     12  H   UNL     1       4.267  -0.072   1.821  0.00  0.00    -0.085 HD
ATOM     13  H   UNL     1       3.462  -1.510   1.822  0.00  0.00    -0.085 HD
BRANCH  11  14
ATOM     14  C   UNL     1       3.711  -0.707  -0.038  0.00  0.00    -0.046 C 
BRANCH  14  18
ATOM     15  C   UNL     1      -0.017   1.378   0.010  0.00  0.00    +0.000 A 
ATOM     16  C   UNL     1       1.171   2.086   0.002  0.00  0.00    +0.000 A 
ATOM     17  C   UNL     1       2.377   1.411  -0.013  0.00  0.00    +0.002 A 
ATOM     18  C   UNL     1       2.396   0.029  -0.020  0.00  0.00    -0.064 A 
ATOM     19  C   UNL     1       1.208  -0.679  -0.012  0.00  0.00    +0.002 A 
ATOM     20  C   UNL     1       0.002  -0.004   0.002  0.00  0.00    +0.000 A 
ENDBRANCH  14  18
ENDBRANCH  11  14
ENDBRANCH  10  11
ENDBRANCH   8  10
ENDBRANCH   1   8
BRANCH   5  21
ATOM     21  C   UNL     1       9.438  -3.901   7.636  0.00  0.00    +0.080 C 
BRANCH  21  22
ATOM     22  C   UNL     1       9.124  -5.345   7.929  0.00  0.00    -0.024 A 
ATOM     23  C   UNL     1       8.217  -5.668   8.921  0.00  0.00    +0.007 A 
ATOM     24  C   UNL     1       7.929  -6.992   9.190  0.00  0.00    +0.020 A 
ATOM     25  C   UNL     1       8.548  -7.997   8.466  0.00  0.00    +0.042 A 
ATOM     26  C   UNL     1       9.455  -7.674   7.473  0.00  0.00    +0.040 A 
ATOM     27  C   UNL     1       9.740  -6.348   7.201  0.00  0.00    +0.046 A 
ATOM     28 CL   UNL     1      10.873  -5.942   5.950  0.00  0.00    -0.083 Cl
ATOM     29 CL   UNL     1       8.186  -9.660   8.805  0.00  0.00    -0.083 Cl
ENDBRANCH  21  22
ENDBRANCH   5  21
TORSDOF 7
