REMARK  Name = ZINC16321687
REMARK  4 active torsions:
REMARK  status: ('A' for Active; 'I' for Inactive)
REMARK    1  A    between atoms: C_1  and  C_2
REMARK    2  A    between atoms: C_2  and  O_4
REMARK    3  A    between atoms: O_4  and  C_5
REMARK    4  A    between atoms: C_9  and  C_22
REMARK                            x       y       z     vdW  Elec       q    Type
REMARK                         _______ _______ _______ _____ _____    ______ ____
ROOT
ATOM      1  C   UNL     1       4.100   6.782  -1.840  0.00  0.00    +0.402 C 
ATOM      2  C   UNL     1       3.841   5.645  -0.887  0.00  0.00    +0.077 A 
ATOM      3  C   UNL     1       2.624   4.967  -0.913  0.00  0.00    +0.030 A 
ATOM      4  C   UNL     1       2.422   3.938   0.001  0.00  0.00    +0.067 A 
ATOM      5  C   UNL     1       3.447   3.636   0.926  0.00  0.00    +0.345 A 
ATOM      6  O   UNL     1       3.277   2.742   1.737  0.00  0.00    -0.245 OA
ATOM      7  O   UNL     1       4.605   4.309   0.924  0.00  0.00    -0.421 OA
ATOM      8  C   UNL     1       4.809   5.285   0.029  0.00  0.00    +0.153 A 
ATOM      9  C   UNL     1       6.096   6.006  -0.013  0.00  0.00    +0.061 A 
ATOM     10  C   UNL     1       7.010   5.915   1.034  0.00  0.00    +0.035 A 
ATOM     11  C   UNL     1       8.185   6.639   0.977  0.00  0.00    +0.042 A 
ATOM     12  C   UNL     1       8.452   7.451  -0.114  0.00  0.00    +0.023 A 
ATOM     13  C   UNL     1       7.554   7.540  -1.162  0.00  0.00    +0.048 A 
ATOM     14  C   UNL     1       6.376   6.815  -1.125  0.00  0.00    +0.136 A 
ATOM     15  O   UNL     1       5.490   6.871  -2.150  0.00  0.00    -0.449 OA
ATOM     16 CL   UNL     1       9.330   6.534   2.277  0.00  0.00    -0.084 Cl
ENDROOT
BRANCH   4  17
ATOM     17  C   UNL     1       1.153   3.175   0.008  0.00  0.00    -0.011 A 
ATOM     18  C   UNL     1       1.174   1.780   0.000  0.00  0.00    +0.009 A 
ATOM     19  C   UNL     1      -0.013   1.076   0.008  0.00  0.00    +0.001 A 
ATOM     20  C   UNL     1      -1.221   1.750   0.017  0.00  0.00    +0.000 A 
ATOM     21  C   UNL     1      -1.248   3.133   0.031  0.00  0.00    +0.001 A 
ATOM     22  C   UNL     1      -0.069   3.849   0.023  0.00  0.00    +0.009 A 
ENDBRANCH   4  17
BRANCH   1  23
ATOM     23  O   UNL     1       3.665   8.026  -1.230  0.00  0.00    -0.420 OA
BRANCH  23  25
ATOM     24  C   UNL     1       3.190  10.439  -1.456  0.00  0.00    +0.136 C 
ATOM     25  C   UNL     1       3.631   9.112  -2.019  0.00  0.00    +0.307 C 
ATOM     26  O   UNL     1       3.954   9.026  -3.180  0.00  0.00    -0.251 OA
ENDBRANCH  23  25
ENDBRANCH   1  23
TORSDOF 3
