REMARK  Name = ZINC15679542
REMARK  6 active torsions:
REMARK  status: ('A' for Active; 'I' for Inactive)
REMARK    1  A    between atoms: C_1  and  C_2
REMARK    2  A    between atoms: C_2  and  N_65
REMARK    3  A    between atoms: C_8  and  N_25
REMARK    4  A    between atoms: C_9  and  C_10
REMARK    5  A    between atoms: C_10  and  N_11
REMARK    6  A    between atoms: N_14  and  C_15
REMARK                            x       y       z     vdW  Elec       q    Type
REMARK                         _______ _______ _______ _____ _____    ______ ____
ROOT
ATOM      1  C   UNL     1      -8.455  -2.797   3.651  0.00  0.00    -0.074 C 
ATOM      2  C   UNL     1      -7.752  -1.635   2.945  0.00  0.00    +0.018 C 
ATOM      3  C   UNL     1      -8.820  -0.743   2.317  0.00  0.00    -0.034 A 
ATOM      4  C   UNL     1     -10.077  -1.233   2.132  0.00  0.00    -0.021 A 
ATOM      5  S   UNL     1     -10.956   0.119   1.400  0.00  0.00    -0.077 S 
ATOM      6  C   UNL     1      -9.610   1.294   1.370  0.00  0.00    +0.089 A 
ATOM      7  C   UNL     1      -8.594   0.570   1.912  0.00  0.00    +0.004 A 
ATOM      8  C   UNL     1     -10.565  -2.601   2.478  0.00  0.00    -0.035 C 
ATOM      9  N   UNL     1      -9.378  -3.461   2.708  0.00  0.00    +0.383 N 
ATOM     10  H   UNL     1      -8.895  -3.609   1.815  0.00  0.00    -0.081 HD
ENDROOT
BRANCH   6  11
ATOM     11  N   UNL     1      -9.602   2.615   0.908  0.00  0.00    -0.317 N 
ATOM     12  C   UNL     1     -10.539   3.565   1.197  0.00  0.00    +0.092 A 
ATOM     13  C   UNL     1     -10.187   4.708   0.574  0.00  0.00    +0.019 A 
ATOM     14  C   UNL     1      -8.996   4.454  -0.135  0.00  0.00    +0.019 A 
ATOM     15  C   UNL     1      -8.661   3.166   0.087  0.00  0.00    +0.092 A 
ENDBRANCH   6  11
BRANCH   9  17
ATOM     16  C   UNL     1     -10.567  -5.532   2.166  0.00  0.00    -0.017 C 
ATOM     17  C   UNL     1      -9.800  -4.771   3.250  0.00  0.00    -0.082 C 
ENDBRANCH   9  17
BRANCH   7  18
ATOM     18  C   UNL     1      -7.230   1.189   2.079  0.00  0.00    +0.144 C 
BRANCH  18  19
ATOM     19  N   UNL     1      -6.388   0.831   0.935  0.00  0.00    -0.295 N 
ATOM     20  C   UNL     1      -5.117   1.276   0.868  0.00  0.00    +0.300 C 
ATOM     21  O   UNL     1      -4.670   1.974   1.757  0.00  0.00    -0.253 OA
ATOM     22  N   UNL     1      -4.343   0.946  -0.184  0.00  0.00    -0.294 N 
ATOM     23  H   UNL     1      -6.745   0.274   0.225  0.00  0.00    +0.151 HD
ATOM     24  H   UNL     1      -4.700   0.389  -0.894  0.00  0.00    +0.151 HD
BRANCH  22  25
ATOM     25  C   UNL     1      -2.962   1.430  -0.257  0.00  0.00    +0.037 C 
ATOM     26  C   UNL     1      -2.309   0.916  -1.542  0.00  0.00    +0.029 C 
ATOM     27  C   UNL     1      -0.866   1.421  -1.618  0.00  0.00    -0.008 C 
ATOM     28  C   UNL     1      -0.083   0.909  -0.408  0.00  0.00    +0.007 C 
ATOM     29  C   UNL     1      -0.736   1.423   0.877  0.00  0.00    -0.008 C 
ATOM     30  C   UNL     1      -2.178   0.918   0.953  0.00  0.00    +0.029 C 
ATOM     31  C   UNL     1      -0.730   2.953   0.876  0.00  0.00    +0.007 C 
ATOM     32  C   UNL     1      -1.514   3.464  -0.335  0.00  0.00    -0.008 C 
ATOM     33  C   UNL     1      -0.861   2.951  -1.619  0.00  0.00    +0.007 C 
ATOM     34  C   UNL     1      -2.956   2.960  -0.259  0.00  0.00    +0.029 C 
ENDBRANCH  22  25
ENDBRANCH  18  19
ENDBRANCH   7  18
TORSDOF 5
