REMARK  Name = ZINC13961444
REMARK  6 active torsions:
REMARK  status: ('A' for Active; 'I' for Inactive)
REMARK    1  A    between atoms: C_3  and  C_6
REMARK    2  A    between atoms: C_8  and  C_27
REMARK    3  A    between atoms: C_13  and  C_15
REMARK    4  A    between atoms: N_17  and  C_18
REMARK    5  A    between atoms: C_18  and  C_19
REMARK    6  A    between atoms: C_19  and  C_20
REMARK                            x       y       z     vdW  Elec       q    Type
REMARK                         _______ _______ _______ _____ _____    ______ ____
ROOT
ATOM      1  C   UNL     1       0.913   5.128   0.019  0.00  0.00    +0.082 A 
ATOM      2  C   UNL     1       2.305   5.390   0.013  0.00  0.00    +0.061 A 
ATOM      3  C   UNL     1       2.738   6.668   0.010  0.00  0.00    +0.149 A 
ATOM      4  N   UNL     1       1.821   7.687   0.022  0.00  0.00    -0.208 N 
ATOM      5  C   UNL     1       0.478   7.400   0.033  0.00  0.00    +0.176 A 
ATOM      6  N   UNL     1       0.051   6.131   0.031  0.00  0.00    -0.226 NA
ATOM      7  C   UNL     1      -0.199   8.612   0.045  0.00  0.00    +0.117 A 
ATOM      8  C   UNL     1       0.761   9.632   0.041  0.00  0.00    +0.168 A 
ATOM      9  N   UNL     1       1.964   9.079   0.028  0.00  0.00    -0.158 NA
ATOM     10 CL   UNL     1      -1.921   8.825   0.061  0.00  0.00    -0.077 Cl
ENDROOT
BRANCH   1  13
ATOM     11  C   UNL     1      -1.081   1.916   0.017  0.00  0.00    +0.008 A 
ATOM     12  C   UNL     1      -0.867   3.274   0.026  0.00  0.00    +0.017 A 
ATOM     13  C   UNL     1       0.425   3.737   0.017  0.00  0.00    +0.038 A 
ATOM     14  S   UNL     1       1.361   2.217   0.001  0.00  0.00    -0.095 S 
ATOM     15  C   UNL     1      -0.013   1.076   0.008  0.00  0.00    +0.046 A 
ENDBRANCH   1  13
BRANCH   8  16
ATOM     16  C   UNL     1       0.478  11.082   0.050  0.00  0.00    +0.266 C 
ATOM     17  O   UNL     1      -0.672  11.477   0.062  0.00  0.00    -0.268 OA
ATOM     18  N   UNL     1       1.494  11.967   0.045  0.00  0.00    -0.310 N 
ATOM     19  H   UNL     1       2.412  11.652   0.035  0.00  0.00    +0.149 HD
BRANCH  18  20
ATOM     20  C   UNL     1       1.214  13.405   0.054  0.00  0.00    +0.111 C 
BRANCH  20  21
ATOM     21  C   UNL     1       2.532  14.182   0.046  0.00  0.00    +0.075 C 
BRANCH  21  22
ATOM     22  C   UNL     1       2.243  15.661   0.056  0.00  0.00    +0.060 A 
ATOM     23  C   UNL     1       2.713  16.553   0.948  0.00  0.00    +0.107 A 
ATOM     24  N   UNL     1       2.210  17.774   0.590  0.00  0.00    -0.351 N 
ATOM     25  H   UNL     1       2.375  18.644   1.055  0.00  0.00    +0.166 HD
ATOM     26  C   UNL     1       1.450  17.586  -0.510  0.00  0.00    +0.196 A 
ATOM     27  N   UNL     1       1.478  16.320  -0.827  0.00  0.00    -0.241 NA
ENDBRANCH  21  22
ENDBRANCH  20  21
ENDBRANCH  18  20
ENDBRANCH   8  16
BRANCH   3  28
ATOM     28  C   UNL     1       4.214   6.973  -0.002  0.00  0.00    +0.434 C 
ATOM     29  F   UNL     1       4.682   7.061   1.313  0.00  0.00    -0.164 F 
ATOM     30  F   UNL     1       4.895   5.951  -0.672  0.00  0.00    -0.164 F 
ATOM     31  F   UNL     1       4.434   8.188  -0.658  0.00  0.00    -0.164 F 
ENDBRANCH   3  28
TORSDOF 6
