REMARK  Name = ZINC58937495
REMARK  6 active torsions:
REMARK  status: ('A' for Active; 'I' for Inactive)
REMARK    1  A    between atoms: C_1  and  C_2
REMARK    2  A    between atoms: C_6  and  C_11
REMARK    3  A    between atoms: C_7  and  N_8
REMARK    4  A    between atoms: C_11  and  O_13
REMARK    5  A    between atoms: O_13  and  C_14
REMARK    6  A    between atoms: C_14  and  C_15
REMARK                            x       y       z     vdW  Elec       q    Type
REMARK                         _______ _______ _______ _____ _____    ______ ____
ROOT
ATOM      1  C   UNL     1      -0.018   1.503   0.010  0.00  0.00    +0.046 C 
ATOM      2  C   UNL     1       0.002  -0.004   0.002  0.00  0.00    -0.019 A 
ATOM      3  C   UNL     1       0.006  -0.688  -1.201  0.00  0.00    +0.005 A 
ATOM      4  C   UNL     1       0.024  -2.071  -1.218  0.00  0.00    +0.001 A 
ATOM      5  C   UNL     1       0.039  -2.778  -0.033  0.00  0.00    +0.017 A 
ATOM      6  C   UNL     1       0.036  -2.095   1.184  0.00  0.00    +0.089 A 
ATOM      7  C   UNL     1       0.023  -0.699   1.194  0.00  0.00    +0.143 A 
ENDROOT
BRANCH   7   8
ATOM      8  N   UNL     1       0.025   0.035   2.479  0.00  0.00    +0.058 N 
ATOM      9  O   UNL     1      -1.021   0.320   3.014  0.00  0.00    -0.126 OA
ATOM     10  O   UNL     1       1.073   0.348   2.995  0.00  0.00    -0.126 OA
ENDBRANCH   7   8
BRANCH   6  11
ATOM     11  C   UNL     1       0.051  -2.845   2.456  0.00  0.00    +0.342 C 
ATOM     12  O   UNL     1       0.048  -2.248   3.514  0.00  0.00    -0.245 OA
BRANCH  11  13
ATOM     13  O   UNL     1       0.069  -4.192   2.443  0.00  0.00    -0.456 OA
BRANCH  13  14
ATOM     14  C   UNL     1       0.084  -4.853   3.711  0.00  0.00    +0.268 C 
BRANCH  14  15
ATOM     15  C   UNL     1       0.102  -6.345   3.499  0.00  0.00    -0.002 A 
ATOM     16  C   UNL     1      -1.080  -7.054   3.401  0.00  0.00    +0.030 A 
ATOM     17  C   UNL     1      -1.028  -8.396   3.210  0.00  0.00    +0.055 A 
ATOM     18  S   UNL     1       0.732  -8.694   3.165  0.00  0.00    -0.089 S 
ATOM     19  C   UNL     1       1.278  -7.010   3.397  0.00  0.00    +0.053 A 
ATOM     20 BR   UNL     1      -2.449  -9.632   3.039  0.00  0.00    -0.043 Br
ENDBRANCH  14  15
ENDBRANCH  13  14
ENDBRANCH  11  13
ENDBRANCH   6  11
TORSDOF 5
