REMARK  Name = ZINC35532273
REMARK  6 active torsions:
REMARK  status: ('A' for Active; 'I' for Inactive)
REMARK    1  A    between atoms: C_1  and  C_2
REMARK    2  A    between atoms: C_5  and  C_7
REMARK    3  A    between atoms: C_13  and  S_24
REMARK    4  A    between atoms: S_24  and  C_25
REMARK    5  A    between atoms: C_25  and  C_26
REMARK    6  A    between atoms: C_29  and  N_32
REMARK                            x       y       z     vdW  Elec       q    Type
REMARK                         _______ _______ _______ _____ _____    ______ ____
ROOT
ATOM      1  C   UNL     1       1.043  -4.062  -0.027  0.00  0.00    +0.099 C 
ATOM      2  C   UNL     1       1.858  -4.268  -1.270  0.00  0.00    +0.069 A 
ATOM      3  C   UNL     1       1.220  -4.491  -2.509  0.00  0.00    +0.280 A 
ATOM      4  O   UNL     1      -0.001  -4.520  -2.576  0.00  0.00    -0.265 OA
ATOM      5  N   UNL     1       1.960  -4.670  -3.614  0.00  0.00    -0.185 NA
ATOM      6  C   UNL     1       3.276  -4.641  -3.559  0.00  0.00    +0.172 A 
ATOM      7  N   UNL     1       3.928  -4.432  -2.381  0.00  0.00    -0.322 N 
ATOM      8  C   UNL     1       3.217  -4.247  -1.225  0.00  0.00    +0.112 A 
ATOM      9  N   UNL     1       3.867  -4.045  -0.030  0.00  0.00    -0.304 N 
ATOM     10  C   UNL     1       3.221  -4.259   1.158  0.00  0.00    +0.017 C 
ATOM     11  C   UNL     1       1.873  -4.284   1.212  0.00  0.00    +0.024 C 
ATOM     12  C   UNL     1       1.203  -4.520   2.425  0.00  0.00    +0.162 C 
ATOM     13  O   UNL     1      -0.013  -4.528   2.441  0.00  0.00    -0.292 OA
ATOM     14  C   UNL     1       1.960  -4.763   3.701  0.00  0.00    +0.080 C 
ATOM     15  C   UNL     1       3.317  -5.390   3.366  0.00  0.00    +0.014 C 
ATOM     16  C   UNL     1       4.052  -4.462   2.401  0.00  0.00    +0.051 C 
ATOM     17  H   UNL     1       4.790  -3.750  -0.028  0.00  0.00    +0.153 HD
ATOM     18  H   UNL     1       4.898  -4.414  -2.362  0.00  0.00    +0.169 HD
ENDROOT
BRANCH   1  23
ATOM     19  C   UNL     1      -0.018   1.503   0.010  0.00  0.00    +0.051 C 
ATOM     20  C   UNL     1       0.002  -0.004   0.002  0.00  0.00    -0.013 A 
ATOM     21  C   UNL     1      -1.039  -0.872   0.002  0.00  0.00    +0.011 A 
ATOM     22  C   UNL     1      -0.780  -2.230  -0.007  0.00  0.00    +0.012 A 
ATOM     23  C   UNL     1       0.507  -2.653  -0.016  0.00  0.00    +0.002 A 
ATOM     24  S   UNL     1       1.404  -1.109  -0.018  0.00  0.00    -0.097 S 
ENDBRANCH   1  23
BRANCH   6  25
ATOM     25  S   UNL     1       4.208  -4.879  -5.035  0.00  0.00    -0.083 S 
BRANCH  25  26
ATOM     26  C   UNL     1       2.948  -5.114  -6.318  0.00  0.00    +0.112 C 
BRANCH  26  27
ATOM     27  C   UNL     1       3.620  -5.331  -7.649  0.00  0.00    -0.037 A 
ATOM     28  C   UNL     1       3.917  -4.250  -8.457  0.00  0.00    +0.007 A 
ATOM     29  C   UNL     1       4.533  -4.448  -9.678  0.00  0.00    +0.033 A 
ATOM     30  C   UNL     1       4.854  -5.728 -10.091  0.00  0.00    +0.126 A 
ATOM     31  C   UNL     1       4.558  -6.809  -9.282  0.00  0.00    +0.033 A 
ATOM     32  C   UNL     1       3.945  -6.610  -8.059  0.00  0.00    +0.007 A 
BRANCH  30  33
ATOM     33  N   UNL     1       5.513  -5.941 -11.399  0.00  0.00    +0.056 N 
ATOM     34  O   UNL     1       5.771  -4.995 -12.107  0.00  0.00    -0.126 OA
ATOM     35  O   UNL     1       5.793  -7.060 -11.760  0.00  0.00    -0.126 OA
ENDBRANCH  30  33
ENDBRANCH  26  27
ENDBRANCH  25  26
ENDBRANCH   6  25
TORSDOF 5
