REMARK  Name = ZINC20208339
REMARK  11 active torsions:
REMARK  status: ('A' for Active; 'I' for Inactive)
REMARK    1  A    between atoms: C_1  and  C_2
REMARK    2  A    between atoms: C_2  and  S_3
REMARK    3  A    between atoms: S_3  and  C_6
REMARK    4  A    between atoms: C_12  and  C_13
REMARK    5  A    between atoms: C_16  and  O_19
REMARK    6  A    between atoms: O_19  and  C_20
REMARK    7  A    between atoms: C_20  and  C_21
REMARK    8  A    between atoms: C_21  and  O_22
REMARK    9  A    between atoms: O_22  and  C_23
REMARK   10  A    between atoms: C_25  and  C_30
REMARK   11  A    between atoms: C_27  and  C_29
REMARK                            x       y       z     vdW  Elec       q    Type
REMARK                         _______ _______ _______ _____ _____    ______ ____
ROOT
ATOM      1  C   UNL     1      -4.560 -10.821   2.662  0.00  0.00    +0.235 C 
ATOM      2  N   UNL     1      -4.525  -9.799   1.856  0.00  0.00    -0.145 NA
ATOM      3  N   UNL     1      -3.333  -9.328   1.350  0.00  0.00    -0.150 N 
ATOM      4  C   UNL     1      -3.174  -8.179   0.545  0.00  0.00    +0.153 C 
ATOM      5  N   UNL     1      -4.037  -7.198   0.516  0.00  0.00    -0.283 NA
ATOM      6  C   UNL     1      -1.926  -8.196  -0.269  0.00  0.00    +0.081 C 
ATOM      7  C   UNL     1      -1.866  -7.619  -1.518  0.00  0.00    +0.024 C 
ATOM      8  C   UNL     1      -0.750  -8.868   0.338  0.00  0.00    +0.273 C 
ATOM      9  O   UNL     1       0.385  -8.567   0.008  0.00  0.00    -0.268 OA
ATOM     10  N   UNL     1      -0.974  -9.820   1.265  0.00  0.00    -0.152 NA
ATOM     11  C   UNL     1      -2.195 -10.029   1.688  0.00  0.00    +0.182 C 
ATOM     12  S   UNL     1      -2.831 -11.252   2.804  0.00  0.00    -0.015 S 
ATOM     13  H   UNL     1      -4.868  -7.269   1.010  0.00  0.00    +0.188 HD
ENDROOT
BRANCH   7  14
ATOM     14  C   UNL     1      -3.089  -7.127  -2.156  0.00  0.00    -0.024 A 
ATOM     15  C   UNL     1      -3.052  -5.977  -2.957  0.00  0.00    +0.011 A 
ATOM     16  C   UNL     1      -4.196  -5.523  -3.550  0.00  0.00    +0.046 A 
ATOM     17  C   UNL     1      -5.396  -6.200  -3.361  0.00  0.00    +0.121 A 
ATOM     18  C   UNL     1      -5.440  -7.341  -2.567  0.00  0.00    +0.046 A 
ATOM     19  C   UNL     1      -4.301  -7.808  -1.974  0.00  0.00    +0.011 A 
BRANCH  17  20
ATOM     20  O   UNL     1      -6.529  -5.744  -3.952  0.00  0.00    -0.489 OA
BRANCH  20  21
ATOM     21  C   UNL     1      -7.728  -6.486  -3.716  0.00  0.00    +0.270 C 
BRANCH  21  22
ATOM     22  C   UNL     1      -8.891  -5.825  -4.458  0.00  0.00    +0.270 C 
BRANCH  22  23
ATOM     23  O   UNL     1      -8.666  -5.909  -5.867  0.00  0.00    -0.489 OA
BRANCH  23  24
ATOM     24  C   UNL     1      -9.612  -5.365  -6.676  0.00  0.00    +0.121 A 
ATOM     25  C   UNL     1     -10.732  -4.759  -6.126  0.00  0.00    +0.049 A 
ATOM     26  C   UNL     1     -11.693  -4.207  -6.951  0.00  0.00    -0.047 A 
ATOM     27  C   UNL     1     -11.539  -4.258  -8.324  0.00  0.00    +0.007 A 
ATOM     28  C   UNL     1     -10.424  -4.862  -8.875  0.00  0.00    -0.047 A 
ATOM     29  C   UNL     1      -9.458  -5.411  -8.054  0.00  0.00    +0.049 A 
ATOM     30  C   UNL     1     -10.260  -4.918 -10.372  0.00  0.00    +0.044 C 
ATOM     31  C   UNL     1     -12.910  -3.548  -6.354  0.00  0.00    +0.044 C 
ENDBRANCH  23  24
ENDBRANCH  22  23
ENDBRANCH  21  22
ENDBRANCH  20  21
ENDBRANCH  17  20
ENDBRANCH   7  14
BRANCH   1  32
ATOM     32  S   UNL     1      -5.955 -11.581   3.425  0.00  0.00    +0.022 S 
ATOM     33  O   UNL     1      -6.973 -10.589   3.389  0.00  0.00    -0.167 OA
ATOM     34  O   UNL     1      -5.467 -12.073   4.665  0.00  0.00    -0.167 OA
BRANCH  32  36
ATOM     35  C   UNL     1      -7.602 -13.701   2.902  0.00  0.00    +0.028 C 
ATOM     36  C   UNL     1      -6.390 -12.962   2.332  0.00  0.00    +0.171 C 
ENDBRANCH  32  36
ENDBRANCH   1  32
TORSDOF 8
