REMARK  Name = ZINC67519942
REMARK  6 active torsions:
REMARK  status: ('A' for Active; 'I' for Inactive)
REMARK    1  A    between atoms: C_1  and  C_2
REMARK    2  A    between atoms: C_2  and  O_3
REMARK    3  A    between atoms: O_3  and  C_4
REMARK    4  A    between atoms: C_11  and  C_13
REMARK    5  A    between atoms: C_14  and  C_15
REMARK    6  A    between atoms: C_18  and  C_21
REMARK                            x       y       z     vdW  Elec       q    Type
REMARK                         _______ _______ _______ _____ _____    ______ ____
ROOT
ATOM      1  C   UNL     1      -1.432  -1.921   0.011  0.00  0.00    +0.136 C 
ATOM      2  C   UNL     1      -2.716  -2.345  -0.704  0.00  0.00    +0.035 C 
ATOM      3  C   UNL     1      -2.798  -3.873  -0.745  0.00  0.00    +0.021 C 
ATOM      4  C   UNL     1      -2.839  -4.417   0.687  0.00  0.00    +0.108 C 
ATOM      5  N   UNL     1      -1.681  -3.894   1.424  0.00  0.00    -0.296 N 
ATOM      6  C   UNL     1      -1.456  -2.442   1.451  0.00  0.00    +0.139 C 
ATOM      7  C   UNL     1      -0.840  -4.730   2.065  0.00  0.00    +0.240 C 
ATOM      8  O   UNL     1       0.167  -4.295   2.591  0.00  0.00    -0.271 OA
ENDROOT
BRANCH   7   9
ATOM      9  C   UNL     1      -1.138  -6.162   2.127  0.00  0.00    +0.068 C 
ATOM     10  C   UNL     1      -0.352  -6.984   2.851  0.00  0.00    +0.013 C 
BRANCH  10  11
ATOM     11  C   UNL     1      -0.652  -8.424   2.913  0.00  0.00    -0.025 A 
ATOM     12  C   UNL     1      -1.748  -8.944   2.218  0.00  0.00    +0.008 A 
ATOM     13  C   UNL     1      -2.022 -10.294   2.282  0.00  0.00    +0.004 A 
ATOM     14  C   UNL     1      -1.216 -11.133   3.031  0.00  0.00    -0.050 A 
ATOM     15  C   UNL     1      -0.130 -10.626   3.722  0.00  0.00    +0.004 A 
ATOM     16  C   UNL     1       0.161  -9.279   3.664  0.00  0.00    +0.008 A 
ATOM     17  C   UNL     1      -1.524 -12.607   3.095  0.00  0.00    +0.044 C 
ENDBRANCH  10  11
ENDBRANCH   7   9
BRANCH   1  18
ATOM     18  O   UNL     1      -1.341  -0.494   0.021  0.00  0.00    -0.375 OA
BRANCH  18  20
ATOM     19  C   UNL     1      -0.025   1.533   0.029  0.00  0.00    +0.034 C 
ATOM     20  C   UNL     1      -0.001   0.003   0.017  0.00  0.00    +0.157 C 
ENDBRANCH  18  20
ENDBRANCH   1  18
TORSDOF 4
