REMARK  Name = ZINC14808498
REMARK  4 active torsions:
REMARK  status: ('A' for Active; 'I' for Inactive)
REMARK    1  A    between atoms: N_7  and  S_16
REMARK    2  A    between atoms: C_9  and  C_12
REMARK    3  A    between atoms: N_14  and  O_15
REMARK    4  A    between atoms: S_16  and  C_19
REMARK                            x       y       z     vdW  Elec       q    Type
REMARK                         _______ _______ _______ _____ _____    ______ ____
ROOT
ATOM      1  C   UNL     1      -0.103   1.289   0.597  0.00  0.00    +0.002 A 
ATOM      2  C   UNL     1       1.058   2.039   0.586  0.00  0.00    +0.004 A 
ATOM      3  C   UNL     1       2.281   1.428   0.376  0.00  0.00    +0.047 A 
ATOM      4  C   UNL     1       2.347   0.058   0.174  0.00  0.00    +0.144 A 
ATOM      5  C   UNL     1       1.176  -0.695   0.183  0.00  0.00    +0.093 A 
ATOM      6  C   UNL     1      -0.047  -0.078   0.396  0.00  0.00    +0.028 A 
ATOM      7  N   UNL     1       1.237  -2.082  -0.028  0.00  0.00    -0.195 N 
ATOM      8  C   UNL     1       2.557  -2.730   0.059  0.00  0.00    +0.184 C 
ATOM      9  C   UNL     1       3.568  -1.820  -0.654  0.00  0.00    +0.257 C 
ATOM     10  O   UNL     1       3.554  -0.535  -0.027  0.00  0.00    -0.478 OA
ENDROOT
BRANCH   9  11
ATOM     11  C   UNL     1       4.947  -2.420  -0.551  0.00  0.00    +0.141 C 
ATOM     12  N   UNL     1       5.439  -2.715   0.608  0.00  0.00    -0.384 N 
ATOM     13  N   UNL     1       5.679  -2.652  -1.685  0.00  0.00    -0.253 N 
ATOM     14  H   UNL     1       6.326  -3.101   0.674  0.00  0.00    +0.157 HD
ATOM     15  H   UNL     1       5.310  -2.431  -2.555  0.00  0.00    +0.195 HD
ATOM     16  H   UNL     1       4.921  -2.550   1.411  0.00  0.00    +0.157 HD
BRANCH  13  17
ATOM     17  O   UNL     1       6.974  -3.216  -1.589  0.00  0.00    -0.288 OA
ATOM     18  H   UNL     1       7.412  -3.343  -2.442  0.00  0.00    +0.244 HD
ENDBRANCH  13  17
ENDBRANCH   9  11
BRANCH   7  19
ATOM     19  S   UNL     1      -0.127  -2.958  -0.363  0.00  0.00    +0.075 S 
ATOM     20  O   UNL     1      -1.028  -2.074  -1.015  0.00  0.00    -0.150 OA
ATOM     21  O   UNL     1       0.307  -4.176  -0.953  0.00  0.00    -0.150 OA
BRANCH  19  22
ATOM     22  C   UNL     1      -0.866  -3.382   1.180  0.00  0.00    +0.109 A 
ATOM     23  C   UNL     1      -0.509  -4.556   1.817  0.00  0.00    +0.030 A 
ATOM     24  C   UNL     1      -1.088  -4.889   3.027  0.00  0.00    +0.022 A 
ATOM     25  C   UNL     1      -2.024  -4.047   3.601  0.00  0.00    +0.041 A 
ATOM     26  C   UNL     1      -2.381  -2.873   2.962  0.00  0.00    +0.022 A 
ATOM     27  C   UNL     1      -1.797  -2.538   1.755  0.00  0.00    +0.030 A 
ATOM     28 CL   UNL     1      -2.752  -4.465   5.120  0.00  0.00    -0.084 Cl
ENDBRANCH  19  22
ENDBRANCH   7  19
TORSDOF 4
