REMARK  Name = ZINC05252735
REMARK  4 active torsions:
REMARK  status: ('A' for Active; 'I' for Inactive)
REMARK    1  A    between atoms: C_1  and  C_2
REMARK    2  A    between atoms: C_7  and  N_8
REMARK    3  A    between atoms: N_8  and  S_9
REMARK    4  A    between atoms: S_9  and  C_12
REMARK                            x       y       z     vdW  Elec       q    Type
REMARK                         _______ _______ _______ _____ _____    ______ ____
ROOT
ATOM      1  S   UNL     1       3.944   2.416   0.004  0.00  0.00    +0.072 S 
ATOM      2  O   UNL     1       3.724   3.726   0.510  0.00  0.00    -0.150 OA
ATOM      3  O   UNL     1       4.927   1.545   0.546  0.00  0.00    -0.150 OA
ENDROOT
BRANCH   1   4
ATOM      4  C   UNL     1       2.404   1.568   0.115  0.00  0.00    +0.111 A 
ATOM      5  C   UNL     1       1.221   2.287   0.141  0.00  0.00    +0.031 A 
ATOM      6  C   UNL     1       0.009   1.631   0.228  0.00  0.00    +0.030 A 
ATOM      7  C   UNL     1      -0.024   0.246   0.290  0.00  0.00    +0.067 A 
ATOM      8  C   UNL     1       1.169  -0.479   0.264  0.00  0.00    +0.069 A 
ATOM      9  C   UNL     1       2.381   0.188   0.176  0.00  0.00    +0.056 A 
ATOM     10  N   UNL     1       0.823  -1.826   0.339  0.00  0.00    -0.306 N 
ATOM     11  H   UNL     1       1.443  -2.572   0.342  0.00  0.00    +0.170 HD
ATOM     12  C   UNL     1      -0.519  -1.916   0.408  0.00  0.00    +0.325 A 
ATOM     13  O   UNL     1      -1.149  -2.955   0.484  0.00  0.00    -0.247 OA
ATOM     14  N   UNL     1      -1.058  -0.683   0.381  0.00  0.00    -0.306 N 
ATOM     15  H   UNL     1      -2.005  -0.476   0.418  0.00  0.00    +0.170 HD
ENDBRANCH   1   4
BRANCH   1  16
ATOM     16  N   UNL     1       4.295   2.583  -1.606  0.00  0.00    -0.216 N 
ATOM     17  H   UNL     1       5.103   2.188  -1.969  0.00  0.00    +0.174 HD
BRANCH  16  24
ATOM     18  C   UNL     1       3.972   1.683  -4.285  0.00  0.00    +0.046 C 
ATOM     19  C   UNL     1       3.241   2.890  -3.755  0.00  0.00    -0.027 A 
ATOM     20  C   UNL     1       2.379   3.591  -4.575  0.00  0.00    +0.020 A 
ATOM     21  C   UNL     1       1.712   4.702  -4.092  0.00  0.00    +0.018 A 
ATOM     22  C   UNL     1       1.902   5.111  -2.784  0.00  0.00    +0.017 A 
ATOM     23  C   UNL     1       2.758   4.411  -1.957  0.00  0.00    +0.026 A 
ATOM     24  C   UNL     1       3.429   3.294  -2.440  0.00  0.00    +0.051 A 
ATOM     25 BR   UNL     1       0.539   5.665  -5.221  0.00  0.00    -0.050 Br
ENDBRANCH  16  24
ENDBRANCH   1  16
TORSDOF 3
