REMARK  Name = ZINC38613042
REMARK  4 active torsions:
REMARK  status: ('A' for Active; 'I' for Inactive)
REMARK    1  A    between atoms: C_1  and  O_2
REMARK    2  A    between atoms: O_2  and  C_3
REMARK    3  A    between atoms: C_7  and  C_9
REMARK    4  A    between atoms: C_27  and  C_28
REMARK                            x       y       z     vdW  Elec       q    Type
REMARK                         _______ _______ _______ _____ _____    ______ ____
ROOT
ATOM      1  C   UNL     1       1.325  -4.106  -2.289  0.00  0.00    +0.151 C 
ATOM      2  C   UNL     1       2.661  -4.552  -1.744  0.00  0.00    -0.016 C 
ATOM      3  C   UNL     1       3.461  -5.292  -2.531  0.00  0.00    +0.076 C 
ATOM      4  C   UNL     1       4.766  -5.762  -2.001  0.00  0.00    +0.004 A 
ATOM      5  C   UNL     1       5.752  -6.238  -2.860  0.00  0.00    +0.010 A 
ATOM      6  C   UNL     1       6.964  -6.653  -2.346  0.00  0.00    +0.001 A 
ATOM      7  C   UNL     1       7.197  -6.595  -0.983  0.00  0.00    +0.000 A 
ATOM      8  C   UNL     1       6.216  -6.130  -0.125  0.00  0.00    +0.004 A 
ATOM      9  C   UNL     1       4.998  -5.721  -0.628  0.00  0.00    -0.038 A 
ATOM     10  C   UNL     1       3.907  -5.254   0.299  0.00  0.00    +0.040 C 
ATOM     11  C   UNL     1       3.091  -4.147  -0.362  0.00  0.00    +0.040 C 
ATOM     12  N   UNL     1       3.080  -5.608  -3.796  0.00  0.00    -0.223 NA
ATOM     13  C   UNL     1       1.955  -5.251  -4.334  0.00  0.00    +0.178 A 
ATOM     14  N   UNL     1       0.994  -4.500  -3.687  0.00  0.00    -0.275 N 
ATOM     15  C   UNL     1      -0.131  -4.194  -4.346  0.00  0.00    +0.268 A 
ATOM     16  O   UNL     1      -1.008  -3.537  -3.819  0.00  0.00    -0.266 OA
ATOM     17  C   UNL     1      -0.271  -4.679  -5.735  0.00  0.00    +0.080 A 
ATOM     18  C   UNL     1      -1.314  -4.505  -6.625  0.00  0.00    +0.026 C 
ATOM     19  S   UNL     1       1.270  -5.552  -5.952  0.00  0.00    -0.046 S 
ENDROOT
BRANCH  18  20
ATOM     20  C   UNL     1      -1.238  -5.056  -7.904  0.00  0.00    -0.018 C 
ATOM     21  C   UNL     1      -2.194  -4.970  -8.918  0.00  0.00    +0.003 A 
ATOM     22  C   UNL     1      -3.457  -4.347  -8.989  0.00  0.00    +0.010 A 
ATOM     23  C   UNL     1      -4.186  -4.428 -10.131  0.00  0.00    +0.001 A 
ATOM     24  C   UNL     1      -3.717  -5.119 -11.252  0.00  0.00    +0.002 A 
ATOM     25  C   UNL     1      -2.514  -5.742 -11.256  0.00  0.00    +0.026 A 
ATOM     26  C   UNL     1      -1.693  -5.700 -10.097  0.00  0.00    +0.043 A 
ATOM     27  N   UNL     1      -0.507  -6.213  -9.851  0.00  0.00    -0.380 N 
ATOM     28  C   UNL     1      -0.102  -5.868  -8.485  0.00  0.00    +0.149 C 
ATOM     29  H   UNL     1       0.019  -6.736 -10.476  0.00  0.00    +0.160 HD
ENDBRANCH  18  20
BRANCH   1  34
ATOM     30  C   UNL     1       0.606  -0.607  -1.056  0.00  0.00    +0.120 A 
ATOM     31  C   UNL     1       1.173   0.161  -2.063  0.00  0.00    +0.045 A 
ATOM     32  C   UNL     1       1.786  -0.455  -3.136  0.00  0.00    +0.004 A 
ATOM     33  C   UNL     1       1.836  -1.835  -3.208  0.00  0.00    +0.006 A 
ATOM     34  C   UNL     1       1.271  -2.602  -2.207  0.00  0.00    -0.017 A 
ATOM     35  C   UNL     1       0.661  -1.991  -1.128  0.00  0.00    +0.051 A 
BRANCH  30  37
ATOM     36  C   UNL     1      -0.017   1.425   0.010  0.00  0.00    +0.277 C 
ATOM     37  O   UNL     1       0.002  -0.004   0.002  0.00  0.00    -0.495 OA
ENDBRANCH  30  37
ENDBRANCH   1  34
TORSDOF 3
