REMARK  Name = ZINC22786979
REMARK  14 active torsions:
REMARK  status: ('A' for Active; 'I' for Inactive)
REMARK    1  A    between atoms: C_1  and  O_2
REMARK    2  A    between atoms: O_2  and  C_3
REMARK    3  A    between atoms: C_6  and  C_9
REMARK    4  A    between atoms: C_9  and  C_11
REMARK    5  A    between atoms: C_9  and  N_32
REMARK    6  A    between atoms: C_11  and  N_12
REMARK    7  A    between atoms: N_12  and  C_13
REMARK    8  A    between atoms: C_13  and  C_14
REMARK    9  A    between atoms: C_14  and  C_16
REMARK   10  A    between atoms: C_14  and  O_31
REMARK   11  A    between atoms: C_16  and  O_17
REMARK   12  A    between atoms: O_17  and  C_18
REMARK   13  A    between atoms: C_18  and  C_19
REMARK   14  A    between atoms: C_18  and  C_25
REMARK                            x       y       z     vdW  Elec       q    Type
REMARK                         _______ _______ _______ _____ _____    ______ ____
ROOT
ATOM      1  N   UNL     1      -6.623  -3.789  -1.206  0.00  0.00    +0.380 N 
ATOM      2  H   UNL     1      -6.408  -4.619  -0.674  0.00  0.00    -0.086 HD
ATOM      3  H   UNL     1      -7.392  -3.301  -0.772  0.00  0.00    -0.086 HD
ENDROOT
BRANCH   1   4
ATOM      4  C   UNL     1      -5.445  -2.912  -1.244  0.00  0.00    -0.094 C 
BRANCH   4   5
ATOM      5  C   UNL     1      -4.981  -2.619   0.185  0.00  0.00    -0.055 C 
BRANCH   5   9
ATOM      6  C   UNL     1      -7.999  -0.392   2.233  0.00  0.00    +0.120 A 
ATOM      7  C   UNL     1      -7.884  -1.759   2.439  0.00  0.00    +0.046 A 
ATOM      8  C   UNL     1      -6.908  -2.477   1.776  0.00  0.00    +0.005 A 
ATOM      9  C   UNL     1      -6.046  -1.834   0.907  0.00  0.00    -0.062 A 
ATOM     10  C   UNL     1      -6.157  -0.471   0.701  0.00  0.00    +0.005 A 
ATOM     11  C   UNL     1      -7.136   0.250   1.357  0.00  0.00    +0.046 A 
BRANCH   6  13
ATOM     12  C   UNL     1      -9.812  -0.410   3.772  0.00  0.00    +0.277 C 
ATOM     13  O   UNL     1      -8.959   0.316   2.885  0.00  0.00    -0.495 OA
ENDBRANCH   6  13
ENDBRANCH   5   9
BRANCH   5  14
ATOM     14  N   UNL     1      -3.738  -1.838   0.146  0.00  0.00    +0.383 N 
ATOM     15  C   UNL     1      -3.266  -1.557   1.526  0.00  0.00    -0.078 C 
ATOM     16  C   UNL     1      -1.756  -1.266   1.332  0.00  0.00    -0.020 C 
ATOM     17  C   UNL     1      -1.350  -2.270   0.228  0.00  0.00    -0.020 C 
ATOM     18  C   UNL     1      -2.662  -2.624  -0.497  0.00  0.00    -0.078 C 
ATOM     19  H   UNL     1      -3.885  -0.975  -0.355  0.00  0.00    -0.081 HD
ENDBRANCH   5  14
ENDBRANCH   4   5
ENDBRANCH   1   4
BRANCH   1  20
ATOM     20  C   UNL     1      -6.995  -4.168  -2.575  0.00  0.00    -0.049 C 
BRANCH  20  21
ATOM     21  C   UNL     1      -8.222  -5.082  -2.536  0.00  0.00    +0.123 C 
BRANCH  21  22
ATOM     22  O   UNL     1      -9.342  -4.353  -2.029  0.00  0.00    -0.391 OA
ATOM     23  H   UNL     1      -9.579  -3.579  -2.557  0.00  0.00    +0.210 HD
ENDBRANCH  21  22
BRANCH  21  24
ATOM     24  C   UNL     1      -8.534  -5.577  -3.950  0.00  0.00    +0.190 C 
BRANCH  24  25
ATOM     25  O   UNL     1      -9.607  -6.520  -3.898  0.00  0.00    -0.365 OA
BRANCH  25  26
ATOM     26  C   UNL     1      -9.979  -7.048  -5.173  0.00  0.00    +0.178 C 
BRANCH  26  27
ATOM     27  C   UNL     1     -10.509  -8.448  -5.002  0.00  0.00    -0.015 A 
ATOM     28  C   UNL     1     -11.329  -8.750  -3.930  0.00  0.00    +0.006 A 
ATOM     29  C   UNL     1     -11.816 -10.034  -3.773  0.00  0.00    +0.000 A 
ATOM     30  C   UNL     1     -11.483 -11.016  -4.688  0.00  0.00    +0.000 A 
ATOM     31  C   UNL     1     -10.665 -10.713  -5.760  0.00  0.00    +0.000 A 
ATOM     32  C   UNL     1     -10.181  -9.428  -5.919  0.00  0.00    +0.006 A 
ENDBRANCH  26  27
BRANCH  26  33
ATOM     33  C   UNL     1     -11.046  -6.177  -5.784  0.00  0.00    -0.015 A 
ATOM     34  C   UNL     1     -11.992  -5.572  -4.976  0.00  0.00    +0.006 A 
ATOM     35  C   UNL     1     -12.971  -4.774  -5.537  0.00  0.00    +0.000 A 
ATOM     36  C   UNL     1     -13.005  -4.580  -6.906  0.00  0.00    +0.000 A 
ATOM     37  C   UNL     1     -12.059  -5.184  -7.713  0.00  0.00    +0.000 A 
ATOM     38  C   UNL     1     -11.077  -5.979  -7.152  0.00  0.00    +0.006 A 
ENDBRANCH  26  33
ENDBRANCH  25  26
ENDBRANCH  24  25
ENDBRANCH  21  24
ENDBRANCH  20  21
ENDBRANCH   1  20
TORSDOF 13
