REMARK  Name = ZINC00937429
REMARK  8 active torsions:
REMARK  status: ('A' for Active; 'I' for Inactive)
REMARK    1  A    between atoms: C_1  and  C_2
REMARK    2  A    between atoms: C_5  and  C_8
REMARK    3  A    between atoms: C_8  and  N_9
REMARK    4  A    between atoms: C_10  and  N_32
REMARK    5  A    between atoms: C_11  and  C_22
REMARK    6  A    between atoms: C_15  and  C_20
REMARK    7  A    between atoms: C_16  and  C_18
REMARK    8  A    between atoms: N_30  and  C_31
REMARK                            x       y       z     vdW  Elec       q    Type
REMARK                         _______ _______ _______ _____ _____    ______ ____
ROOT
ATOM      1  N   UNL     1      -3.218   8.589  -0.439  0.00  0.00    -0.308 N 
ATOM      2  C   UNL     1      -2.146   7.759  -0.294  0.00  0.00    +0.111 A 
ATOM      3  C   UNL     1      -2.585   6.445  -0.237  0.00  0.00    +0.084 A 
ATOM      4  C   UNL     1      -4.048   6.492  -0.365  0.00  0.00    +0.122 A 
ATOM      5  C   UNL     1      -4.388   7.862  -0.482  0.00  0.00    +0.163 A 
ATOM      6  N   UNL     1      -5.656   8.213  -0.609  0.00  0.00    -0.214 NA
ATOM      7  C   UNL     1      -6.607   7.282  -0.620  0.00  0.00    +0.178 A 
ATOM      8  C   UNL     1      -6.268   5.920  -0.496  0.00  0.00    +0.177 A 
ATOM      9  N   UNL     1      -4.995   5.563  -0.368  0.00  0.00    -0.230 NA
ENDROOT
BRANCH   3  10
ATOM     10  C   UNL     1      -1.752   5.243  -0.085  0.00  0.00    +0.147 A 
ATOM     11  N   UNL     1      -0.659   4.988  -0.770  0.00  0.00    -0.227 NA
ATOM     12  C   UNL     1      -0.142   3.797  -0.376  0.00  0.00    +0.090 A 
ATOM     13  C   UNL     1       0.983   3.065  -0.766  0.00  0.00    +0.030 A 
ATOM     14  C   UNL     1       1.253   1.855  -0.166  0.00  0.00    +0.002 A 
ATOM     15  C   UNL     1       0.417   1.357   0.822  0.00  0.00    +0.002 A 
ATOM     16  C   UNL     1      -0.701   2.064   1.214  0.00  0.00    +0.028 A 
ATOM     17  C   UNL     1      -0.986   3.287   0.626  0.00  0.00    +0.069 A 
ATOM     18  N   UNL     1      -1.997   4.219   0.793  0.00  0.00    -0.327 N 
ATOM     19  C   UNL     1      -3.117   4.127   1.732  0.00  0.00    +0.151 C 
ENDBRANCH   3  10
BRANCH   2  20
ATOM     20  N   UNL     1      -0.833   8.162  -0.217  0.00  0.00    -0.344 N 
ATOM     21  H   UNL     1      -0.129   7.503  -0.113  0.00  0.00    +0.144 HD
ATOM     22  H   UNL     1      -0.612   9.105  -0.266  0.00  0.00    +0.144 HD
ENDBRANCH   2  20
BRANCH   8  23
ATOM     23  C   UNL     1      -7.295   4.922  -0.509  0.00  0.00    +0.122 C 
ATOM     24  N   UNL     1      -8.109   4.130  -0.519  0.00  0.00    -0.189 NA
ENDBRANCH   8  23
BRANCH   7  25
ATOM     25  C   UNL     1      -7.979   7.666  -0.758  0.00  0.00    +0.122 C 
ATOM     26  N   UNL     1      -9.069   7.970  -0.867  0.00  0.00    -0.189 NA
ENDBRANCH   7  25
BRANCH   1  27
ATOM     27  C   UNL     1      -3.138  10.049  -0.535  0.00  0.00    +0.160 C 
BRANCH  27  32
ATOM     28  C   UNL     1      -2.594  11.587  -6.079  0.00  0.00    +0.044 C 
ATOM     29  C   UNL     1      -2.736  11.187  -4.633  0.00  0.00    -0.050 A 
ATOM     30  C   UNL     1      -3.992  11.061  -4.071  0.00  0.00    +0.004 A 
ATOM     31  C   UNL     1      -4.122  10.693  -2.744  0.00  0.00    +0.005 A 
ATOM     32  C   UNL     1      -2.996  10.450  -1.981  0.00  0.00    -0.028 A 
ATOM     33  C   UNL     1      -1.739  10.581  -2.542  0.00  0.00    +0.005 A 
ATOM     34  C   UNL     1      -1.609  10.945  -3.869  0.00  0.00    +0.004 A 
ENDBRANCH  27  32
ENDBRANCH   1  27
TORSDOF 6
