REMARK  Name = ZINC06511722
REMARK  2 active torsions:
REMARK  status: ('A' for Active; 'I' for Inactive)
REMARK    1  A    between atoms: C_3  and  C_18
REMARK    2  A    between atoms: C_5  and  N_7
REMARK                            x       y       z     vdW  Elec       q    Type
REMARK                         _______ _______ _______ _____ _____    ______ ____
ROOT
ATOM      1  N   UNL     1       1.305  -1.907   0.854  0.00  0.00    -0.227 N 
ATOM      2  C   UNL     1       1.330  -0.719  -0.008  0.00  0.00    +0.209 C 
ATOM      3  C   UNL     1       0.002  -0.004   0.002  0.00  0.00    +0.017 C 
ATOM      4  C   UNL     1      -0.016   1.329   0.009  0.00  0.00    +0.000 C 
ATOM      5  C   UNL     1       1.223   2.117   0.002  0.00  0.00    +0.015 C 
ATOM      6  C   UNL     1       2.389   1.526   0.345  0.00  0.00    +0.079 C 
ATOM      7  N   UNL     1       2.302   0.175   0.657  0.00  0.00    -0.264 N 
ATOM      8  C   UNL     1       2.943  -0.538   1.582  0.00  0.00    +0.155 C 
ATOM      9  S   UNL     1       4.309   0.016   2.453  0.00  0.00    -0.017 S 
ATOM     10  N   UNL     1       2.380  -1.748   1.745  0.00  0.00    -0.243 N 
ATOM     11  H   UNL     1       2.644  -2.559   2.439  0.00  0.00    +0.172 HD
ENDROOT
BRANCH   1  16
ATOM     12  C   UNL     1      -1.504  -4.029  -0.198  0.00  0.00    +0.002 A 
ATOM     13  C   UNL     1      -1.387  -5.079   0.695  0.00  0.00    +0.012 A 
ATOM     14  C   UNL     1      -0.378  -5.077   1.640  0.00  0.00    +0.057 A 
ATOM     15  C   UNL     1       0.520  -4.029   1.692  0.00  0.00    +0.037 A 
ATOM     16  C   UNL     1       0.402  -2.971   0.800  0.00  0.00    +0.051 A 
ATOM     17  C   UNL     1      -0.613  -2.975  -0.148  0.00  0.00    +0.025 A 
BRANCH  14  18
ATOM     18  C   UNL     1      -0.255  -6.223   2.611  0.00  0.00    +0.417 C 
ATOM     19  F   UNL     1      -1.266  -7.157   2.361  0.00  0.00    -0.166 F 
ATOM     20  F   UNL     1       0.994  -6.834   2.456  0.00  0.00    -0.166 F 
ATOM     21  F   UNL     1      -0.379  -5.741   3.919  0.00  0.00    -0.166 F 
ENDBRANCH  14  18
ENDBRANCH   1  16
TORSDOF 2
