REMARK  Name = ZINC38773845
REMARK  8 active torsions:
REMARK  status: ('A' for Active; 'I' for Inactive)
REMARK    1  A    between atoms: C_1  and  C_2
REMARK    2  A    between atoms: C_2  and  C_3
REMARK    3  A    between atoms: C_2  and  C_4
REMARK    4  A    between atoms: C_4  and  C_6
REMARK    5  A    between atoms: C_4  and  N_21
REMARK    6  A    between atoms: N_8  and  C_9
REMARK    7  A    between atoms: C_9  and  C_10
REMARK    8  A    between atoms: C_10  and  C_11
REMARK                            x       y       z     vdW  Elec       q    Type
REMARK                         _______ _______ _______ _____ _____    ______ ____
ROOT
ATOM      1  C   UNL     1       0.718  -0.497  -1.257  0.00  0.00    +0.183 C 
ENDROOT
BRANCH   1   2
ATOM      2  N   UNL     1       0.010  -0.012  -2.444  0.00  0.00    -0.205 N 
ATOM      3  C   UNL     1       0.666   0.774  -3.328  0.00  0.00    +0.264 C 
ATOM      4  O   UNL     1       1.854   1.005  -3.204  0.00  0.00    -0.269 OA
ATOM      5  C   UNL     1      -0.111   1.340  -4.447  0.00  0.00    +0.060 A 
ATOM      6  C   UNL     1       0.480   1.953  -5.544  0.00  0.00    +0.015 A 
ATOM      7  C   UNL     1      -0.322   2.460  -6.548  0.00  0.00    +0.001 A 
ATOM      8  C   UNL     1      -1.702   2.360  -6.465  0.00  0.00    +0.002 A 
ATOM      9  C   UNL     1      -2.302   1.751  -5.378  0.00  0.00    +0.025 A 
ATOM     10  C   UNL     1      -1.514   1.237  -4.365  0.00  0.00    +0.055 A 
ATOM     11  N   UNL     1      -2.037   0.603  -3.245  0.00  0.00    -0.264 N 
ATOM     12  N   UNL     1      -1.290  -0.368  -2.631  0.00  0.00    -0.157 NA
ATOM     13  H   UNL     1      -2.914   0.842  -2.906  0.00  0.00    +0.168 HD
ATOM     14  H   UNL     1      -1.357  -1.246  -3.124  0.00  0.00    +0.168 HD
ENDBRANCH   1   2
BRANCH   1  15
ATOM     15  C   UNL     1       0.739  -2.004  -1.265  0.00  0.00    +0.235 C 
ATOM     16  O   UNL     1       0.213  -2.613  -2.173  0.00  0.00    -0.274 OA
ATOM     17  N   UNL     1       1.341  -2.676  -0.264  0.00  0.00    -0.313 N 
ATOM     18  H   UNL     1       1.761  -2.189   0.463  0.00  0.00    +0.149 HD
BRANCH  17  19
ATOM     19  C   UNL     1       1.361  -4.141  -0.272  0.00  0.00    +0.109 C 
BRANCH  19  20
ATOM     20  C   UNL     1       2.101  -4.647   0.968  0.00  0.00    +0.056 C 
BRANCH  20  21
ATOM     21  C   UNL     1       2.121  -6.154   0.960  0.00  0.00    -0.021 A 
ATOM     22  C   UNL     1       3.091  -7.009   0.270  0.00  0.00    +0.004 A 
ATOM     23  C   UNL     1       4.208  -6.758  -0.528  0.00  0.00    +0.030 A 
ATOM     24  C   UNL     1       4.931  -7.814  -1.040  0.00  0.00    +0.042 A 
ATOM     25  C   UNL     1       4.553  -9.122  -0.764  0.00  0.00    +0.022 A 
ATOM     26  C   UNL     1       3.453  -9.384   0.022  0.00  0.00    +0.027 A 
ATOM     27  C   UNL     1       2.709  -8.334   0.549  0.00  0.00    +0.047 A 
ATOM     28  N   UNL     1       1.589  -8.274   1.349  0.00  0.00    -0.360 N 
ATOM     29  C   UNL     1       1.258  -6.968   1.587  0.00  0.00    +0.087 A 
ATOM     30 CL   UNL     1       6.321  -7.508  -2.033  0.00  0.00    -0.084 Cl
ATOM     31  H   UNL     1       1.109  -9.043   1.694  0.00  0.00    +0.165 HD
ENDBRANCH  20  21
ENDBRANCH  19  20
ENDBRANCH  17  19
ENDBRANCH   1  15
BRANCH   1  33
ATOM     32  C   UNL     1      -0.019   1.526   0.010  0.00  0.00    +0.009 C 
ATOM     33  C   UNL     1       0.002  -0.004   0.002  0.00  0.00    +0.014 C 
ATOM     34  C   UNL     1      -1.433  -0.534   0.013  0.00  0.00    +0.009 C 
ENDBRANCH   1  33
TORSDOF 6
