REMARK  Name = ZINC40743799
REMARK  9 active torsions:
REMARK  status: ('A' for Active; 'I' for Inactive)
REMARK    1  A    between atoms: C_3  and  C_8
REMARK    2  A    between atoms: C_8  and  O_9
REMARK    3  A    between atoms: O_9  and  C_10
REMARK    4  A    between atoms: C_15  and  C_16
REMARK    5  A    between atoms: C_16  and  N_17
REMARK    6  A    between atoms: N_17  and  C_18
REMARK    7  A    between atoms: C_18  and  C_19
REMARK    8  A    between atoms: C_19  and  C_20
REMARK    9  A    between atoms: C_20  and  O_21
REMARK                            x       y       z     vdW  Elec       q    Type
REMARK                         _______ _______ _______ _____ _____    ______ ____
ROOT
ATOM      1  C   UNL     1       5.252   3.110   1.494  0.00  0.00    +0.122 A 
ATOM      2  C   UNL     1       5.965   3.555   0.390  0.00  0.00    +0.047 A 
ATOM      3  C   UNL     1       7.143   4.255   0.566  0.00  0.00    +0.019 A 
ATOM      4  C   UNL     1       7.611   4.514   1.842  0.00  0.00    +0.018 A 
ATOM      5  C   UNL     1       6.902   4.071   2.944  0.00  0.00    +0.020 A 
ATOM      6  C   UNL     1       5.721   3.376   2.772  0.00  0.00    -0.022 A 
ATOM      7 BR   UNL     1       9.223   5.473   2.079  0.00  0.00    -0.050 Br
ENDROOT
BRANCH   1   8
ATOM      8  O   UNL     1       4.094   2.421   1.323  0.00  0.00    -0.487 OA
BRANCH   8   9
ATOM      9  C   UNL     1       3.672   2.184  -0.021  0.00  0.00    +0.264 C 
BRANCH   9  12
ATOM     10  C   UNL     1      -0.017   1.378   0.010  0.00  0.00    +0.002 A 
ATOM     11  C   UNL     1       1.171   2.086   0.002  0.00  0.00    +0.007 A 
ATOM     12  C   UNL     1       2.378   1.412  -0.013  0.00  0.00    -0.009 A 
ATOM     13  C   UNL     1       2.398   0.029  -0.021  0.00  0.00    +0.027 A 
ATOM     14  C   UNL     1       1.210  -0.679  -0.013  0.00  0.00    +0.041 A 
ATOM     15  C   UNL     1       0.002  -0.004   0.002  0.00  0.00    +0.020 A 
ATOM     16 CL   UNL     1       1.234  -2.415  -0.024  0.00  0.00    -0.084 Cl
ENDBRANCH   9  12
ENDBRANCH   8   9
ENDBRANCH   1   8
BRANCH   6  17
ATOM     17  C   UNL     1       4.945   2.900   3.974  0.00  0.00    -0.043 C 
BRANCH  17  18
ATOM     18  N   UNL     1       5.226   1.477   4.206  0.00  0.00    +0.382 N 
ATOM     19  H   UNL     1       4.951   0.943   3.395  0.00  0.00    -0.085 HD
ATOM     20  H   UNL     1       6.213   1.352   4.372  0.00  0.00    -0.085 HD
BRANCH  18  21
ATOM     21  C   UNL     1       4.469   1.014   5.377  0.00  0.00    -0.080 C 
BRANCH  21  22
ATOM     22  C   UNL     1       4.762  -0.469   5.619  0.00  0.00    +0.009 C 
BRANCH  22  23
ATOM     23  C   UNL     1       3.974  -0.952   6.838  0.00  0.00    +0.154 C 
BRANCH  23  24
ATOM     24  O   UNL     1       4.247  -2.336   7.064  0.00  0.00    -0.395 OA
ATOM     25  H   UNL     1       3.780  -2.710   7.824  0.00  0.00    +0.209 HD
ENDBRANCH  23  24
ENDBRANCH  22  23
ENDBRANCH  21  22
ENDBRANCH  18  21
ENDBRANCH  17  18
ENDBRANCH   6  17
TORSDOF 9
