REMARK  Name = ZINC16676262
REMARK  9 active torsions:
REMARK  status: ('A' for Active; 'I' for Inactive)
REMARK    1  A    between atoms: C_1  and  C_2
REMARK    2  A    between atoms: C_3  and  C_27
REMARK    3  A    between atoms: C_4  and  C_20
REMARK    4  A    between atoms: C_6  and  C_18
REMARK    5  A    between atoms: C_7  and  S_9
REMARK    6  A    between atoms: S_9  and  C_10
REMARK    7  A    between atoms: C_10  and  S_11
REMARK    8  A    between atoms: S_11  and  C_12
REMARK    9  A    between atoms: C_27  and  C_29
REMARK                            x       y       z     vdW  Elec       q    Type
REMARK                         _______ _______ _______ _____ _____    ______ ____
ROOT
ATOM      1  C   UNL     1       7.902   4.901   1.412  0.00  0.00    +0.061 C 
ATOM      2  C   UNL     1       6.701   4.798   2.317  0.00  0.00    +0.013 C 
ATOM      3  C   UNL     1       6.820   5.128   3.619  0.00  0.00    +0.024 C 
ATOM      4  C   UNL     1       5.657   5.035   4.565  0.00  0.00    +0.096 C 
ATOM      5  C   UNL     1       4.362   4.938   3.809  0.00  0.00    +0.069 C 
ATOM      6  C   UNL     1       4.338   4.608   2.490  0.00  0.00    +0.080 C 
ATOM      7  N   UNL     1       5.510   4.372   1.806  0.00  0.00    -0.312 N 
ATOM      8  H   UNL     1       5.483   3.839   0.844  0.00  0.00    +0.152 HD
ENDROOT
BRANCH   4   9
ATOM      9  C   UNL     1       5.822   3.816   5.435  0.00  0.00    -0.035 A 
ATOM     10  C   UNL     1       5.885   2.561   4.860  0.00  0.00    +0.006 A 
ATOM     11  C   UNL     1       6.041   1.442   5.657  0.00  0.00    +0.020 A 
ATOM     12  C   UNL     1       6.123   1.579   7.032  0.00  0.00    +0.041 A 
ATOM     13  C   UNL     1       6.054   2.835   7.607  0.00  0.00    +0.020 A 
ATOM     14  C   UNL     1       5.904   3.953   6.808  0.00  0.00    +0.006 A 
ATOM     15 CL   UNL     1       6.313   0.174   8.034  0.00  0.00    -0.084 Cl
ENDBRANCH   4   9
BRANCH   3  16
ATOM     16  C   UNL     1       8.062   5.569   4.103  0.00  0.00    +0.159 C 
ATOM     17  O   UNL     1       9.013   5.650   3.351  0.00  0.00    -0.293 OA
ATOM     18  C   UNL     1       8.215   5.943   5.555  0.00  0.00    +0.091 C 
ENDBRANCH   3  16
BRANCH   5  19
ATOM     19  C   UNL     1       3.130   5.192   4.492  0.00  0.00    +0.098 C 
ATOM     20  N   UNL     1       2.152   5.393   5.033  0.00  0.00    -0.191 NA
ENDBRANCH   5  19
BRANCH   6  21
ATOM     21  S   UNL     1       2.795   4.488   1.648  0.00  0.00    -0.098 S 
BRANCH  21  22
ATOM     22  C   UNL     1       3.375   4.046  -0.009  0.00  0.00    +0.149 C 
BRANCH  22  23
ATOM     23  S   UNL     1       3.897   2.308  -0.024  0.00  0.00    -0.114 S 
BRANCH  23  24
ATOM     24  C   UNL     1       2.381   1.409  -0.013  0.00  0.00    +0.009 A 
ATOM     25  C   UNL     1       1.169   2.087   0.002  0.00  0.00    +0.015 A 
ATOM     26  C   UNL     1      -0.017   1.379   0.010  0.00  0.00    +0.001 A 
ATOM     27  C   UNL     1       0.002  -0.004   0.002  0.00  0.00    +0.000 A 
ATOM     28  C   UNL     1       1.207  -0.683  -0.013  0.00  0.00    +0.001 A 
ATOM     29  C   UNL     1       2.396   0.019  -0.021  0.00  0.00    +0.015 A 
ENDBRANCH  23  24
ENDBRANCH  22  23
ENDBRANCH  21  22
ENDBRANCH   6  21
TORSDOF 7
