REMARK  Name = ZINC21715591
REMARK  4 active torsions:
REMARK  status: ('A' for Active; 'I' for Inactive)
REMARK    1  A    between atoms: C_1  and  S_2
REMARK    2  A    between atoms: S_2  and  C_3
REMARK    3  A    between atoms: C_6  and  C_9
REMARK    4  A    between atoms: C_24  and  C_26
REMARK                            x       y       z     vdW  Elec       q    Type
REMARK                         _______ _______ _______ _____ _____    ______ ____
ROOT
ATOM      1  C   UNL     1      -3.603  -1.210  -0.078  0.00  0.00    +0.154 C 
ATOM      2  C   UNL     1      -4.532  -0.407   0.812  0.00  0.00    +0.046 A 
ATOM      3  C   UNL     1      -4.253   0.841   1.247  0.00  0.00    -0.015 A 
ATOM      4  C   UNL     1      -5.379   1.268   2.053  0.00  0.00    +0.003 A 
ATOM      5  C   UNL     1      -5.650   2.449   2.752  0.00  0.00    +0.010 A 
ATOM      6  C   UNL     1      -6.845   2.511   3.425  0.00  0.00    +0.001 A 
ATOM      7  C   UNL     1      -7.748   1.461   3.419  0.00  0.00    +0.002 A 
ATOM      8  C   UNL     1      -7.506   0.282   2.736  0.00  0.00    +0.026 A 
ATOM      9  C   UNL     1      -6.300   0.190   2.045  0.00  0.00    +0.047 A 
ATOM     10  N   UNL     1      -5.753  -0.805   1.286  0.00  0.00    -0.356 N 
ATOM     11  H   UNL     1      -6.144  -1.801   1.032  0.00  0.00    +0.166 HD
ATOM     12  C   UNL     1      -2.991   1.601   0.927  0.00  0.00    +0.056 C 
ATOM     13  C   UNL     1      -2.313   0.953  -0.286  0.00  0.00    +0.114 C 
ATOM     14  N   UNL     1      -2.309  -0.507  -0.108  0.00  0.00    -0.282 N 
ATOM     15  C   UNL     1      -1.151  -1.185   0.019  0.00  0.00    +0.283 C 
ATOM     16  O   UNL     1      -0.098  -0.580   0.096  0.00  0.00    -0.267 OA
ENDROOT
BRANCH   1  20
ATOM     17  C   UNL     1      -5.214  -1.453  -4.030  0.00  0.00    +0.008 A 
ATOM     18  C   UNL     1      -4.887  -2.614  -3.338  0.00  0.00    +0.015 A 
ATOM     19  C   UNL     1      -4.367  -2.531  -2.062  0.00  0.00    +0.007 A 
ATOM     20  C   UNL     1      -4.171  -1.296  -1.472  0.00  0.00    -0.021 A 
ATOM     21  C   UNL     1      -4.500  -0.139  -2.155  0.00  0.00    +0.007 A 
ATOM     22  C   UNL     1      -5.016  -0.214  -3.434  0.00  0.00    +0.015 A 
BRANCH  17  24
ATOM     23  C   UNL     1      -6.137   0.177  -6.135  0.00  0.00    +0.090 C 
ATOM     24  S   UNL     1      -5.878  -1.554  -5.659  0.00  0.00    -0.129 S 
ENDBRANCH  17  24
ENDBRANCH   1  20
BRANCH  15  25
ATOM     25  C   UNL     1      -1.161  -2.650   0.065  0.00  0.00    +0.189 A 
ATOM     26  C   UNL     1      -0.084  -3.452   0.311  0.00  0.00    +0.054 A 
ATOM     27  C   UNL     1      -0.546  -4.777   0.258  0.00  0.00    +0.042 A 
ATOM     28  C   UNL     1      -1.869  -4.726  -0.015  0.00  0.00    +0.196 A 
ATOM     29  O   UNL     1      -2.235  -3.443  -0.131  0.00  0.00    -0.458 OA
ENDBRANCH  15  25
TORSDOF 3
