REMARK  Name = ZINC09429032
REMARK  8 active torsions:
REMARK  status: ('A' for Active; 'I' for Inactive)
REMARK    1  A    between atoms: C_3  and  C_6
REMARK    2  A    between atoms: C_7  and  C_8
REMARK    3  A    between atoms: N_12  and  C_16
REMARK    4  A    between atoms: C_16  and  C_17
REMARK    5  A    between atoms: C_17  and  C_18
REMARK    6  A    between atoms: N_20  and  C_21
REMARK    7  A    between atoms: C_24  and  O_29
REMARK    8  A    between atoms: C_25  and  C_27
REMARK                            x       y       z     vdW  Elec       q    Type
REMARK                         _______ _______ _______ _____ _____    ______ ____
ROOT
ATOM      1  C   UNL     1      -1.933   9.577   0.385  0.00  0.00    +0.124 C 
ENDROOT
BRANCH   1   6
ATOM      2  C   UNL     1      -5.575  11.760   2.911  0.00  0.00    +0.020 C 
ATOM      3  C   UNL     1      -4.865  11.366   1.798  0.00  0.00    +0.077 C 
ATOM      4  C   UNL     1      -3.660  10.605   1.712  0.00  0.00    +0.258 C 
ATOM      5  O   UNL     1      -3.102  10.200   2.716  0.00  0.00    -0.269 OA
ATOM      6  N   UNL     1      -3.169  10.354   0.511  0.00  0.00    -0.255 N 
ATOM      7  C   UNL     1      -3.785  10.809  -0.602  0.00  0.00    +0.121 C 
ATOM      8  S   UNL     1      -3.327  10.611  -2.240  0.00  0.00    -0.027 S 
ATOM      9  S   UNL     1      -5.202  11.667   0.068  0.00  0.00    -0.061 S 
BRANCH   2  11
ATOM     10  C   UNL     1      -5.825  11.797   5.292  0.00  0.00    +0.046 C 
ATOM     11  C   UNL     1      -5.123  11.408   4.192  0.00  0.00    +0.005 C 
BRANCH  10  14
ATOM     12  C   UNL     1      -5.187  11.214   8.795  0.00  0.00    +0.042 A 
ATOM     13  C   UNL     1      -5.976  11.774   7.779  0.00  0.00    +0.049 A 
ATOM     14  C   UNL     1      -5.370  11.443   6.583  0.00  0.00    +0.128 A 
ATOM     15  O   UNL     1      -4.263  10.726   6.867  0.00  0.00    -0.464 OA
ATOM     16  C   UNL     1      -4.150  10.587   8.196  0.00  0.00    +0.195 A 
ENDBRANCH  10  14
ENDBRANCH   2  11
ENDBRANCH   1   6
BRANCH   1  17
ATOM     17  C   UNL     1      -2.276   8.089   0.280  0.00  0.00    +0.115 C 
BRANCH  17  18
ATOM     18  C   UNL     1      -1.005   7.289   0.150  0.00  0.00    +0.219 C 
ATOM     19  O   UNL     1       0.069   7.853   0.143  0.00  0.00    -0.275 OA
ATOM     20  N   UNL     1      -1.062   5.947   0.042  0.00  0.00    -0.285 N 
ATOM     21  H   UNL     1      -1.921   5.502  -0.029  0.00  0.00    +0.155 HD
BRANCH  20  22
ATOM     22  C   UNL     1       0.120   5.194   0.033  0.00  0.00    +0.034 A 
ATOM     23  C   UNL     1       0.193   4.027  -0.720  0.00  0.00    +0.027 A 
ATOM     24  C   UNL     1       1.353   3.279  -0.736  0.00  0.00    +0.048 A 
ATOM     25  C   UNL     1       2.455   3.687   0.001  0.00  0.00    +0.131 A 
ATOM     26  C   UNL     1       2.389   4.862   0.763  0.00  0.00    +0.106 A 
ATOM     27  C   UNL     1       1.209   5.611   0.777  0.00  0.00    +0.042 A 
BRANCH  26  28
ATOM     28  C   UNL     1       3.555   5.301   1.549  0.00  0.00    +0.390 C 
ATOM     29  O   UNL     1       4.578   4.645   1.538  0.00  0.00    -0.240 OA
ATOM     30  O   UNL     1       3.488   6.431   2.280  0.00  0.00    -0.240 OA
ENDBRANCH  26  28
BRANCH  25  31
ATOM     31  O   UNL     1       3.594   2.950  -0.015  0.00  0.00    -0.506 OA
ATOM     32  H   UNL     1       3.633   2.271   0.673  0.00  0.00    +0.292 HD
ENDBRANCH  25  31
ENDBRANCH  20  22
ENDBRANCH  17  18
ENDBRANCH   1  17
TORSDOF 8
