REMARK  Name = ZINC09008747
REMARK  8 active torsions:
REMARK  status: ('A' for Active; 'I' for Inactive)
REMARK    1  A    between atoms: C_1  and  C_2
REMARK    2  A    between atoms: C_5  and  C_8
REMARK    3  A    between atoms: C_8  and  O_9
REMARK    4  A    between atoms: O_9  and  C_10
REMARK    5  A    between atoms: C_15  and  C_16
REMARK    6  A    between atoms: C_18  and  C_22
REMARK    7  A    between atoms: N_24  and  N_25
REMARK    8  A    between atoms: C_26  and  C_27
REMARK                            x       y       z     vdW  Elec       q    Type
REMARK                         _______ _______ _______ _____ _____    ______ ____
ROOT
ATOM      1  C   UNL     1       4.075  -5.685  -0.052  0.00  0.00    +0.097 A 
ATOM      2  C   UNL     1       5.429  -6.067  -0.067  0.00  0.00    +0.062 A 
ATOM      3  C   UNL     1       6.142  -4.883  -0.063  0.00  0.00    +0.122 A 
ATOM      4  N   UNL     1       5.219  -3.876  -0.046  0.00  0.00    -0.272 N 
ATOM      5  H   UNL     1       5.428  -2.929  -0.041  0.00  0.00    +0.189 HD
ATOM      6  N   UNL     1       4.034  -4.369  -0.045  0.00  0.00    -0.173 NA
ENDROOT
BRANCH   1  12
ATOM      7  C   UNL     1       1.608  -6.079  -0.040  0.00  0.00    +0.130 A 
ATOM      8  C   UNL     1       0.522  -6.939  -0.044  0.00  0.00    +0.046 A 
ATOM      9  C   UNL     1       0.722  -8.306  -0.053  0.00  0.00    +0.004 A 
ATOM     10  C   UNL     1       2.005  -8.824  -0.057  0.00  0.00    +0.001 A 
ATOM     11  C   UNL     1       3.096  -7.978  -0.053  0.00  0.00    +0.014 A 
ATOM     12  C   UNL     1       2.905  -6.599  -0.050  0.00  0.00    +0.044 A 
BRANCH   7  13
ATOM     13  O   UNL     1       1.413  -4.734  -0.032  0.00  0.00    -0.487 OA
BRANCH  13  14
ATOM     14  C   UNL     1       0.059  -4.275  -0.021  0.00  0.00    +0.264 C 
BRANCH  14  19
ATOM     15  C   UNL     1      -0.018   1.503   0.010  0.00  0.00    +0.044 C 
ATOM     16  C   UNL     1       0.002  -0.004   0.002  0.00  0.00    -0.050 A 
ATOM     17  C   UNL     1       0.006  -0.689  -1.199  0.00  0.00    +0.004 A 
ATOM     18  C   UNL     1       0.025  -2.071  -1.206  0.00  0.00    +0.007 A 
ATOM     19  C   UNL     1       0.040  -2.768  -0.013  0.00  0.00    -0.010 A 
ATOM     20  C   UNL     1       0.037  -2.084   1.188  0.00  0.00    +0.007 A 
ATOM     21  C   UNL     1       0.023  -0.702   1.195  0.00  0.00    +0.004 A 
ENDBRANCH  14  19
ENDBRANCH  13  14
ENDBRANCH   7  13
ENDBRANCH   1  12
BRANCH   3  22
ATOM     22  C   UNL     1       7.606  -4.737  -0.075  0.00  0.00    +0.281 C 
ATOM     23  O   UNL     1       8.316  -5.725  -0.089  0.00  0.00    -0.267 OA
ATOM     24  N   UNL     1       8.161  -3.509  -0.069  0.00  0.00    -0.202 N 
ATOM     25  H   UNL     1       7.595  -2.721  -0.058  0.00  0.00    +0.178 HD
BRANCH  24  26
ATOM     26  N   UNL     1       9.555  -3.370  -0.080  0.00  0.00    -0.187 NA
ATOM     27  C   UNL     1      10.089  -2.185  -0.074  0.00  0.00    +0.140 C 
BRANCH  27  28
ATOM     28  C   UNL     1      11.554  -2.039  -0.086  0.00  0.00    +0.020 A 
ATOM     29  C   UNL     1      12.255  -0.873  -0.076  0.00  0.00    +0.093 A 
ATOM     30  N   UNL     1      13.591  -1.140  -0.091  0.00  0.00    -0.360 N 
ATOM     31  H   UNL     1      14.291  -0.468  -0.088  0.00  0.00    +0.165 HD
ATOM     32  C   UNL     1      13.806  -2.502  -0.112  0.00  0.00    +0.047 A 
ATOM     33  C   UNL     1      12.547  -3.127  -0.103  0.00  0.00    +0.008 A 
ATOM     34  C   UNL     1      12.459  -4.517  -0.115  0.00  0.00    +0.010 A 
ATOM     35  C   UNL     1      13.610  -5.274  -0.132  0.00  0.00    +0.001 A 
ATOM     36  C   UNL     1      14.853  -4.658  -0.137  0.00  0.00    +0.002 A 
ATOM     37  C   UNL     1      14.956  -3.284  -0.133  0.00  0.00    +0.026 A 
ENDBRANCH  27  28
ENDBRANCH  24  26
ENDBRANCH   3  22
TORSDOF 7
