REMARK  Name = ZINC06082903
REMARK  11 active torsions:
REMARK  status: ('A' for Active; 'I' for Inactive)
REMARK    1  A    between atoms: C_4  and  O_28
REMARK    2  A    between atoms: C_5  and  C_7
REMARK    3  A    between atoms: C_7  and  N_58
REMARK    4  A    between atoms: C_8  and  C_9
REMARK    5  A    between atoms: C_8  and  N_58
REMARK    6  A    between atoms: C_9  and  C_11
REMARK    7  A    between atoms: C_9  and  O_21
REMARK    8  A    between atoms: C_11  and  O_12
REMARK    9  A    between atoms: O_12  and  C_13
REMARK   10  A    between atoms: C_13  and  C_14
REMARK   11  A    between atoms: C_22  and  N_58
REMARK                            x       y       z     vdW  Elec       q    Type
REMARK                         _______ _______ _______ _____ _____    ______ ____
ROOT
ATOM      1  N   UNL     1       1.246   1.808   2.419  0.00  0.00    +0.386 N 
ATOM      2  H   UNL     1       0.997   2.790   2.247  0.00  0.00    -0.081 HD
ENDROOT
BRANCH   1   3
ATOM      3  C   UNL     1       0.010   0.999   2.458  0.00  0.00    -0.068 C 
ATOM      4  C   UNL     1       0.222  -0.327   1.725  0.00  0.00    -0.015 C 
ATOM      5  C   UNL     1      -1.073  -1.142   1.760  0.00  0.00    -0.002 C 
ATOM      6  C   UNL     1      -2.191  -0.353   1.075  0.00  0.00    -0.000 C 
ATOM      7  C   UNL     1      -2.402   0.974   1.807  0.00  0.00    -0.002 C 
ATOM      8  C   UNL     1      -1.107   1.788   1.772  0.00  0.00    -0.015 C 
ENDBRANCH   1   3
BRANCH   1   9
ATOM      9  C   UNL     1       1.954   1.713   3.713  0.00  0.00    -0.039 C 
BRANCH   9  14
ATOM     10  C   UNL     1       0.344   4.223   6.029  0.00  0.00    +0.000 A 
ATOM     11  C   UNL     1      -0.508   3.419   6.764  0.00  0.00    +0.004 A 
ATOM     12  C   UNL     1      -0.567   2.062   6.513  0.00  0.00    +0.045 A 
ATOM     13  C   UNL     1       0.227   1.506   5.520  0.00  0.00    +0.118 A 
ATOM     14  C   UNL     1       1.086   2.314   4.789  0.00  0.00    -0.022 A 
ATOM     15  C   UNL     1       1.140   3.671   5.043  0.00  0.00    +0.005 A 
BRANCH  13  16
ATOM     16  O   UNL     1       0.168   0.172   5.269  0.00  0.00    -0.507 OA
ATOM     17  H   UNL     1       0.789  -0.355   5.790  0.00  0.00    +0.292 HD
ENDBRANCH  13  16
ENDBRANCH   9  14
ENDBRANCH   1   9
BRANCH   1  18
ATOM     18  C   UNL     1       2.124   1.337   1.327  0.00  0.00    -0.044 C 
BRANCH  18  19
ATOM     19  C   UNL     1       1.731   2.062   0.038  0.00  0.00    +0.124 C 
BRANCH  19  20
ATOM     20  O   UNL     1       0.487   1.544  -0.438  0.00  0.00    -0.391 OA
ATOM     21  H   UNL     1       0.544   0.645  -0.790  0.00  0.00    +0.210 HD
ENDBRANCH  19  20
BRANCH  19  22
ATOM     22  C   UNL     1       2.814   1.842  -1.020  0.00  0.00    +0.189 C 
BRANCH  22  23
ATOM     23  O   UNL     1       2.505   2.612  -2.184  0.00  0.00    -0.373 OA
BRANCH  23  24
ATOM     24  C   UNL     1       3.459   2.479  -3.239  0.00  0.00    +0.195 C 
BRANCH  24  25
ATOM     25  C   UNL     1       3.036   3.329  -4.409  0.00  0.00    -0.022 A 
ATOM     26  C   UNL     1       2.225   2.796  -5.394  0.00  0.00    +0.007 A 
ATOM     27  C   UNL     1       1.832   3.577  -6.464  0.00  0.00    +0.020 A 
ATOM     28  C   UNL     1       2.260   4.889  -6.556  0.00  0.00    +0.041 A 
ATOM     29  C   UNL     1       3.076   5.421  -5.574  0.00  0.00    +0.020 A 
ATOM     30  C   UNL     1       3.463   4.640  -4.501  0.00  0.00    +0.007 A 
ATOM     31 CL   UNL     1       1.772   5.869  -7.904  0.00  0.00    -0.084 Cl
ENDBRANCH  24  25
ENDBRANCH  23  24
ENDBRANCH  22  23
ENDBRANCH  19  22
ENDBRANCH  18  19
ENDBRANCH   1  18
TORSDOF 11
