REMARK  Name = ZINC65291952
REMARK  8 active torsions:
REMARK  status: ('A' for Active; 'I' for Inactive)
REMARK    1  A    between atoms: C_1  and  C_2
REMARK    2  A    between atoms: C_2  and  N_3
REMARK    3  A    between atoms: C_7  and  C_9
REMARK    4  A    between atoms: C_9  and  N_10
REMARK    5  A    between atoms: C_11  and  C_13
REMARK    6  A    between atoms: C_14  and  C_30
REMARK    7  A    between atoms: N_19  and  C_22
REMARK    8  A    between atoms: C_22  and  C_23
REMARK                            x       y       z     vdW  Elec       q    Type
REMARK                         _______ _______ _______ _____ _____    ______ ____
ROOT
ATOM      1  C   UNL     1       0.433  -0.948   3.614  0.00  0.00    +0.079 A 
ATOM      2  C   UNL     1      -0.214   0.150   4.111  0.00  0.00    +0.114 A 
ATOM      3  O   UNL     1       0.491   0.626   5.147  0.00  0.00    -0.464 OA
ATOM      4  C   UNL     1       1.581  -0.116   5.360  0.00  0.00    +0.106 A 
ATOM      5  C   UNL     1       1.615  -1.112   4.454  0.00  0.00    -0.011 A 
ATOM      6  C   UNL     1       2.700  -2.151   4.381  0.00  0.00    -0.038 C 
ATOM      7  N   UNL     1       3.858  -1.668   5.154  0.00  0.00    +0.385 N 
ATOM      8  C   UNL     1       3.433  -1.265   6.501  0.00  0.00    -0.070 C 
ATOM      9  C   UNL     1       2.645   0.052   6.420  0.00  0.00    +0.056 C 
ATOM     10  C   UNL     1      -1.502   0.728   3.583  0.00  0.00    +0.087 C 
ATOM     11  H   UNL     1       4.269  -0.877   4.681  0.00  0.00    -0.081 HD
ENDROOT
BRANCH   1  13
ATOM     12  N   UNL     1       0.441  -1.492   1.231  0.00  0.00    -0.313 N 
ATOM     13  C   UNL     1       0.020  -1.789   2.477  0.00  0.00    +0.248 C 
ATOM     14  O   UNL     1      -0.701  -2.751   2.662  0.00  0.00    -0.270 OA
ATOM     15  H   UNL     1       1.016  -0.725   1.083  0.00  0.00    +0.149 HD
BRANCH  12  16
ATOM     16  C   UNL     1       0.031  -2.329   0.100  0.00  0.00    +0.089 C 
BRANCH  16  21
ATOM     17  N   UNL     1       0.284  -2.647  -2.325  0.00  0.00    +0.382 N 
ATOM     18  C   UNL     1       1.446  -3.363  -2.893  0.00  0.00    -0.078 C 
ATOM     19  C   UNL     1       2.677  -2.528  -2.459  0.00  0.00    -0.020 C 
ATOM     20  C   UNL     1       2.262  -2.075  -1.034  0.00  0.00    -0.016 C 
ATOM     21  C   UNL     1       0.741  -1.854  -1.169  0.00  0.00    -0.051 C 
ATOM     22  H   UNL     1      -0.108  -2.034  -3.024  0.00  0.00    -0.081 HD
BRANCH  17  24
ATOM     23  C   UNL     1      -1.276  -4.364  -3.108  0.00  0.00    -0.017 C 
ATOM     24  C   UNL     1      -0.730  -3.616  -1.891  0.00  0.00    -0.082 C 
ENDBRANCH  17  24
ENDBRANCH  16  21
ENDBRANCH  12  16
ENDBRANCH   1  13
BRANCH   7  25
ATOM     25  C   UNL     1       4.855  -2.742   5.259  0.00  0.00    -0.043 C 
BRANCH  25  26
ATOM     26  C   UNL     1       6.091  -2.215   5.941  0.00  0.00    -0.064 A 
ATOM     27  C   UNL     1       7.107  -1.652   5.192  0.00  0.00    +0.004 A 
ATOM     28  C   UNL     1       8.241  -1.167   5.817  0.00  0.00    +0.038 A 
ATOM     29  C   UNL     1       8.358  -1.246   7.194  0.00  0.00    +0.123 A 
ATOM     30  C   UNL     1       7.340  -1.810   7.944  0.00  0.00    +0.038 A 
ATOM     31  C   UNL     1       6.205  -2.289   7.317  0.00  0.00    +0.004 A 
ATOM     32  F   UNL     1       9.466  -0.774   7.806  0.00  0.00    -0.205 F 
ENDBRANCH  25  26
ENDBRANCH   7  25
TORSDOF 6
