REMARK  Name = ZINC13500499
REMARK  16 active torsions:
REMARK  status: ('A' for Active; 'I' for Inactive)
REMARK    1  A    between atoms: C_1  and  C_2
REMARK    2  A    between atoms: C_2  and  C_3
REMARK    3  A    between atoms: C_3  and  C_4
REMARK    4  A    between atoms: C_3  and  C_5
REMARK    5  A    between atoms: C_3  and  N_6
REMARK    6  A    between atoms: C_7  and  C_11
REMARK    7  A    between atoms: C_11  and  C_13
REMARK    8  A    between atoms: C_11  and  N_74
REMARK    9  A    between atoms: C_13  and  C_14
REMARK   10  A    between atoms: C_13  and  C_15
REMARK   11  A    between atoms: C_16  and  C_17
REMARK   12  A    between atoms: C_16  and  N_74
REMARK   13  A    between atoms: C_17  and  C_18
REMARK   14  A    between atoms: C_24  and  C_25
REMARK   15  A    between atoms: C_24  and  N_74
REMARK   16  A    between atoms: C_31  and  C_37
REMARK                            x       y       z     vdW  Elec       q    Type
REMARK                         _______ _______ _______ _____ _____    ______ ____
ROOT
ATOM      1  N   UNL     1      -0.865   0.825  -0.090  0.00  0.00    +0.390 N 
ATOM      2  H   UNL     1      -1.303   1.707  -0.383  0.00  0.00    -0.080 HD
ENDROOT
BRANCH   1   3
ATOM      3  C   UNL     1      -1.923  -0.127   0.308  0.00  0.00    +0.006 C 
BRANCH   3   5
ATOM      4  N   UNL     1      -3.926   1.434   0.539  0.00  0.00    -0.225 N 
ATOM      5  C   UNL     1      -2.989   0.624   1.064  0.00  0.00    +0.139 A 
ATOM      6  N   UNL     1      -3.185   0.611   2.360  0.00  0.00    -0.115 NA
ATOM      7  N   UNL     1      -4.187   1.379   2.618  0.00  0.00    -0.023 NA
ATOM      8  N   UNL     1      -4.639   1.876   1.520  0.00  0.00    -0.043 NA
BRANCH   4   9
ATOM      9  C   UNL     1      -4.105   1.754  -0.879  0.00  0.00    +0.061 C 
ATOM     10  C   UNL     1      -2.798   2.314  -1.444  0.00  0.00    +0.036 C 
ATOM     11  C   UNL     1      -4.489   0.486  -1.644  0.00  0.00    +0.036 C 
BRANCH   9  13
ATOM     12  C   UNL     1      -5.401   3.131  -2.513  0.00  0.00    +0.006 C 
ATOM     13  C   UNL     1      -5.215   2.797  -1.031  0.00  0.00    +0.026 C 
ENDBRANCH   9  13
ENDBRANCH   4   9
ENDBRANCH   3   5
BRANCH   3  14
ATOM     14  C   UNL     1      -1.345  -1.227   1.200  0.00  0.00    -0.024 C 
ATOM     15  C   UNL     1      -2.431  -2.261   1.504  0.00  0.00    +0.006 C 
ATOM     16  C   UNL     1      -0.180  -1.909   0.478  0.00  0.00    +0.006 C 
ENDBRANCH   3  14
ENDBRANCH   1   3
BRANCH   1  17
ATOM     17  C   UNL     1       0.032   1.091   1.055  0.00  0.00    -0.073 C 
BRANCH  17  18
ATOM     18  C   UNL     1      -0.655   2.083   1.995  0.00  0.00    +0.016 C 
BRANCH  18  19
ATOM     19  C   UNL     1       0.299   2.480   3.091  0.00  0.00    -0.049 A 
ATOM     20  C   UNL     1       0.412   1.698   4.226  0.00  0.00    +0.003 A 
ATOM     21  C   UNL     1       1.292   2.059   5.229  0.00  0.00    +0.000 A 
ATOM     22  C   UNL     1       2.051   3.208   5.103  0.00  0.00    +0.000 A 
ATOM     23  C   UNL     1       1.934   3.992   3.971  0.00  0.00    +0.000 A 
ATOM     24  C   UNL     1       1.058   3.628   2.965  0.00  0.00    +0.003 A 
ENDBRANCH  18  19
ENDBRANCH  17  18
ENDBRANCH   1  17
BRANCH   1  25
ATOM     25  C   UNL     1      -0.090   0.276  -1.222  0.00  0.00    -0.037 C 
BRANCH  25  26
ATOM     26  C   UNL     1      -0.905   0.420  -2.481  0.00  0.00    +0.001 A 
ATOM     27  C   UNL     1      -0.763   1.525  -3.254  0.00  0.00    +0.017 A 
ATOM     28  C   UNL     1      -1.566   1.633  -4.474  0.00  0.00    -0.001 A 
ATOM     29  C   UNL     1      -1.460   2.747  -5.314  0.00  0.00    +0.010 A 
ATOM     30  C   UNL     1      -2.227   2.820  -6.442  0.00  0.00    +0.001 A 
ATOM     31  C   UNL     1      -3.111   1.798  -6.762  0.00  0.00    +0.005 A 
ATOM     32  C   UNL     1      -3.232   0.693  -5.949  0.00  0.00    -0.026 A 
ATOM     33  C   UNL     1      -2.462   0.596  -4.795  0.00  0.00    +0.052 A 
ATOM     34  N   UNL     1      -2.562  -0.499  -3.964  0.00  0.00    -0.322 N 
ATOM     35  H   UNL     1      -3.180  -1.213  -4.187  0.00  0.00    +0.169 HD
ATOM     36  C   UNL     1      -1.817  -0.592  -2.849  0.00  0.00    +0.251 A 
ATOM     37  O   UNL     1      -1.932  -1.575  -2.137  0.00  0.00    -0.268 OA
ATOM     38  C   UNL     1      -4.197  -0.408  -6.309  0.00  0.00    +0.046 C 
ENDBRANCH  25  26
ENDBRANCH   1  25
TORSDOF 10
