REMARK  Name = ZINC05620613
REMARK  7 active torsions:
REMARK  status: ('A' for Active; 'I' for Inactive)
REMARK    1  A    between atoms: C_1  and  C_2
REMARK    2  A    between atoms: C_2  and  C_20
REMARK    3  A    between atoms: N_3  and  N_4
REMARK    4  A    between atoms: C_5  and  C_7
REMARK    5  A    between atoms: C_7  and  C_8
REMARK    6  A    between atoms: C_7  and  C_14
REMARK    7  A    between atoms: C_23  and  N_26
REMARK                            x       y       z     vdW  Elec       q    Type
REMARK                         _______ _______ _______ _____ _____    ______ ____
ROOT
ATOM      1  N   UNL     1       1.044   1.290   2.411  0.00  0.00    -0.206 N 
ATOM      2  C   UNL     1       1.054   2.272   1.488  0.00  0.00    +0.244 C 
ATOM      3  O   UNL     1       0.433   3.296   1.685  0.00  0.00    -0.273 OA
ATOM      4  H   UNL     1       1.540   0.472   2.254  0.00  0.00    +0.177 HD
ENDROOT
BRANCH   1   7
ATOM      5  C   UNL     1      -0.491   0.653   5.747  0.00  0.00    +0.068 C 
ATOM      6  C   UNL     1       0.405   0.563   4.539  0.00  0.00    +0.063 C 
ATOM      7  N   UNL     1       0.316   1.452   3.597  0.00  0.00    -0.185 NA
BRANCH   6   8
ATOM      8  C   UNL     1       1.383  -0.535   4.427  0.00  0.00    -0.002 A 
ATOM      9  C   UNL     1       1.062  -1.811   4.895  0.00  0.00    +0.012 A 
ATOM     10  C   UNL     1       1.980  -2.835   4.782  0.00  0.00    +0.033 A 
ATOM     11  C   UNL     1       3.220  -2.597   4.216  0.00  0.00    +0.126 A 
ATOM     12  C   UNL     1       3.547  -1.334   3.755  0.00  0.00    +0.033 A 
ATOM     13  C   UNL     1       2.637  -0.302   3.857  0.00  0.00    +0.012 A 
BRANCH  11  14
ATOM     14  N   UNL     1       4.202  -3.699   4.103  0.00  0.00    +0.056 N 
ATOM     15  O   UNL     1       5.294  -3.493   3.606  0.00  0.00    -0.126 OA
ATOM     16  O   UNL     1       3.917  -4.812   4.508  0.00  0.00    -0.126 OA
ENDBRANCH  11  14
ENDBRANCH   6   8
ENDBRANCH   1   7
BRANCH   2  17
ATOM     17  C   UNL     1       1.837   2.099   0.212  0.00  0.00    +0.136 C 
BRANCH  17  18
ATOM     18  C   UNL     1       3.293   1.893   0.541  0.00  0.00    -0.031 A 
ATOM     19  C   UNL     1       3.947   2.782   1.373  0.00  0.00    +0.005 A 
ATOM     20  C   UNL     1       5.282   2.589   1.678  0.00  0.00    +0.000 A 
ATOM     21  C   UNL     1       5.965   1.514   1.143  0.00  0.00    +0.000 A 
ATOM     22  C   UNL     1       5.313   0.628   0.306  0.00  0.00    +0.000 A 
ATOM     23  C   UNL     1       3.977   0.817   0.005  0.00  0.00    +0.005 A 
ENDBRANCH  17  18
BRANCH  17  24
ATOM     24  C   UNL     1       1.685   3.331  -0.642  0.00  0.00    -0.031 A 
ATOM     25  C   UNL     1       2.103   4.559  -0.165  0.00  0.00    +0.005 A 
ATOM     26  C   UNL     1       1.968   5.689  -0.950  0.00  0.00    +0.000 A 
ATOM     27  C   UNL     1       1.405   5.592  -2.209  0.00  0.00    +0.000 A 
ATOM     28  C   UNL     1       0.981   4.365  -2.684  0.00  0.00    +0.000 A 
ATOM     29  C   UNL     1       1.121   3.234  -1.901  0.00  0.00    +0.005 A 
ENDBRANCH  17  24
ENDBRANCH   2  17
TORSDOF 6
