REMARK  Name = ZINC21226477
REMARK  9 active torsions:
REMARK  status: ('A' for Active; 'I' for Inactive)
REMARK    1  A    between atoms: C_1  and  C_2
REMARK    2  A    between atoms: C_6  and  C_8
REMARK    3  A    between atoms: C_13  and  C_18
REMARK    4  A    between atoms: C_21  and  O_26
REMARK    5  A    between atoms: C_22  and  O_24
REMARK    6  A    between atoms: O_24  and  C_25
REMARK    7  A    between atoms: O_26  and  C_27
REMARK    8  A    between atoms: C_27  and  C_28
REMARK    9  A    between atoms: C_27  and  C_29
REMARK                            x       y       z     vdW  Elec       q    Type
REMARK                         _______ _______ _______ _____ _____    ______ ____
ROOT
ATOM      1  C   UNL     1      -5.656  -1.859   0.421  0.00  0.00    +0.136 C 
ATOM      2  C   UNL     1      -4.494  -0.896   0.367  0.00  0.00    +0.036 C 
ATOM      3  C   UNL     1      -3.775  -0.589  -0.726  0.00  0.00    +0.017 C 
ATOM      4  C   UNL     1      -2.602   0.372  -0.628  0.00  0.00    +0.059 C 
ATOM      5  C   UNL     1      -2.886   1.431   0.436  0.00  0.00    +0.032 C 
ATOM      6  C   UNL     1      -3.088   0.708   1.772  0.00  0.00    +0.088 C 
ATOM      7  C   UNL     1      -4.189  -0.297   1.612  0.00  0.00    +0.163 C 
ATOM      8  O   UNL     1      -4.844  -0.609   2.587  0.00  0.00    -0.292 OA
ATOM      9  N   UNL     1      -3.997  -1.088  -1.968  0.00  0.00    -0.316 N 
ATOM     10  C   UNL     1      -4.210  -2.431  -2.256  0.00  0.00    +0.052 A 
ATOM     11  C   UNL     1      -3.329  -3.171  -3.025  0.00  0.00    +0.025 A 
ATOM     12  C   UNL     1      -3.624  -4.494  -3.311  0.00  0.00    +0.002 A 
ATOM     13  C   UNL     1      -4.789  -5.067  -2.835  0.00  0.00    +0.002 A 
ATOM     14  C   UNL     1      -5.662  -4.333  -2.051  0.00  0.00    +0.025 A 
ATOM     15  C   UNL     1      -5.360  -3.016  -1.746  0.00  0.00    +0.049 A 
ATOM     16  N   UNL     1      -6.153  -2.271  -0.874  0.00  0.00    -0.331 N 
ATOM     17  H   UNL     1      -4.018  -0.412  -2.836  0.00  0.00    +0.152 HD
ATOM     18  H   UNL     1      -7.171  -1.998  -1.185  0.00  0.00    +0.147 HD
ENDROOT
BRANCH   1  24
ATOM     19  C   UNL     1      -6.128  -4.900   4.367  0.00  0.00    +0.044 C 
ATOM     20  C   UNL     1      -5.451  -4.541   3.070  0.00  0.00    -0.050 A 
ATOM     21  C   UNL     1      -4.434  -5.338   2.577  0.00  0.00    +0.003 A 
ATOM     22  C   UNL     1      -3.813  -5.009   1.387  0.00  0.00    +0.001 A 
ATOM     23  C   UNL     1      -4.208  -3.883   0.689  0.00  0.00    +0.006 A 
ATOM     24  C   UNL     1      -5.225  -3.086   1.181  0.00  0.00    -0.023 A 
ATOM     25  C   UNL     1      -5.843  -3.413   2.374  0.00  0.00    +0.009 A 
ENDBRANCH   1  24
BRANCH   5  26
ATOM     26  C   UNL     1      -1.717   2.377   0.539  0.00  0.00    -0.040 A 
ATOM     27  C   UNL     1      -0.460   1.890   0.845  0.00  0.00    +0.008 A 
ATOM     28  C   UNL     1       0.616   2.753   0.936  0.00  0.00    +0.050 A 
ATOM     29  C   UNL     1       0.434   4.111   0.726  0.00  0.00    +0.162 A 
ATOM     30  C   UNL     1      -0.832   4.602   0.424  0.00  0.00    +0.162 A 
ATOM     31  C   UNL     1      -1.906   3.732   0.334  0.00  0.00    +0.053 A 
BRANCH  30  32
ATOM     32  O   UNL     1      -1.015   5.934   0.218  0.00  0.00    -0.491 OA
ATOM     33  C   UNL     1      -2.342   6.367  -0.088  0.00  0.00    +0.277 C 
ENDBRANCH  30  32
BRANCH  29  34
ATOM     34  O   UNL     1       1.492   4.962   0.815  0.00  0.00    -0.486 OA
BRANCH  34  35
ATOM     35  C   UNL     1       2.781   4.376   1.008  0.00  0.00    +0.167 C 
ATOM     36  C   UNL     1       3.858   5.330   0.487  0.00  0.00    +0.051 C 
ATOM     37  C   UNL     1       3.006   4.117   2.499  0.00  0.00    +0.051 C 
ENDBRANCH  34  35
ENDBRANCH  29  34
ENDBRANCH   5  26
TORSDOF 5
