REMARK  Name = ZINC33924044
REMARK  9 active torsions:
REMARK  status: ('A' for Active; 'I' for Inactive)
REMARK    1  A    between atoms: C_1  and  O_2
REMARK    2  A    between atoms: O_2  and  C_3
REMARK    3  A    between atoms: C_5  and  C_22
REMARK    4  A    between atoms: C_8  and  O_9
REMARK    5  A    between atoms: O_9  and  C_10
REMARK    6  A    between atoms: C_10  and  C_12
REMARK    7  A    between atoms: N_23  and  N_24
REMARK    8  A    between atoms: C_25  and  C_27
REMARK    9  A    between atoms: C_29  and  C_35
REMARK                            x       y       z     vdW  Elec       q    Type
REMARK                         _______ _______ _______ _____ _____    ______ ____
ROOT
ATOM      1  C   UNL     1       0.928  -2.083  -0.288  0.00  0.00    +0.163 A 
ATOM      2  C   UNL     1       0.837  -1.309  -1.431  0.00  0.00    +0.059 A 
ATOM      3  C   UNL     1       1.748  -1.498  -2.473  0.00  0.00    -0.002 A 
ATOM      4  C   UNL     1       2.747  -2.468  -2.356  0.00  0.00    +0.013 A 
ATOM      5  C   UNL     1       2.832  -3.236  -1.214  0.00  0.00    +0.051 A 
ATOM      6  C   UNL     1       1.930  -3.045  -0.177  0.00  0.00    +0.173 A 
ENDROOT
BRANCH   1   8
ATOM      7  C   UNL     1      -0.958  -0.898   0.545  0.00  0.00    +0.277 C 
ATOM      8  O   UNL     1       0.043  -1.902   0.728  0.00  0.00    -0.491 OA
ENDBRANCH   1   8
BRANCH   3   9
ATOM      9  C   UNL     1       1.655  -0.676  -3.693  0.00  0.00    +0.138 C 
ATOM     10  N   UNL     1       2.384  -0.966  -4.727  0.00  0.00    -0.188 NA
BRANCH  10  11
ATOM     11  N   UNL     1       2.838  -2.277  -4.920  0.00  0.00    -0.206 N 
ATOM     12  C   UNL     1       3.701  -2.552  -5.917  0.00  0.00    +0.245 C 
ATOM     13  O   UNL     1       4.085  -1.664  -6.649  0.00  0.00    -0.273 OA
ATOM     14  H   UNL     1       2.530  -2.987  -4.335  0.00  0.00    +0.177 HD
BRANCH  12  15
ATOM     15  C   UNL     1       4.189  -3.963  -6.124  0.00  0.00    +0.171 C 
ATOM     16  C   UNL     1       5.582  -4.153  -5.481  0.00  0.00    +0.057 C 
ATOM     17  C   UNL     1       6.521  -3.874  -6.676  0.00  0.00    +0.113 C 
ATOM     18  N   UNL     1       5.732  -4.183  -7.874  0.00  0.00    -0.314 N 
ATOM     19  C   UNL     1       4.415  -4.235  -7.595  0.00  0.00    +0.226 C 
ATOM     20  O   UNL     1       3.540  -4.466  -8.402  0.00  0.00    -0.275 OA
ATOM     21  H   UNL     1       6.111  -4.332  -8.755  0.00  0.00    +0.149 HD
BRANCH  16  22
ATOM     22  C   UNL     1       5.806  -3.156  -4.374  0.00  0.00    -0.042 A 
ATOM     23  C   UNL     1       6.009  -1.822  -4.675  0.00  0.00    +0.004 A 
ATOM     24  C   UNL     1       6.214  -0.908  -3.659  0.00  0.00    +0.000 A 
ATOM     25  C   UNL     1       6.216  -1.327  -2.342  0.00  0.00    +0.000 A 
ATOM     26  C   UNL     1       6.012  -2.661  -2.040  0.00  0.00    +0.000 A 
ATOM     27  C   UNL     1       5.803  -3.575  -3.056  0.00  0.00    +0.004 A 
ENDBRANCH  16  22
ENDBRANCH  12  15
ENDBRANCH  10  11
ENDBRANCH   3   9
BRANCH   6  28
ATOM     28  O   UNL     1       2.021  -3.801   0.949  0.00  0.00    -0.419 OA
BRANCH  28  29
ATOM     29  C   UNL     1       1.271  -4.918   1.023  0.00  0.00    +0.345 C 
ATOM     30  O   UNL     1       0.612  -5.273   0.066  0.00  0.00    -0.245 OA
BRANCH  29  31
ATOM     31  C   UNL     1       1.249  -5.709   2.266  0.00  0.00    +0.067 A 
ATOM     32  C   UNL     1       2.085  -5.386   3.328  0.00  0.00    +0.015 A 
ATOM     33  C   UNL     1       2.061  -6.133   4.497  0.00  0.00    +0.001 A 
ATOM     34  C   UNL     1       1.230  -7.200   4.652  0.00  0.00    +0.008 A 
ATOM     35  C   UNL     1       0.358  -7.584   3.619  0.00  0.00    -0.017 A 
ATOM     36  C   UNL     1       0.343  -6.847   2.410  0.00  0.00    -0.004 A 
ATOM     37  C   UNL     1      -0.529  -7.223   1.381  0.00  0.00    +0.009 A 
ATOM     38  C   UNL     1      -1.358  -8.291   1.557  0.00  0.00    +0.001 A 
ATOM     39  C   UNL     1      -1.350  -9.014   2.748  0.00  0.00    +0.001 A 
ATOM     40  C   UNL     1      -0.506  -8.684   3.763  0.00  0.00    +0.008 A 
ENDBRANCH  29  31
ENDBRANCH  28  29
ENDBRANCH   6  28
TORSDOF 8
