REMARK  Name = ZINC35415798
REMARK  7 active torsions:
REMARK  status: ('A' for Active; 'I' for Inactive)
REMARK    1  A    between atoms: C_1  and  N_2
REMARK    2  A    between atoms: C_3  and  C_13
REMARK    3  A    between atoms: C_5  and  C_7
REMARK    4  A    between atoms: C_22  and  C_24
REMARK    5  A    between atoms: C_24  and  N_25
REMARK    6  A    between atoms: N_25  and  C_26
REMARK    7  A    between atoms: C_26  and  C_27
REMARK                            x       y       z     vdW  Elec       q    Type
REMARK                         _______ _______ _______ _____ _____    ______ ____
ROOT
ATOM      1  C   UNL     1      -0.081  -0.129  -2.452  0.00  0.00    +0.024 C 
ATOM      2  C   UNL     1       1.313  -0.171  -3.082  0.00  0.00    -0.069 C 
ATOM      3  N   UNL     1       1.288  -0.984  -4.300  0.00  0.00    +0.381 N 
ATOM      4  C   UNL     1       0.377  -0.404  -5.289  0.00  0.00    -0.078 C 
ATOM      5  C   UNL     1      -1.048  -0.369  -4.733  0.00  0.00    -0.015 C 
ATOM      6  C   UNL     1      -1.043  -0.957  -3.315  0.00  0.00    -0.007 C 
ATOM      7  C   UNL     1      -0.509  -2.393  -3.392  0.00  0.00    -0.013 C 
ATOM      8  C   UNL     1       0.904  -2.364  -3.992  0.00  0.00    -0.086 C 
ATOM      9  H   UNL     1       2.216  -0.992  -4.697  0.00  0.00    -0.082 HD
ENDROOT
BRANCH   1  12
ATOM     10  C   UNL     1       1.999   0.533  -0.251  0.00  0.00    +0.172 C 
ATOM     11  N   UNL     1       0.887  -0.411  -0.112  0.00  0.00    -0.271 N 
ATOM     12  C   UNL     1      -0.025  -0.708  -1.062  0.00  0.00    +0.041 A 
ATOM     13  C   UNL     1      -0.880  -1.619  -0.542  0.00  0.00    +0.048 A 
ATOM     14  C   UNL     1      -0.477  -1.888   0.770  0.00  0.00    +0.066 A 
ATOM     15  N   UNL     1       0.586  -1.169   1.027  0.00  0.00    -0.176 NA
BRANCH  14  16
ATOM     16  C   UNL     1      -1.146  -2.846   1.722  0.00  0.00    +0.040 C 
ATOM     17  C   UNL     1      -1.688  -4.045   0.942  0.00  0.00    +0.010 C 
ATOM     18  C   UNL     1      -2.368  -5.017   1.908  0.00  0.00    +0.001 C 
ATOM     19  C   UNL     1      -3.522  -4.307   2.618  0.00  0.00    +0.000 C 
ATOM     20  C   UNL     1      -2.980  -3.108   3.398  0.00  0.00    +0.001 C 
ATOM     21  C   UNL     1      -2.300  -2.136   2.432  0.00  0.00    +0.010 C 
ENDBRANCH  14  16
ENDBRANCH   1  12
BRANCH   8  22
ATOM     22  C   UNL     1       1.897  -2.954  -2.988  0.00  0.00    -0.098 C 
BRANCH  22  23
ATOM     23  N   UNL     1       3.261  -2.829  -3.517  0.00  0.00    +0.381 N 
ATOM     24  H   UNL     1       3.330  -3.328  -4.391  0.00  0.00    -0.086 HD
ATOM     25  H   UNL     1       3.476  -1.855  -3.667  0.00  0.00    -0.086 HD
BRANCH  23  26
ATOM     26  C   UNL     1       4.214  -3.397  -2.553  0.00  0.00    -0.045 C 
BRANCH  26  27
ATOM     27  C   UNL     1       5.614  -3.268  -3.095  0.00  0.00    -0.039 A 
ATOM     28  C   UNL     1       6.327  -4.231  -3.700  0.00  0.00    +0.085 A 
ATOM     29  N   UNL     1       7.556  -3.747  -4.057  0.00  0.00    -0.360 N 
ATOM     30  H   UNL     1       8.247  -4.258  -4.508  0.00  0.00    +0.165 HD
ATOM     31  C   UNL     1       7.666  -2.427  -3.682  0.00  0.00    +0.047 A 
ATOM     32  C   UNL     1       6.452  -2.067  -3.068  0.00  0.00    +0.001 A 
ATOM     33  C   UNL     1       6.273  -0.769  -2.586  0.00  0.00    +0.010 A 
ATOM     34  C   UNL     1       7.277   0.147  -2.717  0.00  0.00    +0.001 A 
ATOM     35  C   UNL     1       8.475  -0.201  -3.325  0.00  0.00    +0.002 A 
ATOM     36  C   UNL     1       8.677  -1.479  -3.799  0.00  0.00    +0.026 A 
ENDBRANCH  26  27
ENDBRANCH  23  26
ENDBRANCH  22  23
ENDBRANCH   8  22
TORSDOF 6
