REMARK  Name = ZINC38658716
REMARK  12 active torsions:
REMARK  status: ('A' for Active; 'I' for Inactive)
REMARK    1  A    between atoms: C_1  and  O_2
REMARK    2  A    between atoms: O_2  and  C_3
REMARK    3  A    between atoms: C_7  and  C_9
REMARK    4  A    between atoms: C_9  and  O_11
REMARK    5  A    between atoms: O_11  and  C_12
REMARK    6  A    between atoms: C_19  and  N_35
REMARK    7  A    between atoms: C_20  and  C_33
REMARK    8  A    between atoms: C_21  and  C_23
REMARK    9  A    between atoms: C_27  and  O_31
REMARK   10  A    between atoms: C_28  and  O_29
REMARK   11  A    between atoms: O_29  and  C_30
REMARK   12  A    between atoms: O_31  and  C_32
REMARK                            x       y       z     vdW  Elec       q    Type
REMARK                         _______ _______ _______ _____ _____    ______ ____
ROOT
ATOM      1  C   UNL     1       3.040  -6.431  -4.516  0.00  0.00    +0.135 A 
ATOM      2  C   UNL     1       2.325  -6.911  -3.428  0.00  0.00    +0.047 A 
ATOM      3  C   UNL     1       2.159  -8.271  -3.256  0.00  0.00    +0.012 A 
ATOM      4  C   UNL     1       2.704  -9.160  -4.165  0.00  0.00    +0.008 A 
ATOM      5  C   UNL     1       3.419  -8.687  -5.254  0.00  0.00    +0.138 A 
ATOM      6  C   UNL     1       3.581  -7.319  -5.432  0.00  0.00    +0.093 A 
ATOM      7  O   UNL     1       3.960  -9.543  -6.156  0.00  0.00    -0.441 OA
ATOM      8  C   UNL     1       4.151 -10.831  -5.827  0.00  0.00    +0.199 C 
ATOM      9  C   UNL     1       3.494 -11.412  -4.795  0.00  0.00    +0.098 C 
ATOM     10  C   UNL     1       2.512 -10.640  -3.960  0.00  0.00    +0.102 C 
ENDROOT
BRANCH  10  11
ATOM     11  C   UNL     1       1.109 -11.021  -4.359  0.00  0.00    +0.011 A 
ATOM     12  C   UNL     1       0.648 -10.727  -5.629  0.00  0.00    +0.008 A 
ATOM     13  C   UNL     1      -0.638 -11.076  -5.998  0.00  0.00    +0.004 A 
ATOM     14  C   UNL     1      -1.468 -11.719  -5.099  0.00  0.00    +0.049 A 
ATOM     15  C   UNL     1      -1.012 -12.016  -3.826  0.00  0.00    +0.162 A 
ATOM     16  C   UNL     1       0.285 -11.671  -3.456  0.00  0.00    +0.166 A 
BRANCH  16  17
ATOM     17  O   UNL     1       0.739 -11.966  -2.208  0.00  0.00    -0.491 OA
ATOM     18  C   UNL     1       0.427 -11.037  -1.168  0.00  0.00    +0.277 C 
ENDBRANCH  16  17
BRANCH  15  19
ATOM     19  O   UNL     1      -1.828 -12.649  -2.940  0.00  0.00    -0.491 OA
ATOM     20  C   UNL     1      -3.143 -12.978  -3.391  0.00  0.00    +0.277 C 
ENDBRANCH  15  19
ENDBRANCH  10  11
BRANCH   8  21
ATOM     21  N   UNL     1       5.037 -11.581  -6.559  0.00  0.00    -0.328 N 
ATOM     22  H   UNL     1       5.514 -11.180  -7.302  0.00  0.00    +0.145 HD
ATOM     23  H   UNL     1       5.185 -12.513  -6.334  0.00  0.00    +0.145 HD
ENDBRANCH   8  21
BRANCH   9  24
ATOM     24  C   UNL     1       3.741 -12.790  -4.493  0.00  0.00    +0.101 C 
ATOM     25  N   UNL     1       3.937 -13.883  -4.253  0.00  0.00    -0.191 NA
ENDBRANCH   9  24
BRANCH   1  26
ATOM     26  O   UNL     1       3.204  -5.093  -4.687  0.00  0.00    -0.422 OA
BRANCH  26  27
ATOM     27  C   UNL     1       4.133  -4.469  -3.937  0.00  0.00    +0.345 C 
ATOM     28  O   UNL     1       4.731  -5.083  -3.076  0.00  0.00    -0.245 OA
BRANCH  27  33
ATOM     29  C   UNL     1       5.653  -1.048  -3.601  0.00  0.00    +0.121 A 
ATOM     30  C   UNL     1       4.966  -0.352  -4.587  0.00  0.00    +0.045 A 
ATOM     31  C   UNL     1       4.013  -0.994  -5.356  0.00  0.00    +0.004 A 
ATOM     32  C   UNL     1       3.738  -2.330  -5.149  0.00  0.00    +0.015 A 
ATOM     33  C   UNL     1       4.424  -3.038  -4.161  0.00  0.00    +0.063 A 
ATOM     34  C   UNL     1       5.390  -2.391  -3.389  0.00  0.00    +0.060 A 
BRANCH  29  36
ATOM     35  C   UNL     1       6.809   0.973  -3.121  0.00  0.00    +0.277 C 
ATOM     36  O   UNL     1       6.589  -0.412  -2.848  0.00  0.00    -0.495 OA
ENDBRANCH  29  36
ENDBRANCH  27  33
ENDBRANCH  26  27
ENDBRANCH   1  26
TORSDOF 9
