REMARK  Name = ZINC55897314
REMARK  5 active torsions:
REMARK  status: ('A' for Active; 'I' for Inactive)
REMARK    1  A    between atoms: C_1  and  C_2
REMARK    2  A    between atoms: C_2  and  C_3
REMARK    3  A    between atoms: N_9  and  C_10
REMARK    4  A    between atoms: C_10  and  C_11
REMARK    5  A    between atoms: C_11  and  C_12
REMARK                            x       y       z     vdW  Elec       q    Type
REMARK                         _______ _______ _______ _____ _____    ______ ____
ROOT
ATOM      1  C   UNL     1      -2.450   1.993   2.662  0.00  0.00    +0.077 C 
ENDROOT
BRANCH   1   2
ATOM      2  C   UNL     1      -2.283   3.487   2.764  0.00  0.00    +0.214 C 
ATOM      3  O   UNL     1      -1.830   4.112   1.829  0.00  0.00    -0.276 OA
ATOM      4  N   UNL     1      -2.637   4.129   3.895  0.00  0.00    -0.297 N 
ATOM      5  C   UNL     1      -2.484   5.588   4.004  0.00  0.00    +0.113 C 
ATOM      6  C   UNL     1      -3.882   6.210   4.142  0.00  0.00    +0.061 C 
ATOM      7  C   UNL     1      -4.681   5.386   5.099  0.00  0.00    -0.004 A 
ATOM      8  C   UNL     1      -4.424   4.121   5.529  0.00  0.00    -0.020 A 
ATOM      9  C   UNL     1      -5.338   3.567   6.425  0.00  0.00    +0.013 A 
ATOM     10  C   UNL     1      -6.412   4.285   6.826  0.00  0.00    +0.046 A 
ATOM     11  S   UNL     1      -6.182   5.818   5.939  0.00  0.00    -0.101 S 
ATOM     12  C   UNL     1      -3.187   3.382   5.034  0.00  0.00    +0.143 C 
ENDBRANCH   1   2
BRANCH   1  13
ATOM     13  C   UNL     1      -1.976   1.520   1.286  0.00  0.00    -0.069 C 
BRANCH  13  19
ATOM     14  C   UNL     1      -1.571  -0.405  -0.084  0.00  0.00    -0.069 C 
ATOM     15  C   UNL     1      -1.665  -1.931  -0.156  0.00  0.00    -0.015 C 
ATOM     16  C   UNL     1      -3.135  -2.351  -0.067  0.00  0.00    -0.003 C 
ATOM     17  C   UNL     1      -3.737  -1.793   1.226  0.00  0.00    -0.019 C 
ATOM     18  C   UNL     1      -3.567  -0.273   1.247  0.00  0.00    -0.078 C 
ATOM     19  N   UNL     1      -2.139   0.063   1.186  0.00  0.00    +0.382 N 
ATOM     20  H   UNL     1      -1.656  -0.380   1.953  0.00  0.00    -0.081 HD
BRANCH  14  22
ATOM     21  C   UNL     1       0.472  -0.418  -1.521  0.00  0.00    +0.002 C 
ATOM     22  C   UNL     1      -0.104   0.020  -0.173  0.00  0.00    -0.019 C 
ENDBRANCH  14  22
ENDBRANCH  13  19
ENDBRANCH   1  13
TORSDOF 4
