REMARK  Name = ZINC04682051
REMARK  5 active torsions:
REMARK  status: ('A' for Active; 'I' for Inactive)
REMARK    1  A    between atoms: C_3  and  C_10
REMARK    2  A    between atoms: C_5  and  N_7
REMARK    3  A    between atoms: N_11  and  O_12
REMARK    4  A    between atoms: O_12  and  C_13
REMARK    5  A    between atoms: C_13  and  C_15
REMARK                            x       y       z     vdW  Elec       q    Type
REMARK                         _______ _______ _______ _____ _____    ______ ____
ROOT
ATOM      1  C   UNL     1       3.658   2.162  -0.022  0.00  0.00    +0.163 C 
ATOM      2  N   UNL     1       3.643   3.463  -0.015  0.00  0.00    -0.059 NA
ATOM      3  N   UNL     1       4.863   1.484  -0.037  0.00  0.00    -0.340 N 
ATOM      4  H   UNL     1       4.874   0.514  -0.042  0.00  0.00    +0.144 HD
ATOM      5  H   UNL     1       5.698   1.978  -0.042  0.00  0.00    +0.144 HD
ENDROOT
BRANCH   1   8
ATOM      6  C   UNL     1      -0.017   1.379   0.010  0.00  0.00    +0.003 A 
ATOM      7  C   UNL     1       1.167   2.088   0.002  0.00  0.00    +0.011 A 
ATOM      8  C   UNL     1       2.384   1.407  -0.013  0.00  0.00    +0.020 A 
ATOM      9  C   UNL     1       2.397   0.012  -0.021  0.00  0.00    +0.044 A 
ATOM     10  C   UNL     1       1.206  -0.685  -0.013  0.00  0.00    +0.127 A 
ATOM     11  C   UNL     1       0.002  -0.004   0.002  0.00  0.00    +0.033 A 
BRANCH  10  12
ATOM     12  N   UNL     1       1.218  -2.165  -0.021  0.00  0.00    +0.056 N 
ATOM     13  O   UNL     1       2.269  -2.762  -0.035  0.00  0.00    -0.126 OA
ATOM     14  O   UNL     1       0.175  -2.778  -0.015  0.00  0.00    -0.126 OA
ENDBRANCH  10  12
ENDBRANCH   1   8
BRANCH   2  15
ATOM     15  O   UNL     1       4.862   4.185  -0.023  0.00  0.00    -0.310 OA
BRANCH  15  16
ATOM     16  C   UNL     1       4.706   5.522  -0.015  0.00  0.00    +0.368 C 
ATOM     17  O   UNL     1       3.590   6.004  -0.002  0.00  0.00    -0.243 OA
BRANCH  16  18
ATOM     18  C   UNL     1       5.890   6.403  -0.022  0.00  0.00    +0.080 A 
ATOM     19  C   UNL     1       7.174   5.852  -0.043  0.00  0.00    +0.018 A 
ATOM     20  C   UNL     1       8.276   6.680  -0.050  0.00  0.00    +0.021 A 
ATOM     21  C   UNL     1       8.114   8.056  -0.035  0.00  0.00    +0.042 A 
ATOM     22  C   UNL     1       6.845   8.610  -0.014  0.00  0.00    +0.040 A 
ATOM     23  C   UNL     1       5.732   7.792  -0.014  0.00  0.00    +0.056 A 
ATOM     24 CL   UNL     1       4.141   8.486   0.005  0.00  0.00    -0.083 Cl
ATOM     25 CL   UNL     1       9.507   9.091  -0.042  0.00  0.00    -0.083 Cl
ENDBRANCH  16  18
ENDBRANCH  15  16
ENDBRANCH   2  15
TORSDOF 5
