REMARK  Name = ZINC04546326
REMARK  3 active torsions:
REMARK  status: ('A' for Active; 'I' for Inactive)
REMARK    1  A    between atoms: C_1  and  C_2
REMARK    2  A    between atoms: C_7  and  C_8
REMARK    3  A    between atoms: C_16  and  C_17
REMARK                            x       y       z     vdW  Elec       q    Type
REMARK                         _______ _______ _______ _____ _____    ______ ____
ROOT
ATOM      1  C   UNL     1       4.953  -5.134  -0.769  0.00  0.00    +0.044 C 
ATOM      2  C   UNL     1       3.476  -4.893  -0.592  0.00  0.00    -0.044 A 
ATOM      3  C   UNL     1       2.998  -3.600  -0.496  0.00  0.00    +0.032 A 
ATOM      4  C   UNL     1       1.641  -3.382  -0.333  0.00  0.00    +0.079 A 
ATOM      5  C   UNL     1       0.754  -4.465  -0.266  0.00  0.00    +0.105 A 
ATOM      6  C   UNL     1       1.252  -5.768  -0.364  0.00  0.00    +0.048 A 
ATOM      7  C   UNL     1       2.606  -5.970  -0.526  0.00  0.00    -0.031 A 
ATOM      8  C   UNL     1       3.144  -7.373  -0.633  0.00  0.00    +0.045 C 
ATOM      9 BR   UNL     1       0.074  -7.244  -0.276  0.00  0.00    -0.048 Br
ATOM     10  N   UNL     1      -0.494  -3.952  -0.106  0.00  0.00    -0.220 NA
ATOM     11  C   UNL     1      -0.427  -2.654  -0.072  0.00  0.00    +0.182 A 
ATOM     12  N   UNL     1       0.870  -2.212  -0.207  0.00  0.00    -0.253 N 
ATOM     13  C   UNL     1       1.094  -0.890  -0.191  0.00  0.00    +0.272 A 
ATOM     14  O   UNL     1       2.225  -0.455  -0.307  0.00  0.00    -0.266 OA
ATOM     15  C   UNL     1      -0.005  -0.003  -0.036  0.00  0.00    +0.081 A 
ATOM     16  C   UNL     1      -0.016   1.360   0.009  0.00  0.00    +0.035 C 
ATOM     17  S   UNL     1      -1.368  -1.152   0.090  0.00  0.00    -0.046 S 
ENDROOT
BRANCH  16  18
ATOM     18  C   UNL     1       1.161   2.086  -0.281  0.00  0.00    +0.013 A 
ATOM     19  C   UNL     1       1.606   3.288   0.260  0.00  0.00    +0.015 A 
ATOM     20  C   UNL     1       2.801   3.776  -0.205  0.00  0.00    +0.008 A 
ATOM     21  C   UNL     1       3.475   3.082  -1.160  0.00  0.00    +0.046 A 
ATOM     22  S   UNL     1       2.461   1.705  -1.442  0.00  0.00    -0.097 S 
ENDBRANCH  16  18
TORSDOF 1
