REMARK  Name = ZINC64042778
REMARK  8 active torsions:
REMARK  status: ('A' for Active; 'I' for Inactive)
REMARK    1  A    between atoms: C_4  and  O_31
REMARK    2  A    between atoms: C_5  and  C_7
REMARK    3  A    between atoms: C_7  and  C_8
REMARK    4  A    between atoms: C_8  and  C_9
REMARK    5  A    between atoms: N_11  and  C_12
REMARK    6  A    between atoms: C_12  and  C_13
REMARK    7  A    between atoms: C_13  and  C_15
REMARK    8  A    between atoms: C_13  and  C_22
REMARK                            x       y       z     vdW  Elec       q    Type
REMARK                         _______ _______ _______ _____ _____    ______ ____
ROOT
ATOM      1  C   UNL     1       1.682  -6.870   3.984  0.00  0.00    +0.066 C 
ENDROOT
BRANCH   1   2
ATOM      2  C   UNL     1       1.825  -8.370   3.965  0.00  0.00    -0.033 C 
ATOM      3  C   UNL     1       2.866  -9.094   4.436  0.00  0.00    -0.000 A 
ATOM      4  C   UNL     1       4.129  -8.715   5.081  0.00  0.00    +0.010 A 
ATOM      5  C   UNL     1       4.995  -9.687   5.449  0.00  0.00    +0.001 A 
ATOM      6  C   UNL     1       4.716 -11.043   5.231  0.00  0.00    +0.002 A 
ATOM      7  C   UNL     1       3.577 -11.469   4.645  0.00  0.00    +0.026 A 
ATOM      8  C   UNL     1       2.596 -10.533   4.217  0.00  0.00    +0.043 A 
ATOM      9  N   UNL     1       1.433 -10.693   3.634  0.00  0.00    -0.380 N 
ATOM     10  C   UNL     1       0.830  -9.372   3.422  0.00  0.00    +0.145 C 
ATOM     11  H   UNL     1       1.035 -11.542   3.387  0.00  0.00    +0.160 HD
ENDBRANCH   1   2
BRANCH   1  12
ATOM     12  C   UNL     1       0.461  -6.492   4.782  0.00  0.00    -0.020 A 
ATOM     13  C   UNL     1      -0.786  -6.946   4.395  0.00  0.00    +0.006 A 
ATOM     14  C   UNL     1      -1.906  -6.599   5.127  0.00  0.00    +0.000 A 
ATOM     15  C   UNL     1      -1.781  -5.798   6.246  0.00  0.00    +0.001 A 
ATOM     16  C   UNL     1      -0.535  -5.344   6.635  0.00  0.00    +0.020 A 
ATOM     17  C   UNL     1       0.588  -5.695   5.906  0.00  0.00    +0.045 A 
ATOM     18 CL   UNL     1       2.154  -5.130   6.396  0.00  0.00    -0.083 Cl
ENDBRANCH   1  12
BRANCH   1  19
ATOM     19  C   UNL     1       1.535  -6.354   2.551  0.00  0.00    +0.116 C 
BRANCH  19  22
ATOM     20  C   UNL     1       1.393  -4.210   1.402  0.00  0.00    +0.213 C 
ATOM     21  O   UNL     1       1.299  -4.811   0.353  0.00  0.00    -0.276 OA
ATOM     22  N   UNL     1       1.516  -4.889   2.560  0.00  0.00    -0.314 N 
ATOM     23  H   UNL     1       1.591  -4.408   3.399  0.00  0.00    +0.149 HD
BRANCH  20  24
ATOM     24  C   UNL     1       1.374  -2.703   1.411  0.00  0.00    +0.100 C 
BRANCH  24  25
ATOM     25  C   UNL     1       1.227  -2.187  -0.022  0.00  0.00    +0.048 C 
BRANCH  25  30
ATOM     26  C   UNL     1      -0.017   1.378   0.010  0.00  0.00    +0.000 A 
ATOM     27  C   UNL     1       1.170   2.088   0.002  0.00  0.00    +0.004 A 
ATOM     28  C   UNL     1       2.377   1.417  -0.013  0.00  0.00    +0.045 A 
ATOM     29  C   UNL     1       2.399   0.030  -0.021  0.00  0.00    +0.120 A 
ATOM     30  C   UNL     1       1.207  -0.680  -0.013  0.00  0.00    -0.005 A 
ATOM     31  C   UNL     1       0.002  -0.004   0.002  0.00  0.00    +0.007 A 
BRANCH  29  32
ATOM     32  O   UNL     1       3.586  -0.632  -0.037  0.00  0.00    -0.506 OA
ATOM     33  H   UNL     1       3.938  -0.829   0.842  0.00  0.00    +0.292 HD
ENDBRANCH  29  32
ENDBRANCH  25  30
ENDBRANCH  24  25
ENDBRANCH  20  24
ENDBRANCH  19  22
ENDBRANCH   1  19
TORSDOF 8
