REMARK  Name = ZINC27667695
REMARK  12 active torsions:
REMARK  status: ('A' for Active; 'I' for Inactive)
REMARK    1  A    between atoms: C_1  and  C_2
REMARK    2  A    between atoms: C_2  and  C_3
REMARK    3  A    between atoms: C_2  and  C_4
REMARK    4  A    between atoms: C_4  and  C_6
REMARK    5  A    between atoms: C_4  and  N_26
REMARK    6  A    between atoms: N_8  and  C_9
REMARK    7  A    between atoms: C_9  and  C_10
REMARK    8  A    between atoms: C_10  and  C_12
REMARK    9  A    between atoms: C_10  and  N_20
REMARK   10  A    between atoms: C_15  and  O_18
REMARK   11  A    between atoms: O_18  and  C_19
REMARK   12  A    between atoms: C_27  and  C_29
REMARK                            x       y       z     vdW  Elec       q    Type
REMARK                         _______ _______ _______ _____ _____    ______ ____
ROOT
ATOM      1  C   UNL     1      -1.628  -1.804   0.086  0.00  0.00    +0.234 C 
ATOM      2  O   UNL     1      -0.718  -2.579  -0.119  0.00  0.00    -0.274 OA
ATOM      3  N   UNL     1      -1.395  -0.476   0.087  0.00  0.00    -0.315 N 
ATOM      4  H   UNL     1      -2.220   0.227   0.273  0.00  0.00    +0.149 HD
ENDROOT
BRANCH   1   5
ATOM      5  C   UNL     1      -3.019  -2.325   0.340  0.00  0.00    +0.162 C 
BRANCH   5   6
ATOM      6  N   UNL     1      -3.010  -3.789   0.287  0.00  0.00    -0.300 N 
ATOM      7  C   UNL     1      -3.949  -4.493   0.949  0.00  0.00    +0.250 C 
ATOM      8  O   UNL     1      -4.804  -3.913   1.590  0.00  0.00    -0.270 OA
ATOM      9  H   UNL     1      -2.236  -4.313  -0.293  0.00  0.00    +0.150 HD
BRANCH   7  10
ATOM     10  C   UNL     1      -3.940  -5.968   0.895  0.00  0.00    +0.107 A 
ATOM     11  C   UNL     1      -3.219  -6.701   1.844  0.00  0.00    +0.138 A 
ATOM     12  C   UNL     1      -3.220  -8.082   1.789  0.00  0.00    +0.039 A 
ATOM     13  C   UNL     1      -3.922  -8.739   0.795  0.00  0.00    +0.006 A 
ATOM     14  C   UNL     1      -4.633  -8.021  -0.150  0.00  0.00    +0.039 A 
ATOM     15  C   UNL     1      -4.647  -6.640  -0.107  0.00  0.00    +0.138 A 
ATOM     16  F   UNL     1      -5.342  -5.940  -1.031  0.00  0.00    -0.205 F 
ATOM     17  F   UNL     1      -2.528  -6.062   2.812  0.00  0.00    -0.205 F 
ENDBRANCH   7  10
ENDBRANCH   5   6
BRANCH   5  19
ATOM     18  C   UNL     1      -3.572  -2.340  -2.096  0.00  0.00    +0.009 C 
ATOM     19  C   UNL     1      -3.970  -1.782  -0.729  0.00  0.00    +0.012 C 
ATOM     20  C   UNL     1      -5.403  -2.208  -0.401  0.00  0.00    +0.009 C 
ENDBRANCH   5  19
ENDBRANCH   1   5
BRANCH   3  21
ATOM     21  C   UNL     1      -0.043   0.030  -0.160  0.00  0.00    +0.093 C 
BRANCH  21  22
ATOM     22  C   UNL     1      -0.032   1.552  -0.005  0.00  0.00    -0.020 C 
BRANCH  22  23
ATOM     23  N   UNL     1       1.338   2.052  -0.181  0.00  0.00    +0.385 N 
ATOM     24  C   UNL     1       2.253   1.432   0.786  0.00  0.00    -0.078 C 
ATOM     25  C   UNL     1       3.689   1.863   0.481  0.00  0.00    -0.019 C 
ATOM     26  C   UNL     1       3.787   3.389   0.565  0.00  0.00    -0.004 C 
ATOM     27  C   UNL     1       2.790   4.011  -0.417  0.00  0.00    -0.019 C 
ATOM     28  C   UNL     1       1.380   3.517  -0.087  0.00  0.00    -0.078 C 
ATOM     29  H   UNL     1       1.676   1.772  -1.190  0.00  0.00    -0.081 HD
ENDBRANCH  22  23
BRANCH  22  30
ATOM     30  C   UNL     1      -0.929   2.169  -1.047  0.00  0.00    -0.059 A 
ATOM     31  C   UNL     1      -0.471   2.336  -2.341  0.00  0.00    +0.005 A 
ATOM     32  C   UNL     1      -1.294   2.896  -3.299  0.00  0.00    +0.046 A 
ATOM     33  C   UNL     1      -2.576   3.302  -2.960  0.00  0.00    +0.120 A 
ATOM     34  C   UNL     1      -3.031   3.138  -1.659  0.00  0.00    +0.046 A 
ATOM     35  C   UNL     1      -2.207   2.572  -0.706  0.00  0.00    +0.005 A 
BRANCH  33  36
ATOM     36  O   UNL     1      -3.385   3.859  -3.899  0.00  0.00    -0.495 OA
ATOM     37  C   UNL     1      -2.850   3.996  -5.217  0.00  0.00    +0.277 C 
ENDBRANCH  33  36
ENDBRANCH  22  30
ENDBRANCH  21  22
ENDBRANCH   3  21
TORSDOF 9
