REMARK  Name = ZINC13500631
REMARK  11 active torsions:
REMARK  status: ('A' for Active; 'I' for Inactive)
REMARK    1  A    between atoms: C_1  and  C_2
REMARK    2  A    between atoms: C_9  and  C_14
REMARK    3  A    between atoms: C_14  and  N_69
REMARK    4  A    between atoms: C_15  and  N_69
REMARK    5  A    between atoms: C_20  and  C_22
REMARK    6  A    between atoms: C_20  and  C_34
REMARK    7  A    between atoms: C_20  and  N_69
REMARK    8  A    between atoms: N_26  and  C_27
REMARK    9  A    between atoms: C_27  and  C_28
REMARK   10  A    between atoms: C_34  and  C_35
REMARK   11  A    between atoms: C_34  and  C_36
REMARK                            x       y       z     vdW  Elec       q    Type
REMARK                         _______ _______ _______ _____ _____    ______ ____
ROOT
ATOM      1  N   UNL     1      -1.174   2.339   1.669  0.00  0.00    +0.391 N 
ATOM      2  H   UNL     1      -1.578   3.265   1.851  0.00  0.00    -0.080 HD
ENDROOT
BRANCH   1   3
ATOM      3  C   UNL     1      -0.173   2.457   0.588  0.00  0.00    -0.067 C 
ATOM      4  C   UNL     1      -0.771   3.248  -0.602  0.00  0.00    -0.015 C 
ATOM      5  C   UNL     1       0.489   3.812  -1.304  0.00  0.00    -0.002 C 
ATOM      6  C   UNL     1       1.434   4.185  -0.144  0.00  0.00    -0.002 C 
ATOM      7  C   UNL     1       1.014   3.323   1.060  0.00  0.00    -0.015 C 
ENDBRANCH   1   3
BRANCH   1   8
ATOM      8  C   UNL     1      -0.530   1.845   2.904  0.00  0.00    -0.036 C 
BRANCH   8  17
ATOM      9  C   UNL     1       5.495  -2.238   1.274  0.00  0.00    +0.044 C 
ATOM     10  C   UNL     1       4.027  -2.133   1.601  0.00  0.00    -0.050 A 
ATOM     11  C   UNL     1       3.256  -3.285   1.679  0.00  0.00    +0.005 A 
ATOM     12  C   UNL     1       1.912  -3.212   1.976  0.00  0.00    +0.026 A 
ATOM     13  C   UNL     1       1.321  -1.974   2.201  0.00  0.00    +0.049 A 
ATOM     14  C   UNL     1       2.106  -0.808   2.121  0.00  0.00    -0.001 A 
ATOM     15  C   UNL     1       3.468  -0.906   1.818  0.00  0.00    +0.013 A 
ATOM     16  C   UNL     1       1.473   0.491   2.355  0.00  0.00    +0.017 A 
ATOM     17  C   UNL     1       0.151   0.524   2.652  0.00  0.00    +0.001 A 
ATOM     18  C   UNL     1      -0.592  -0.674   2.720  0.00  0.00    +0.251 A 
ATOM     19  O   UNL     1      -1.781  -0.622   2.983  0.00  0.00    -0.268 OA
ATOM     20  N   UNL     1      -0.021  -1.872   2.502  0.00  0.00    -0.322 N 
ATOM     21  H   UNL     1      -0.561  -2.676   2.556  0.00  0.00    +0.169 HD
ENDBRANCH   8  17
ENDBRANCH   1   8
BRANCH   1  22
ATOM     22  C   UNL     1      -2.254   1.417   1.258  0.00  0.00    +0.006 C 
BRANCH  22  23
ATOM     23  C   UNL     1      -2.860   1.914  -0.030  0.00  0.00    +0.139 A 
ATOM     24  N   UNL     1      -3.499   3.044  -0.209  0.00  0.00    -0.115 NA
ATOM     25  N   UNL     1      -3.861   3.104  -1.444  0.00  0.00    -0.023 NA
ATOM     26  N   UNL     1      -3.470   2.041  -2.057  0.00  0.00    -0.044 NA
ATOM     27  N   UNL     1      -2.844   1.285  -1.220  0.00  0.00    -0.226 N 
BRANCH  27  28
ATOM     28  C   UNL     1      -2.233  -0.015  -1.509  0.00  0.00    +0.182 C 
BRANCH  28  29
ATOM     29  C   UNL     1      -3.286  -1.090  -1.442  0.00  0.00    -0.026 A 
ATOM     30  C   UNL     1      -3.570  -1.707  -0.238  0.00  0.00    +0.005 A 
ATOM     31  C   UNL     1      -4.539  -2.690  -0.176  0.00  0.00    +0.000 A 
ATOM     32  C   UNL     1      -5.218  -3.064  -1.320  0.00  0.00    +0.000 A 
ATOM     33  C   UNL     1      -4.931  -2.452  -2.526  0.00  0.00    +0.000 A 
ATOM     34  C   UNL     1      -3.965  -1.465  -2.587  0.00  0.00    +0.005 A 
ENDBRANCH  28  29
ENDBRANCH  27  28
ENDBRANCH  22  23
BRANCH  22  35
ATOM     35  C   UNL     1      -3.326   1.393   2.349  0.00  0.00    -0.024 C 
ATOM     36  C   UNL     1      -3.854   2.810   2.578  0.00  0.00    +0.006 C 
ATOM     37  C   UNL     1      -4.477   0.484   1.913  0.00  0.00    +0.006 C 
ENDBRANCH  22  35
ENDBRANCH   1  22
TORSDOF 8
