REMARK  Name = ZINC36491254
REMARK  13 active torsions:
REMARK  status: ('A' for Active; 'I' for Inactive)
REMARK    1  A    between atoms: C_1  and  C_2
REMARK    2  A    between atoms: C_2  and  C_3
REMARK    3  A    between atoms: C_3  and  C_4
REMARK    4  A    between atoms: C_4  and  N_5
REMARK    5  A    between atoms: C_6  and  C_8
REMARK    6  A    between atoms: C_8  and  C_10
REMARK    7  A    between atoms: C_8  and  N_19
REMARK    8  A    between atoms: C_11  and  O_18
REMARK    9  A    between atoms: C_13  and  O_17
REMARK   10  A    between atoms: C_15  and  O_16
REMARK   11  A    between atoms: N_19  and  C_20
REMARK   12  A    between atoms: C_26  and  C_28
REMARK   13  A    between atoms: C_28  and  C_30
REMARK                            x       y       z     vdW  Elec       q    Type
REMARK                         _______ _______ _______ _____ _____    ______ ____
ROOT
ATOM      1  C   UNL     1      -3.218  -4.518  -0.915  0.00  0.00    +0.200 C 
ENDROOT
BRANCH   1   2
ATOM      2  C   UNL     1      -3.816  -5.680  -1.665  0.00  0.00    +0.065 A 
ATOM      3  C   UNL     1      -3.908  -6.923  -1.057  0.00  0.00    +0.129 A 
ATOM      4  C   UNL     1      -4.457  -7.994  -1.747  0.00  0.00    +0.091 A 
ATOM      5  C   UNL     1      -4.915  -7.821  -3.044  0.00  0.00    +0.124 A 
ATOM      6  C   UNL     1      -4.824  -6.577  -3.652  0.00  0.00    +0.091 A 
ATOM      7  C   UNL     1      -4.278  -5.506  -2.960  0.00  0.00    +0.129 A 
BRANCH   7   8
ATOM      8  O   UNL     1      -4.193  -4.287  -3.554  0.00  0.00    -0.506 OA
ATOM      9  H   UNL     1      -3.369  -4.142  -4.039  0.00  0.00    +0.292 HD
ENDBRANCH   7   8
BRANCH   5  10
ATOM     10  O   UNL     1      -5.453  -8.869  -3.720  0.00  0.00    -0.507 OA
ATOM     11  H   UNL     1      -6.409  -8.963  -3.606  0.00  0.00    +0.292 HD
ENDBRANCH   5  10
BRANCH   3  12
ATOM     12  O   UNL     1      -3.459  -7.093   0.215  0.00  0.00    -0.506 OA
ATOM     13  H   UNL     1      -4.160  -7.251   0.861  0.00  0.00    +0.292 HD
ENDBRANCH   3  12
ENDBRANCH   1   2
BRANCH   1  15
ATOM     14  N   UNL     1      -0.947  -3.962  -1.721  0.00  0.00    -0.313 N 
ATOM     15  C   UNL     1      -1.719  -4.666  -0.870  0.00  0.00    +0.238 C 
ATOM     16  O   UNL     1      -1.208  -5.418  -0.068  0.00  0.00    -0.273 OA
ATOM     17  H   UNL     1      -1.355  -3.360  -2.363  0.00  0.00    +0.149 HD
BRANCH  14  18
ATOM     18  C   UNL     1       0.511  -4.106  -1.678  0.00  0.00    +0.104 C 
BRANCH  18  19
ATOM     19  C   UNL     1       1.144  -3.205  -2.739  0.00  0.00    +0.018 C 
BRANCH  19  21
ATOM     20  C   UNL     1       3.300  -2.454  -3.755  0.00  0.00    +0.004 C 
ATOM     21  C   UNL     1       2.666  -3.355  -2.694  0.00  0.00    -0.002 C 
ENDBRANCH  19  21
ENDBRANCH  18  19
ENDBRANCH  14  18
ENDBRANCH   1  15
BRANCH   1  22
ATOM     22  N   UNL     1      -3.748  -4.493   0.451  0.00  0.00    -0.279 N 
ATOM     23  C   UNL     1      -4.999  -4.930   0.696  0.00  0.00    +0.243 C 
ATOM     24  O   UNL     1      -5.418  -4.964   1.837  0.00  0.00    -0.270 OA
BRANCH  22  25
ATOM     25  C   UNL     1      -2.917  -3.994   1.549  0.00  0.00    +0.077 C 
ATOM     26  C   UNL     1      -2.841  -5.051   2.652  0.00  0.00    +0.022 C 
ATOM     27  C   UNL     1      -1.974  -4.530   3.800  0.00  0.00    +0.002 C 
ATOM     28  C   UNL     1      -2.591  -3.248   4.364  0.00  0.00    +0.000 C 
ATOM     29  C   UNL     1      -2.667  -2.191   3.261  0.00  0.00    +0.002 C 
ATOM     30  C   UNL     1      -3.534  -2.712   2.113  0.00  0.00    +0.022 C 
ENDBRANCH  22  25
BRANCH  23  31
ATOM     31  C   UNL     1      -5.857  -5.366  -0.416  0.00  0.00    +0.004 C 
ATOM     32  C   UNL     1      -6.352  -6.600  -0.430  0.00  0.00    +0.017 C 
ATOM     33  C   UNL     1      -6.176  -4.413  -1.539  0.00  0.00    +0.048 C 
ENDBRANCH  23  31
ENDBRANCH   1  22
TORSDOF 11
