REMARK  Name = ZINC11878791
REMARK  11 active torsions:
REMARK  status: ('A' for Active; 'I' for Inactive)
REMARK    1  A    between atoms: C_10  and  C_11
REMARK    2  A    between atoms: C_10  and  N_58
REMARK    3  A    between atoms: C_11  and  C_13
REMARK    4  A    between atoms: C_11  and  O_29
REMARK    5  A    between atoms: C_13  and  O_14
REMARK    6  A    between atoms: O_14  and  C_15
REMARK    7  A    between atoms: C_18  and  C_21
REMARK    8  A    between atoms: C_21  and  N_60
REMARK    9  A    between atoms: C_22  and  C_23
REMARK   10  A    between atoms: C_22  and  N_60
REMARK   11  A    between atoms: C_23  and  N_24
REMARK                            x       y       z     vdW  Elec       q    Type
REMARK                         _______ _______ _______ _____ _____    ______ ____
ROOT
ATOM      1  O   UNL     1       1.282  -2.082  -0.629  0.00  0.00    -0.489 OA
ENDROOT
BRANCH   1   2
ATOM      2  C   UNL     1       1.260  -0.727  -0.723  0.00  0.00    +0.121 A 
ATOM      3  C   UNL     1       0.063  -0.066  -0.956  0.00  0.00    +0.046 A 
ATOM      4  C   UNL     1       0.043   1.312  -1.051  0.00  0.00    +0.005 A 
ATOM      5  C   UNL     1       1.215   2.033  -0.913  0.00  0.00    -0.064 A 
ATOM      6  C   UNL     1       2.409   1.377  -0.681  0.00  0.00    +0.005 A 
ATOM      7  C   UNL     1       2.435  -0.001  -0.586  0.00  0.00    +0.046 A 
BRANCH   5   8
ATOM      8  C   UNL     1       1.190   3.536  -1.017  0.00  0.00    -0.047 C 
BRANCH   8   9
ATOM      9  N   UNL     1       0.965   4.109   0.323  0.00  0.00    +0.383 N 
ATOM     10  H   UNL     1       1.724   3.815   0.949  0.00  0.00    -0.085 HD
ATOM     11  H   UNL     1       0.068   3.770   0.691  0.00  0.00    -0.085 HD
BRANCH   9  12
ATOM     12  C   UNL     1       0.936   5.582   0.252  0.00  0.00    -0.059 C 
BRANCH  12  13
ATOM     13  C   UNL     1       0.701   6.148   1.654  0.00  0.00    +0.124 C 
BRANCH  13  14
ATOM     14  N   UNL     1       0.671   7.611   1.592  0.00  0.00    -0.273 N 
ATOM     15  C   UNL     1      -0.325   8.404   2.038  0.00  0.00    +0.108 A 
ATOM     16  C   UNL     1       0.030   9.688   1.798  0.00  0.00    +0.041 A 
ATOM     17  C   UNL     1       1.286   9.678   1.183  0.00  0.00    +0.134 A 
ATOM     18  N   UNL     1       1.674   8.434   1.065  0.00  0.00    -0.180 NA
ENDBRANCH  13  14
ENDBRANCH  12  13
ENDBRANCH   9  12
ENDBRANCH   8   9
ENDBRANCH   5   8
ENDBRANCH   1   2
BRANCH   1  19
ATOM     19  C   UNL     1       2.550  -2.695  -0.388  0.00  0.00    +0.258 C 
BRANCH  19  20
ATOM     20  C   UNL     1       2.377  -4.213  -0.314  0.00  0.00    +0.135 C 
BRANCH  20  21
ATOM     21  O   UNL     1       1.955  -4.707  -1.587  0.00  0.00    -0.390 OA
ATOM     22  H   UNL     1       2.576  -4.526  -2.305  0.00  0.00    +0.210 HD
ENDBRANCH  20  21
BRANCH  20  23
ATOM     23  C   UNL     1       3.710  -4.861   0.067  0.00  0.00    -0.043 C 
BRANCH  23  33
ATOM     24  C   UNL     1       4.383 -11.215   0.765  0.00  0.00    +0.000 A 
ATOM     25  C   UNL     1       5.552 -10.698   0.238  0.00  0.00    +0.000 A 
ATOM     26  C   UNL     1       5.679  -9.337   0.051  0.00  0.00    +0.002 A 
ATOM     27  C   UNL     1       4.640  -8.482   0.388  0.00  0.00    -0.061 A 
ATOM     28  C   UNL     1       3.473  -8.998   0.910  0.00  0.00    -0.048 A 
ATOM     29  C   UNL     1       3.347 -10.366   1.099  0.00  0.00    +0.004 A 
ATOM     30  C   UNL     1       2.314  -8.111   1.286  0.00  0.00    +0.017 C 
ATOM     31  C   UNL     1       2.784  -6.660   1.400  0.00  0.00    -0.074 C 
ATOM     32  C   UNL     1       4.827  -7.004   0.169  0.00  0.00    -0.043 C 
ATOM     33  N   UNL     1       3.521  -6.325   0.164  0.00  0.00    +0.384 N 
ATOM     34  H   UNL     1       2.979  -6.646  -0.647  0.00  0.00    -0.081 HD
ENDBRANCH  23  33
ENDBRANCH  20  23
ENDBRANCH  19  20
ENDBRANCH   1  19
TORSDOF 11
