REMARK  Name = ZINC14997611
REMARK  7 active torsions:
REMARK  status: ('A' for Active; 'I' for Inactive)
REMARK    1  A    between atoms: C_1  and  C_2
REMARK    2  A    between atoms: C_4  and  C_7
REMARK    3  A    between atoms: C_7  and  C_9
REMARK    4  A    between atoms: C_7  and  N_10
REMARK    5  A    between atoms: C_21  and  N_25
REMARK    6  A    between atoms: N_25  and  C_26
REMARK    7  A    between atoms: C_26  and  C_27
REMARK                            x       y       z     vdW  Elec       q    Type
REMARK                         _______ _______ _______ _____ _____    ______ ____
ROOT
ATOM      1  N   UNL     1      -1.120   3.439  -0.558  0.00  0.00    -0.290 N 
ATOM      2  C   UNL     1      -0.235   4.289   0.024  0.00  0.00    +0.203 A 
ATOM      3  N   UNL     1      -0.028   5.484  -0.461  0.00  0.00    -0.230 NA
ATOM      4  C   UNL     1      -0.679   5.906  -1.541  0.00  0.00    +0.116 A 
ATOM      5  C   UNL     1      -1.612   5.099  -2.211  0.00  0.00    +0.076 A 
ATOM      6  C   UNL     1      -1.812   3.792  -1.657  0.00  0.00    +0.263 A 
ATOM      7  O   UNL     1      -2.599   3.015  -2.170  0.00  0.00    -0.267 OA
ATOM      8  C   UNL     1      -2.250   5.695  -3.384  0.00  0.00    -0.023 A 
ATOM      9  C   UNL     1      -1.883   6.953  -3.707  0.00  0.00    -0.003 A 
ATOM     10  S   UNL     1      -0.684   7.410  -2.484  0.00  0.00    -0.073 S 
ATOM     11  C   UNL     1      -2.385   7.779  -4.851  0.00  0.00    +0.061 C 
ATOM     12  C   UNL     1      -3.660   7.123  -5.400  0.00  0.00    +0.059 C 
ATOM     13  C   UNL     1      -3.401   5.625  -5.585  0.00  0.00    +0.024 C 
ATOM     14  C   UNL     1      -3.284   4.946  -4.219  0.00  0.00    +0.038 C 
ENDROOT
BRANCH   1  15
ATOM     15  C   UNL     1      -1.321   2.107   0.020  0.00  0.00    +0.137 C 
ATOM     16  C   UNL     1      -1.819   2.246   1.460  0.00  0.00    +0.038 C 
BRANCH  15  20
ATOM     17  C   UNL     1       3.678   1.907  -0.023  0.00  0.00    +0.073 C 
ATOM     18  C   UNL     1       2.277   1.350  -0.012  0.00  0.00    +0.076 A 
ATOM     19  N   UNL     1       1.133   1.995   0.002  0.00  0.00    -0.247 NA
ATOM     20  C   UNL     1      -0.016   1.353   0.009  0.00  0.00    +0.071 A 
ATOM     21  C   UNL     1       0.002  -0.004   0.002  0.00  0.00    +0.072 A 
ATOM     22  S   UNL     1       1.763  -0.308  -0.016  0.00  0.00    -0.080 S 
ENDBRANCH  15  20
ENDBRANCH   1  15
BRANCH  12  23
ATOM     23  N   UNL     1      -4.007   7.725  -6.694  0.00  0.00    -0.309 NA
ATOM     24  H   UNL     1      -3.086   7.990  -7.234  0.00  0.00    +0.123 HD
BRANCH  23  25
ATOM     25  C   UNL     1      -4.810   8.941  -6.510  0.00  0.00    +0.116 C 
BRANCH  25  26
ATOM     26  C   UNL     1      -5.146   9.530  -7.856  0.00  0.00    -0.028 A 
ATOM     27  C   UNL     1      -4.301  10.460  -8.433  0.00  0.00    +0.046 A 
ATOM     28  C   UNL     1      -4.605  10.999  -9.671  0.00  0.00    +0.162 A 
ATOM     29  C   UNL     1      -5.763  10.612 -10.329  0.00  0.00    +0.193 A 
ATOM     30  C   UNL     1      -6.611   9.684  -9.746  0.00  0.00    +0.162 A 
ATOM     31  C   UNL     1      -6.301   9.144  -8.510  0.00  0.00    +0.046 A 
ATOM     32  F   UNL     1      -7.740   9.305 -10.385  0.00  0.00    -0.202 F 
ATOM     33  F   UNL     1      -6.064  11.141 -11.535  0.00  0.00    -0.199 F 
ATOM     34  F   UNL     1      -3.777  11.903 -10.237  0.00  0.00    -0.202 F 
ENDBRANCH  25  26
ENDBRANCH  23  25
ENDBRANCH  12  23
TORSDOF 5
