REMARK  Name = ZINC66762571
REMARK  3 active torsions:
REMARK  status: ('A' for Active; 'I' for Inactive)
REMARK    1  A    between atoms: C_4  and  C_7
REMARK    2  A    between atoms: C_15  and  C_17
REMARK    3  A    between atoms: C_17  and  C_18
REMARK                            x       y       z     vdW  Elec       q    Type
REMARK                         _______ _______ _______ _____ _____    ______ ____
ROOT
ATOM      1  C   UNL     1       3.711  -0.707  -0.038  0.00  0.00    +0.021 C 
ATOM      2  C   UNL     1       3.819  -1.537   1.238  0.00  0.00    +0.010 C 
ATOM      3  C   UNL     1       5.274  -1.748   1.576  0.00  0.00    +0.020 C 
ATOM      4  C   UNL     1       5.779  -3.058   0.945  0.00  0.00    +0.108 C 
ATOM      5  N   UNL     1       5.254  -3.256  -0.421  0.00  0.00    -0.301 N 
ATOM      6  C   UNL     1       5.171  -2.186  -1.389  0.00  0.00    +0.108 C 
ATOM      7  C   UNL     1       3.789  -1.495  -1.278  0.00  0.00    +0.027 C 
ATOM      8  C   UNL     1       4.835  -4.486  -0.779  0.00  0.00    +0.221 C 
ATOM      9  O   UNL     1       4.399  -4.677  -1.895  0.00  0.00    -0.275 OA
ENDROOT
BRANCH   1  13
ATOM     10  C   UNL     1      -0.017   1.378   0.010  0.00  0.00    +0.000 A 
ATOM     11  C   UNL     1       1.171   2.086   0.002  0.00  0.00    +0.000 A 
ATOM     12  C   UNL     1       2.377   1.411  -0.013  0.00  0.00    +0.004 A 
ATOM     13  C   UNL     1       2.396   0.029  -0.020  0.00  0.00    -0.044 A 
ATOM     14  C   UNL     1       1.208  -0.679  -0.012  0.00  0.00    +0.004 A 
ATOM     15  C   UNL     1       0.002  -0.004   0.002  0.00  0.00    +0.000 A 
ENDBRANCH   1  13
BRANCH   8  16
ATOM     16  C   UNL     1       4.908  -5.624   0.206  0.00  0.00    +0.152 C 
BRANCH  16  17
ATOM     17  C   UNL     1       4.382  -6.881  -0.439  0.00  0.00    +0.059 A 
ATOM     18  C   UNL     1       5.121  -8.017  -0.482  0.00  0.00    +0.072 A 
ATOM     19  S   UNL     1       3.999  -9.111  -1.338  0.00  0.00    -0.060 S 
ATOM     20  C   UNL     1       2.730  -8.026  -1.547  0.00  0.00    +0.168 A 
ATOM     21  N   UNL     1       3.179  -6.926  -0.981  0.00  0.00    -0.229 NA
ATOM     22  N   UNL     1       1.502  -8.241  -2.163  0.00  0.00    -0.234 N 
ATOM     23  C   UNL     1       1.202  -9.560  -2.722  0.00  0.00    +0.119 C 
ATOM     24  C   UNL     1      -0.312  -9.795  -2.669  0.00  0.00    +0.038 C 
ATOM     25  C   UNL     1      -1.010  -8.642  -3.398  0.00  0.00    +0.107 C 
ATOM     26  N   UNL     1      -0.589  -7.373  -2.803  0.00  0.00    -0.299 N 
ATOM     27  C   UNL     1       0.615  -7.237  -2.229  0.00  0.00    +0.308 C 
ATOM     28  O   UNL     1       0.917  -6.159  -1.754  0.00  0.00    -0.252 OA
ATOM     29  H   UNL     1      -1.196  -6.615  -2.820  0.00  0.00    +0.150 HD
ENDBRANCH  16  17
ENDBRANCH   8  16
TORSDOF 3
