REMARK  Name = ZINC06824391
REMARK  3 active torsions:
REMARK  status: ('A' for Active; 'I' for Inactive)
REMARK    1  A    between atoms: C_1  and  C_2
REMARK    2  A    between atoms: C_4  and  C_13
REMARK    3  A    between atoms: C_21  and  C_23
REMARK                            x       y       z     vdW  Elec       q    Type
REMARK                         _______ _______ _______ _____ _____    ______ ____
ROOT
ATOM      1  C   UNL     1      -6.322   8.347   0.100  0.00  0.00    +0.028 C 
ATOM      2  C   UNL     1      -7.293   8.030  -0.823  0.00  0.00    +0.082 A 
ATOM      3  C   UNL     1      -7.701   8.742  -1.985  0.00  0.00    +0.288 A 
ATOM      4  O   UNL     1      -7.168   9.796  -2.282  0.00  0.00    -0.265 OA
ATOM      5  N   UNL     1      -8.679   8.238  -2.747  0.00  0.00    -0.169 N 
ATOM      6  C   UNL     1      -9.249   7.051  -2.374  0.00  0.00    +0.200 A 
ATOM      7  S   UNL     1      -8.379   6.613  -0.886  0.00  0.00    -0.044 S 
ATOM      8  N   UNL     1     -10.174   6.718  -3.227  0.00  0.00    -0.200 NA
ATOM      9  C   UNL     1     -10.252   7.658  -4.184  0.00  0.00    +0.189 A 
ATOM     10  N   UNL     1      -9.364   8.594  -3.940  0.00  0.00    -0.141 NA
ENDROOT
BRANCH   1  13
ATOM     11  C   UNL     1      -3.569   9.727   1.343  0.00  0.00    +0.057 C 
ATOM     12  C   UNL     1      -4.165   9.650  -0.065  0.00  0.00    +0.201 C 
ATOM     13  C   UNL     1      -5.667   9.590   0.034  0.00  0.00    -0.006 C 
ATOM     14  C   UNL     1      -6.387  10.746   0.063  0.00  0.00    +0.018 C 
ATOM     15  C   UNL     1      -5.651  12.015  -0.030  0.00  0.00    +0.017 A 
ATOM     16  C   UNL     1      -6.245  13.228   0.319  0.00  0.00    +0.011 A 
ATOM     17  C   UNL     1      -5.516  14.395   0.218  0.00  0.00    +0.001 A 
ATOM     18  C   UNL     1      -4.204  14.364  -0.227  0.00  0.00    +0.004 A 
ATOM     19  C   UNL     1      -3.605  13.167  -0.576  0.00  0.00    +0.046 A 
ATOM     20  C   UNL     1      -4.320  11.987  -0.482  0.00  0.00    +0.128 A 
ATOM     21  O   UNL     1      -3.762  10.797  -0.819  0.00  0.00    -0.484 OA
ENDBRANCH   1  13
BRANCH   9  22
ATOM     22  C   UNL     1     -11.183   7.638  -5.331  0.00  0.00    +0.058 A 
ATOM     23  C   UNL     1     -12.133   6.705  -5.655  0.00  0.00    +0.019 A 
ATOM     24  C   UNL     1     -12.891   6.899  -6.788  0.00  0.00    +0.008 A 
ATOM     25  C   UNL     1     -12.682   8.009  -7.543  0.00  0.00    +0.046 A 
ATOM     26  S   UNL     1     -11.369   8.826  -6.650  0.00  0.00    -0.093 S 
ENDBRANCH   9  22
TORSDOF 2
