REMARK  Name = ZINC67439584
REMARK  8 active torsions:
REMARK  status: ('A' for Active; 'I' for Inactive)
REMARK    1  A    between atoms: C_1  and  C_2
REMARK    2  A    between atoms: C_2  and  C_4
REMARK    3  A    between atoms: C_2  and  N_15
REMARK    4  A    between atoms: N_15  and  C_16
REMARK    5  A    between atoms: C_16  and  C_17
REMARK    6  A    between atoms: C_20  and  O_23
REMARK    7  A    between atoms: O_23  and  C_24
REMARK    8  A    between atoms: C_24  and  C_25
REMARK                            x       y       z     vdW  Elec       q    Type
REMARK                         _______ _______ _______ _____ _____    ______ ____
ROOT
ATOM      1  N   UNL     1       0.690  -0.478  -1.207  0.00  0.00    +0.386 N 
ATOM      2  H   UNL     1       0.632  -1.484  -1.254  0.00  0.00    -0.085 HD
ATOM      3  H   UNL     1       0.251  -0.077  -2.022  0.00  0.00    -0.085 HD
ENDROOT
BRANCH   1   5
ATOM      4  C   UNL     1      -0.019   1.526   0.010  0.00  0.00    -0.009 C 
ATOM      5  C   UNL     1       0.002  -0.004   0.002  0.00  0.00    -0.044 C 
BRANCH   5   6
ATOM      6  C   UNL     1      -1.412  -0.526   0.013  0.00  0.00    -0.060 A 
ATOM      7  C   UNL     1      -2.140  -0.568  -1.162  0.00  0.00    +0.006 A 
ATOM      8  C   UNL     1      -3.438  -1.046  -1.161  0.00  0.00    +0.048 A 
ATOM      9  C   UNL     1      -4.010  -1.484   0.021  0.00  0.00    +0.142 A 
ATOM     10  C   UNL     1      -3.276  -1.440   1.205  0.00  0.00    +0.076 A 
ATOM     11  C   UNL     1      -1.975  -0.966   1.196  0.00  0.00    +0.029 A 
ATOM     12  N   UNL     1      -3.869  -1.884   2.396  0.00  0.00    -0.280 N 
ATOM     13  C   UNL     1      -4.996  -2.626   2.329  0.00  0.00    +0.255 C 
ATOM     14  O   UNL     1      -5.544  -2.995   3.346  0.00  0.00    -0.272 OA
ATOM     15  C   UNL     1      -5.571  -2.994   0.984  0.00  0.00    +0.325 C 
ATOM     16  O   UNL     1      -5.284  -1.958   0.040  0.00  0.00    -0.481 OA
ATOM     17  H   UNL     1      -3.476  -1.663   3.254  0.00  0.00    +0.155 HD
ENDBRANCH   5   6
ENDBRANCH   1   5
BRANCH   1  18
ATOM     18  C   UNL     1       2.100  -0.070  -1.159  0.00  0.00    -0.046 C 
BRANCH  18  19
ATOM     19  C   UNL     1       2.806  -0.556  -2.399  0.00  0.00    -0.064 A 
ATOM     20  C   UNL     1       3.401  -1.804  -2.410  0.00  0.00    +0.005 A 
ATOM     21  C   UNL     1       4.048  -2.252  -3.545  0.00  0.00    +0.046 A 
ATOM     22  C   UNL     1       4.101  -1.448  -4.675  0.00  0.00    +0.121 A 
ATOM     23  C   UNL     1       3.503  -0.197  -4.661  0.00  0.00    +0.046 A 
ATOM     24  C   UNL     1       2.852   0.244  -3.525  0.00  0.00    +0.005 A 
BRANCH  22  25
ATOM     25  O   UNL     1       4.738  -1.886  -5.793  0.00  0.00    -0.483 OA
BRANCH  25  26
ATOM     26  C   UNL     1       4.752  -1.006  -6.918  0.00  0.00    +0.342 C 
BRANCH  26  27
ATOM     27  C   UNL     1       5.509  -1.666  -8.072  0.00  0.00    +0.424 C 
ATOM     28  F   UNL     1       4.872  -2.861  -8.424  0.00  0.00    -0.167 F 
ATOM     29  F   UNL     1       5.523  -0.804  -9.174  0.00  0.00    -0.167 F 
ATOM     30  F   UNL     1       6.822  -1.937  -7.675  0.00  0.00    -0.167 F 
ENDBRANCH  26  27
ENDBRANCH  25  26
ENDBRANCH  22  25
ENDBRANCH  18  19
ENDBRANCH   1  18
TORSDOF 7
