REMARK  Name = ZINC16681036
REMARK  10 active torsions:
REMARK  status: ('A' for Active; 'I' for Inactive)
REMARK    1  A    between atoms: C_1  and  C_2
REMARK    2  A    between atoms: C_2  and  C_3
REMARK    3  A    between atoms: C_7  and  C_27
REMARK    4  A    between atoms: C_8  and  N_9
REMARK    5  A    between atoms: C_13  and  S_15
REMARK    6  A    between atoms: S_15  and  C_16
REMARK    7  A    between atoms: C_16  and  C_17
REMARK    8  A    between atoms: N_19  and  C_20
REMARK    9  A    between atoms: C_21  and  C_25
REMARK   10  A    between atoms: C_27  and  C_28
REMARK                            x       y       z     vdW  Elec       q    Type
REMARK                         _______ _______ _______ _____ _____    ______ ____
ROOT
ATOM      1  N   UNL     1       6.048 -10.327  -2.872  0.00  0.00    -0.292 N 
ATOM      2  C   UNL     1       4.868 -10.004  -3.533  0.00  0.00    +0.187 A 
ATOM      3  N   UNL     1       3.625 -10.048  -3.095  0.00  0.00    -0.125 NA
ATOM      4  N   UNL     1       2.593  -9.676  -3.924  0.00  0.00    -0.133 NA
ATOM      5  C   UNL     1       2.850  -9.285  -5.158  0.00  0.00    +0.160 A 
ATOM      6  S   UNL     1       4.631  -9.419  -5.204  0.00  0.00    -0.024 S 
ATOM      7  H   UNL     1       6.901 -10.215  -3.319  0.00  0.00    +0.154 HD
ENDROOT
BRANCH   1  13
ATOM      8  C   UNL     1       5.822  -9.937  -0.500  0.00  0.00    -0.026 A 
ATOM      9  C   UNL     1       5.773 -10.421   0.792  0.00  0.00    +0.005 A 
ATOM     10  C   UNL     1       5.917 -11.776   1.030  0.00  0.00    +0.001 A 
ATOM     11  C   UNL     1       6.105 -12.650  -0.025  0.00  0.00    +0.005 A 
ATOM     12  C   UNL     1       6.148 -12.173  -1.320  0.00  0.00    -0.026 A 
ATOM     13  C   UNL     1       6.004 -10.813  -1.563  0.00  0.00    +0.039 A 
BRANCH   8  15
ATOM     14  C   UNL     1       5.716  -7.702   0.570  0.00  0.00    +0.009 C 
ATOM     15  C   UNL     1       5.671  -8.459  -0.758  0.00  0.00    +0.033 C 
ENDBRANCH   8  15
BRANCH  12  16
ATOM     16  C   UNL     1       6.352 -13.127  -2.469  0.00  0.00    +0.033 C 
ATOM     17  C   UNL     1       7.838 -13.183  -2.828  0.00  0.00    +0.009 C 
ENDBRANCH  12  16
ENDBRANCH   1  13
BRANCH   5  18
ATOM     18  S   UNL     1       1.736  -8.764  -6.420  0.00  0.00    -0.088 S 
BRANCH  18  19
ATOM     19  C   UNL     1       0.102  -8.890  -5.642  0.00  0.00    +0.172 C 
BRANCH  19  20
ATOM     20  C   UNL     1      -0.957  -8.467  -6.627  0.00  0.00    +0.228 C 
ATOM     21  O   UNL     1      -0.640  -8.115  -7.744  0.00  0.00    -0.275 OA
ATOM     22  N   UNL     1      -2.256  -8.480  -6.268  0.00  0.00    -0.278 N 
ATOM     23  H   UNL     1      -2.509  -8.761  -5.374  0.00  0.00    +0.155 HD
BRANCH  22  24
ATOM     24  C   UNL     1      -3.231  -8.090  -7.175  0.00  0.00    +0.089 A 
ATOM     25  C   UNL     1      -4.607  -8.036  -6.992  0.00  0.00    +0.080 A 
ATOM     26  C   UNL     1      -5.394  -7.588  -8.115  0.00  0.00    +0.028 A 
ATOM     27  C   UNL     1      -4.730  -7.263  -9.240  0.00  0.00    +0.048 A 
ATOM     28  S   UNL     1      -3.027  -7.553  -8.808  0.00  0.00    -0.081 S 
BRANCH  25  29
ATOM     29  C   UNL     1      -5.214  -8.406  -5.749  0.00  0.00    +0.102 C 
ATOM     30  N   UNL     1      -5.696  -8.700  -4.763  0.00  0.00    -0.191 NA
ENDBRANCH  25  29
ENDBRANCH  22  24
ENDBRANCH  19  20
ENDBRANCH  18  19
ENDBRANCH   5  18
TORSDOF 8
