REMARK  Name = ZINC40021470
REMARK  13 active torsions:
REMARK  status: ('A' for Active; 'I' for Inactive)
REMARK    1  A    between atoms: C_1  and  C_2
REMARK    2  A    between atoms: C_2  and  C_3
REMARK    3  A    between atoms: C_3  and  C_4
REMARK    4  A    between atoms: C_4  and  N_5
REMARK    5  A    between atoms: C_6  and  C_22
REMARK    6  A    between atoms: C_25  and  O_30
REMARK    7  A    between atoms: C_26  and  O_28
REMARK    8  A    between atoms: O_28  and  C_29
REMARK    9  A    between atoms: O_30  and  C_31
REMARK   10  A    between atoms: C_31  and  C_32
REMARK   11  A    between atoms: C_32  and  C_33
REMARK   12  A    between atoms: C_33  and  C_34
REMARK   13  A    between atoms: C_33  and  C_35
REMARK                            x       y       z     vdW  Elec       q    Type
REMARK                         _______ _______ _______ _____ _____    ______ ____
ROOT
ATOM      1  N   UNL     1       1.471  -2.526   2.420  0.00  0.00    -0.284 N 
ATOM      2  C   UNL     1       2.916  -2.790   2.517  0.00  0.00    +0.145 C 
ATOM      3  C   UNL     1       3.150  -3.267   3.913  0.00  0.00    +0.072 A 
ATOM      4  C   UNL     1       4.377  -3.690   4.597  0.00  0.00    +0.199 A 
ATOM      5  O   UNL     1       5.490  -3.543   4.122  0.00  0.00    -0.287 OA
ATOM      6  C   UNL     1       4.134  -4.313   5.922  0.00  0.00    +0.065 A 
ATOM      7  C   UNL     1       5.172  -4.945   6.606  0.00  0.00    +0.030 A 
ATOM      8  C   UNL     1       4.927  -5.523   7.832  0.00  0.00    +0.019 A 
ATOM      9  C   UNL     1       3.652  -5.475   8.382  0.00  0.00    +0.019 A 
ATOM     10  C   UNL     1       2.621  -4.853   7.716  0.00  0.00    +0.048 A 
ATOM     11  C   UNL     1       2.844  -4.259   6.474  0.00  0.00    +0.140 A 
ATOM     12  O   UNL     1       1.815  -3.645   5.847  0.00  0.00    -0.450 OA
ATOM     13  C   UNL     1       1.947  -3.270   4.559  0.00  0.00    +0.199 A 
ATOM     14  C   UNL     1       0.915  -2.804   3.617  0.00  0.00    +0.283 C 
ATOM     15  O   UNL     1      -0.266  -2.689   3.879  0.00  0.00    -0.267 OA
ATOM     16 BR   UNL     1       6.328  -6.382   8.769  0.00  0.00    -0.050 Br
ENDROOT
BRANCH   2  17
ATOM     17  C   UNL     1       3.318  -3.854   1.528  0.00  0.00    -0.019 A 
ATOM     18  C   UNL     1       2.495  -4.944   1.315  0.00  0.00    +0.009 A 
ATOM     19  C   UNL     1       2.859  -5.922   0.409  0.00  0.00    +0.050 A 
ATOM     20  C   UNL     1       4.051  -5.812  -0.288  0.00  0.00    +0.162 A 
ATOM     21  C   UNL     1       4.880  -4.714  -0.074  0.00  0.00    +0.162 A 
ATOM     22  C   UNL     1       4.507  -3.735   0.832  0.00  0.00    +0.055 A 
BRANCH  21  23
ATOM     23  O   UNL     1       6.051  -4.601  -0.755  0.00  0.00    -0.491 OA
ATOM     24  C   UNL     1       6.851  -3.449  -0.485  0.00  0.00    +0.277 C 
ENDBRANCH  21  23
BRANCH  20  25
ATOM     25  O   UNL     1       4.411  -6.774  -1.179  0.00  0.00    -0.488 OA
BRANCH  25  26
ATOM     26  C   UNL     1       3.512  -7.871  -1.347  0.00  0.00    +0.229 C 
BRANCH  26  27
ATOM     27  C   UNL     1       4.082  -8.844  -2.382  0.00  0.00    +0.044 C 
BRANCH  27  28
ATOM     28  C   UNL     1       3.119 -10.019  -2.562  0.00  0.00    -0.014 C 
ATOM     29  C   UNL     1       1.805  -9.515  -3.162  0.00  0.00    +0.007 C 
ATOM     30  C   UNL     1       3.745 -11.052  -3.501  0.00  0.00    +0.007 C 
ENDBRANCH  27  28
ENDBRANCH  26  27
ENDBRANCH  25  26
ENDBRANCH  20  25
ENDBRANCH   2  17
BRANCH   1  31
ATOM     31  C   UNL     1       0.763  -2.041   1.233  0.00  0.00    +0.109 C 
BRANCH  31  32
ATOM     32  C   UNL     1       0.742  -0.511   1.242  0.00  0.00    +0.019 C 
BRANCH  32  34
ATOM     33  C   UNL     1      -0.019   1.526   0.010  0.00  0.00    +0.004 C 
ATOM     34  C   UNL     1       0.002  -0.004   0.002  0.00  0.00    -0.002 C 
ENDBRANCH  32  34
ENDBRANCH  31  32
ENDBRANCH   1  31
TORSDOF 9
