REMARK  Name = ZINC39322080
REMARK  5 active torsions:
REMARK  status: ('A' for Active; 'I' for Inactive)
REMARK    1  A    between atoms: C_7  and  C_10
REMARK    2  A    between atoms: C_11  and  C_12
REMARK    3  A    between atoms: C_11  and  C_14
REMARK    4  A    between atoms: N_16  and  C_17
REMARK    5  A    between atoms: C_22  and  C_23
REMARK                            x       y       z     vdW  Elec       q    Type
REMARK                         _______ _______ _______ _____ _____    ______ ____
ROOT
ATOM      1  C   UNL     1       0.663  -3.133  -0.014  0.00  0.00    +0.030 C 
ATOM      2  C   UNL     1       1.149  -4.432  -0.021  0.00  0.00    +0.114 C 
ENDROOT
BRANCH   1   9
ATOM      3  C   UNL     1      -0.015   1.349   0.014  0.00  0.00    +0.001 A 
ATOM      4  C   UNL     1       1.158   2.116   0.023  0.00  0.00    +0.002 A 
ATOM      5  C   UNL     1       2.385   1.545   0.022  0.00  0.00    +0.026 A 
ATOM      6  C   UNL     1       2.490   0.079   0.013  0.00  0.00    +0.043 A 
ATOM      7  N   UNL     1       3.524  -0.720   0.010  0.00  0.00    -0.380 N 
ATOM      8  C   UNL     1       3.064  -2.112  -0.001  0.00  0.00    +0.149 C 
ATOM      9  C   UNL     1       1.552  -2.053  -0.004  0.00  0.00    -0.018 C 
ATOM     10  C   UNL     1       1.232  -0.700   0.004  0.00  0.00    +0.003 A 
ATOM     11  C   UNL     1       0.003  -0.005   0.005  0.00  0.00    +0.010 A 
ATOM     12  H   UNL     1       4.452  -0.436   0.014  0.00  0.00    +0.160 HD
ENDBRANCH   1   9
BRANCH   2  13
ATOM     13  C   UNL     1       0.213  -5.569  -0.031  0.00  0.00    +0.259 C 
ATOM     14  O   UNL     1      -0.987  -5.369  -0.033  0.00  0.00    -0.269 OA
ATOM     15  N   UNL     1       0.686  -6.831  -0.038  0.00  0.00    -0.280 N 
ATOM     16  H   UNL     1       1.639  -6.991  -0.117  0.00  0.00    +0.155 HD
BRANCH  15  17
ATOM     17  C   UNL     1      -0.193  -7.903   0.069  0.00  0.00    +0.048 A 
ATOM     18  C   UNL     1      -1.426  -7.736   0.687  0.00  0.00    +0.024 A 
ATOM     19  C   UNL     1      -2.296  -8.802   0.793  0.00  0.00    +0.002 A 
ATOM     20  C   UNL     1      -1.950 -10.044   0.284  0.00  0.00    +0.001 A 
ATOM     21  C   UNL     1      -0.733 -10.230  -0.333  0.00  0.00    +0.017 A 
ATOM     22  C   UNL     1       0.159  -9.159  -0.453  0.00  0.00    +0.084 A 
BRANCH  22  23
ATOM     23  C   UNL     1       1.458  -9.348  -1.116  0.00  0.00    +0.388 C 
ATOM     24  O   UNL     1       1.724 -10.417  -1.648  0.00  0.00    -0.241 OA
ATOM     25  O   UNL     1       2.274  -8.436  -1.134  0.00  0.00    -0.241 OA
ENDBRANCH  22  23
ENDBRANCH  15  17
ENDBRANCH   2  13
BRANCH   2  26
ATOM     26  C   UNL     1       2.562  -4.667  -0.018  0.00  0.00    +0.104 C 
ATOM     27  N   UNL     1       3.682  -4.854  -0.016  0.00  0.00    -0.191 NA
ENDBRANCH   2  26
TORSDOF 5
