REMARK  Name = ZINC30941202
REMARK  4 active torsions:
REMARK  status: ('A' for Active; 'I' for Inactive)
REMARK    1  A    between atoms: C_6  and  C_7
REMARK    2  A    between atoms: C_7  and  N_8
REMARK    3  A    between atoms: C_12  and  C_15
REMARK    4  A    between atoms: N_17  and  C_18
REMARK                            x       y       z     vdW  Elec       q    Type
REMARK                         _______ _______ _______ _____ _____    ______ ____
ROOT
ATOM      1  N   UNL     1       0.729  -0.491   1.181  0.00  0.00    +0.383 N 
ATOM      2  C   UNL     1       0.002  -0.004   0.002  0.00  0.00    -0.078 C 
ATOM      3  C   UNL     1      -0.019   1.526   0.010  0.00  0.00    -0.018 C 
ATOM      4  C   UNL     1       1.420   2.051  -0.001  0.00  0.00    +0.009 C 
ATOM      5  C   UNL     1       2.169   1.490   1.211  0.00  0.00    +0.058 C 
ATOM      6  C   UNL     1       2.126  -0.039   1.168  0.00  0.00    -0.066 C 
ATOM      7  H   UNL     1       0.247  -0.064   2.073  0.00  0.00    -0.081 HD
ENDROOT
BRANCH   5   8
ATOM      8  C   UNL     1       3.602   1.955   1.176  0.00  0.00    +0.215 C 
ATOM      9  O   UNL     1       4.501   1.143   1.122  0.00  0.00    -0.276 OA
ATOM     10  N   UNL     1       3.884   3.272   1.205  0.00  0.00    -0.310 N 
ATOM     11  H   UNL     1       3.068   4.009   1.254  0.00  0.00    +0.149 HD
BRANCH  10  12
ATOM     12  C   UNL     1       5.277   3.724   1.171  0.00  0.00    +0.035 C 
ATOM     13  C   UNL     1       6.026   3.159   2.380  0.00  0.00    +0.029 C 
ATOM     14  C   UNL     1       7.481   3.631   2.344  0.00  0.00    -0.008 C 
ATOM     15  C   UNL     1       7.523   5.159   2.387  0.00  0.00    +0.007 C 
ATOM     16  C   UNL     1       6.774   5.724   1.179  0.00  0.00    -0.008 C 
ATOM     17  C   UNL     1       5.319   5.253   1.214  0.00  0.00    +0.029 C 
ATOM     18  C   UNL     1       7.438   5.232  -0.109  0.00  0.00    +0.007 C 
ATOM     19  C   UNL     1       7.397   3.703  -0.152  0.00  0.00    -0.008 C 
ATOM     20  C   UNL     1       8.146   3.138   1.056  0.00  0.00    +0.007 C 
ATOM     21  C   UNL     1       5.942   3.232  -0.116  0.00  0.00    +0.029 C 
ENDBRANCH  10  12
ENDBRANCH   5   8
BRANCH   1  22
ATOM     22  C   UNL     1       0.651  -1.955   1.280  0.00  0.00    -0.043 C 
BRANCH  22  28
ATOM     23  C   UNL     1      -1.230  -2.490   2.843  0.00  0.00    +0.003 A 
ATOM     24  C   UNL     1      -2.539  -2.860   3.085  0.00  0.00    +0.020 A 
ATOM     25  C   UNL     1      -3.392  -3.118   2.026  0.00  0.00    +0.041 A 
ATOM     26  C   UNL     1      -2.935  -2.998   0.726  0.00  0.00    +0.020 A 
ATOM     27  C   UNL     1      -1.627  -2.622   0.485  0.00  0.00    +0.003 A 
ATOM     28  C   UNL     1      -0.775  -2.365   1.543  0.00  0.00    -0.064 A 
ATOM     29 CL   UNL     1      -5.035  -3.589   2.330  0.00  0.00    -0.084 Cl
ENDBRANCH  22  28
ENDBRANCH   1  22
TORSDOF 4
