REMARK  Name = ZINC58520703
REMARK  5 active torsions:
REMARK  status: ('A' for Active; 'I' for Inactive)
REMARK    1  A    between atoms: C_1  and  C_2
REMARK    2  A    between atoms: C_2  and  N_3
REMARK    3  A    between atoms: N_14  and  N_15
REMARK    4  A    between atoms: C_16  and  C_18
REMARK    5  A    between atoms: C_19  and  C_20
REMARK                            x       y       z     vdW  Elec       q    Type
REMARK                         _______ _______ _______ _____ _____    ______ ____
ROOT
ATOM      1  N   UNL     1       4.098  -0.642   0.054  0.00  0.00    -0.231 N 
ATOM      2  C   UNL     1       4.762  -0.402   1.202  0.00  0.00    +0.253 C 
ATOM      3  O   UNL     1       4.159  -0.010   2.184  0.00  0.00    -0.269 OA
ATOM      4  H   UNL     1       4.578  -0.955  -0.728  0.00  0.00    +0.173 HD
ENDROOT
BRANCH   1  16
ATOM      5  N   UNL     1       0.688  -0.476  -1.203  0.00  0.00    -0.280 N 
ATOM      6  C   UNL     1      -0.021  -0.698  -2.335  0.00  0.00    +0.263 A 
ATOM      7  O   UNL     1      -1.223  -0.512  -2.373  0.00  0.00    -0.267 OA
ATOM      8  C   UNL     1       0.716  -1.171  -3.515  0.00  0.00    +0.065 A 
ATOM      9  C   UNL     1       0.077  -1.428  -4.728  0.00  0.00    +0.015 A 
ATOM     10  C   UNL     1       0.811  -1.866  -5.795  0.00  0.00    +0.001 A 
ATOM     11  C   UNL     1       2.182  -2.058  -5.684  0.00  0.00    +0.002 A 
ATOM     12  C   UNL     1       2.833  -1.813  -4.508  0.00  0.00    +0.028 A 
ATOM     13  C   UNL     1       2.111  -1.365  -3.398  0.00  0.00    +0.080 A 
ATOM     14  N   UNL     1       2.714  -1.110  -2.213  0.00  0.00    -0.214 NA
ATOM     15  C   UNL     1       2.036  -0.684  -1.177  0.00  0.00    +0.216 A 
ATOM     16  N   UNL     1       2.713  -0.440  -0.009  0.00  0.00    -0.234 N 
ATOM     17  H   UNL     1       2.232  -0.128   0.774  0.00  0.00    +0.173 HD
BRANCH   5  19
ATOM     18  C   UNL     1      -0.019   1.526   0.010  0.00  0.00    +0.027 C 
ATOM     19  C   UNL     1       0.002  -0.004   0.002  0.00  0.00    +0.125 C 
ENDBRANCH   5  19
ENDBRANCH   1  16
BRANCH   2  20
ATOM     20  C   UNL     1       6.208  -0.613   1.268  0.00  0.00    +0.069 C 
ATOM     21  C   UNL     1       6.874  -0.373   2.419  0.00  0.00    +0.013 C 
BRANCH  21  22
ATOM     22  C   UNL     1       8.324  -0.585   2.485  0.00  0.00    -0.017 A 
ATOM     23  C   UNL     1       9.030  -1.027   1.369  0.00  0.00    +0.008 A 
ATOM     24  C   UNL     1      10.401  -1.227   1.436  0.00  0.00    +0.001 A 
ATOM     25  C   UNL     1      11.106  -1.001   2.579  0.00  0.00    +0.008 A 
ATOM     26  C   UNL     1      10.460  -0.554   3.744  0.00  0.00    -0.017 A 
ATOM     27  C   UNL     1       9.061  -0.330   3.722  0.00  0.00    -0.011 A 
ATOM     28  C   UNL     1       8.415   0.122   4.878  0.00  0.00    +0.009 A 
ATOM     29  C   UNL     1       9.140   0.347   6.011  0.00  0.00    +0.001 A 
ATOM     30  C   UNL     1      10.516   0.134   6.034  0.00  0.00    +0.001 A 
ATOM     31  C   UNL     1      11.174  -0.318   4.931  0.00  0.00    +0.008 A 
ENDBRANCH  21  22
ENDBRANCH   2  20
TORSDOF 4
