REMARK  Name = ZINC12597273
REMARK  10 active torsions:
REMARK  status: ('A' for Active; 'I' for Inactive)
REMARK    1  A    between atoms: C_1  and  C_2
REMARK    2  A    between atoms: C_2  and  C_3
REMARK    3  A    between atoms: C_2  and  C_4
REMARK    4  A    between atoms: C_2  and  C_5
REMARK    5  A    between atoms: C_5  and  N_6
REMARK    6  A    between atoms: C_10  and  C_13
REMARK    7  A    between atoms: C_10  and  O_25
REMARK    8  A    between atoms: C_13  and  N_53
REMARK    9  A    between atoms: C_14  and  C_15
REMARK   10  A    between atoms: C_14  and  N_53
REMARK                            x       y       z     vdW  Elec       q    Type
REMARK                         _______ _______ _______ _____ _____    ______ ____
ROOT
ATOM      1  C   UNL     1      -0.452   7.359  -1.355  0.00  0.00    -0.037 C 
ENDROOT
BRANCH   1   6
ATOM      2  N   UNL     1      -1.739   8.746  -4.462  0.00  0.00    -0.299 N 
ATOM      3  C   UNL     1      -1.016   9.998  -4.643  0.00  0.00    +0.108 C 
ATOM      4  C   UNL     1       0.414   9.871  -4.117  0.00  0.00    +0.022 C 
ATOM      5  C   UNL     1       0.365   9.303  -2.693  0.00  0.00    +0.044 C 
ATOM      6  C   UNL     1      -0.133   7.858  -2.766  0.00  0.00    +0.127 C 
ATOM      7  C   UNL     1      -1.373   7.788  -3.612  0.00  0.00    +0.245 C 
ATOM      8  O   UNL     1      -2.078   6.806  -3.517  0.00  0.00    -0.273 OA
BRANCH   6   9
ATOM      9  O   UNL     1       0.882   7.034  -3.343  0.00  0.00    -0.381 OA
ATOM     10  H   UNL     1       0.636   6.102  -3.419  0.00  0.00    +0.211 HD
ENDBRANCH   6   9
BRANCH   2  11
ATOM     11  C   UNL     1      -2.946   8.528  -5.264  0.00  0.00    +0.114 C 
BRANCH  11  13
ATOM     12  C   UNL     1      -1.904   6.496  -6.278  0.00  0.00    +0.012 C 
ATOM     13  C   UNL     1      -2.567   7.841  -6.578  0.00  0.00    -0.022 C 
ATOM     14  C   UNL     1      -3.827   7.614  -7.416  0.00  0.00    +0.012 C 
ATOM     15  C   UNL     1      -1.592   8.729  -7.354  0.00  0.00    +0.012 C 
ENDBRANCH  11  13
ENDBRANCH   2  11
ENDBRANCH   1   6
BRANCH   1  16
ATOM     16  N   UNL     1       0.760   7.464  -0.520  0.00  0.00    +0.384 N 
ATOM     17  H   UNL     1       1.112   8.428  -0.555  0.00  0.00    -0.085 HD
ATOM     18  H   UNL     1       1.477   6.824  -0.882  0.00  0.00    -0.085 HD
BRANCH  16  19
ATOM     19  C   UNL     1       0.451   7.108   0.877  0.00  0.00    -0.046 C 
BRANCH  19  20
ATOM     20  C   UNL     1       1.704   7.224   1.705  0.00  0.00    -0.055 A 
ATOM     21  C   UNL     1       2.432   6.108   2.009  0.00  0.00    +0.002 A 
ATOM     22  C   UNL     1       3.589   6.205   2.769  0.00  0.00    +0.002 A 
ATOM     23  C   UNL     1       4.030   7.429   3.224  0.00  0.00    +0.026 A 
ATOM     24  C   UNL     1       3.310   8.579   2.920  0.00  0.00    +0.047 A 
ATOM     25  C   UNL     1       2.135   8.475   2.152  0.00  0.00    +0.001 A 
ATOM     26  C   UNL     1       1.626   9.840   2.004  0.00  0.00    +0.027 A 
ATOM     27  C   UNL     1       2.472  10.648   2.661  0.00  0.00    +0.083 A 
ATOM     28  N   UNL     1       3.483   9.912   3.218  0.00  0.00    -0.361 N 
ATOM     29  H   UNL     1       4.214  10.276   3.741  0.00  0.00    +0.165 HD
ENDBRANCH  19  20
ENDBRANCH  16  19
ENDBRANCH   1  16
TORSDOF 7
