REMARK  Name = ZINC58343991
REMARK  6 active torsions:
REMARK  status: ('A' for Active; 'I' for Inactive)
REMARK    1  A    between atoms: C_4  and  N_17
REMARK    2  A    between atoms: C_5  and  C_7
REMARK    3  A    between atoms: C_7  and  N_8
REMARK    4  A    between atoms: C_12  and  C_14
REMARK    5  A    between atoms: C_18  and  C_20
REMARK    6  A    between atoms: C_26  and  N_29
REMARK                            x       y       z     vdW  Elec       q    Type
REMARK                         _______ _______ _______ _____ _____    ______ ____
ROOT
ATOM      1  C   UNL     1       0.649   1.535  -0.804  0.00  0.00    +0.000 A 
ATOM      2  C   UNL     1       1.949   2.004  -0.871  0.00  0.00    +0.002 A 
ATOM      3  C   UNL     1       2.994   1.208  -0.446  0.00  0.00    +0.023 A 
ATOM      4  C   UNL     1       2.739  -0.065   0.048  0.00  0.00    +0.035 A 
ATOM      5  C   UNL     1       1.433  -0.533   0.113  0.00  0.00    -0.043 A 
ATOM      6  C   UNL     1       0.392   0.269  -0.313  0.00  0.00    +0.003 A 
ENDROOT
BRANCH   4   7
ATOM      7  N   UNL     1       3.795  -0.874   0.479  0.00  0.00    -0.280 N 
ATOM      8  C   UNL     1       5.053  -0.613   0.071  0.00  0.00    +0.267 C 
ATOM      9  O   UNL     1       5.258   0.265  -0.746  0.00  0.00    -0.268 OA
ATOM     10  H   UNL     1       3.623  -1.623   1.070  0.00  0.00    +0.155 HD
BRANCH   8  11
ATOM     11  C   UNL     1       6.178  -1.388   0.615  0.00  0.00    +0.127 A 
ATOM     12  C   UNL     1       7.485  -1.215   0.288  0.00  0.00    +0.043 A 
ATOM     13  C   UNL     1       8.243  -2.156   1.027  0.00  0.00    +0.005 A 
ATOM     14  C   UNL     1       9.612  -2.443   1.102  0.00  0.00    +0.010 A 
ATOM     15  C   UNL     1      10.053  -3.434   1.928  0.00  0.00    +0.003 A 
ATOM     16  C   UNL     1       9.157  -4.165   2.698  0.00  0.00    +0.035 A 
ATOM     17  C   UNL     1       7.807  -3.902   2.642  0.00  0.00    +0.152 A 
ATOM     18  C   UNL     1       7.332  -2.895   1.807  0.00  0.00    +0.102 A 
ATOM     19  N   UNL     1       6.074  -2.405   1.544  0.00  0.00    -0.240 NA
BRANCH  17  20
ATOM     20  N   UNL     1       6.863  -4.689   3.467  0.00  0.00    +0.059 N 
ATOM     21  O   UNL     1       7.277  -5.563   4.192  0.00  0.00    -0.126 OA
ATOM     22  O   UNL     1       5.677  -4.457   3.416  0.00  0.00    -0.126 OA
ENDBRANCH  17  20
ENDBRANCH   8  11
ENDBRANCH   4   7
BRANCH   5  23
ATOM     23  C   UNL     1       1.152  -1.913   0.648  0.00  0.00    -0.040 C 
BRANCH  23  24
ATOM     24  N   UNL     1       1.482  -2.912  -0.378  0.00  0.00    +0.390 N 
ATOM     25  C   UNL     1       0.563  -2.767  -1.527  0.00  0.00    -0.077 C 
ATOM     26  C   UNL     1       0.315  -4.214  -2.020  0.00  0.00    -0.020 C 
ATOM     27  C   UNL     1       0.275  -4.999  -0.682  0.00  0.00    -0.008 C 
ATOM     28  C   UNL     1       1.324  -4.268   0.181  0.00  0.00    +0.019 C 
ATOM     29  H   UNL     1       2.433  -2.781  -0.688  0.00  0.00    -0.080 HD
BRANCH  28  30
ATOM     30  C   UNL     1       2.639  -5.002   0.121  0.00  0.00    +0.197 C 
ATOM     31  O   UNL     1       3.618  -4.456  -0.341  0.00  0.00    -0.278 OA
ATOM     32  N   UNL     1       2.726  -6.266   0.582  0.00  0.00    -0.331 N 
ATOM     33  H   UNL     1       1.942  -6.702   0.951  0.00  0.00    +0.145 HD
ATOM     34  H   UNL     1       3.572  -6.739   0.543  0.00  0.00    +0.145 HD
ENDBRANCH  28  30
ENDBRANCH  23  24
ENDBRANCH   5  23
TORSDOF 6
