REMARK  Name = ZINC22790570
REMARK  6 active torsions:
REMARK  status: ('A' for Active; 'I' for Inactive)
REMARK    1  A    between atoms: C_4  and  C_7
REMARK    2  A    between atoms: C_7  and  C_8
REMARK    3  A    between atoms: C_13  and  N_14
REMARK    4  A    between atoms: C_15  and  C_17
REMARK    5  A    between atoms: C_17  and  N_18
REMARK    6  A    between atoms: N_21  and  C_24
REMARK                            x       y       z     vdW  Elec       q    Type
REMARK                         _______ _______ _______ _____ _____    ______ ____
ROOT
ATOM      1  N   UNL     1      -2.456   3.823   0.044  0.00  0.00    -0.287 N 
ATOM      2  C   UNL     1      -3.614   3.140  -0.051  0.00  0.00    +0.201 C 
ATOM      3  O   UNL     1      -3.604   1.927  -0.057  0.00  0.00    -0.278 OA
ATOM      4  H   UNL     1      -2.470   4.919   0.141  0.00  0.00    +0.155 HD
ENDROOT
BRANCH   1  10
ATOM      5  C   UNL     1      -0.110   3.702   0.604  0.00  0.00    -0.022 A 
ATOM      6  C   UNL     1       1.093   3.024   0.578  0.00  0.00    +0.006 A 
ATOM      7  C   UNL     1       1.177   1.786  -0.032  0.00  0.00    +0.000 A 
ATOM      8  C   UNL     1       0.058   1.222  -0.616  0.00  0.00    +0.002 A 
ATOM      9  C   UNL     1      -1.147   1.897  -0.597  0.00  0.00    +0.023 A 
ATOM     10  C   UNL     1      -1.236   3.139   0.018  0.00  0.00    +0.037 A 
BRANCH   5  11
ATOM     11  C   UNL     1      -0.201   5.051   1.269  0.00  0.00    +0.072 C 
BRANCH  11  15
ATOM     12  C   UNL     1      -1.551   4.569   5.293  0.00  0.00    +0.000 A 
ATOM     13  C   UNL     1      -0.198   4.542   5.010  0.00  0.00    +0.000 A 
ATOM     14  C   UNL     1       0.239   4.698   3.708  0.00  0.00    +0.004 A 
ATOM     15  C   UNL     1      -0.677   4.881   2.689  0.00  0.00    -0.043 A 
ATOM     16  C   UNL     1      -2.029   4.914   2.973  0.00  0.00    +0.004 A 
ATOM     17  C   UNL     1      -2.467   4.753   4.274  0.00  0.00    +0.000 A 
ENDBRANCH  11  15
ENDBRANCH   5  11
ENDBRANCH   1  10
BRANCH   2  18
ATOM     18  C   UNL     1      -4.921   3.883  -0.149  0.00  0.00    +0.019 C 
BRANCH  18  19
ATOM     19  N   UNL     1      -6.026   2.920  -0.241  0.00  0.00    +0.387 N 
ATOM     20  C   UNL     1      -5.962   2.164  -1.500  0.00  0.00    -0.063 C 
ATOM     21  C   UNL     1      -7.080   1.119  -1.522  0.00  0.00    +0.066 C 
ATOM     22  N   UNL     1      -8.379   1.792  -1.381  0.00  0.00    -0.301 NA
ATOM     23  C   UNL     1      -8.443   2.548  -0.122  0.00  0.00    +0.066 C 
ATOM     24  C   UNL     1      -7.325   3.593  -0.100  0.00  0.00    -0.063 C 
ATOM     25  H   UNL     1      -5.921   2.206   0.589  0.00  0.00    -0.081 HD
BRANCH  22  26
ATOM     26  C   UNL     1      -9.484   0.829  -1.473  0.00  0.00    +0.079 C 
ATOM     27  C   UNL     1      -9.463   0.144  -2.850  0.00  0.00    +0.043 C 
ATOM     28  C   UNL     1     -10.405  -1.083  -2.844  0.00  0.00    +0.167 C 
ATOM     29  S   UNL     1     -10.385  -1.599  -1.079  0.00  0.00    -0.029 S 
ATOM     30  O   UNL     1     -11.695  -1.467  -0.543  0.00  0.00    -0.174 OA
ATOM     31  O   UNL     1      -9.707  -2.843  -0.968  0.00  0.00    -0.174 OA
ATOM     32  C   UNL     1      -9.317  -0.269  -0.384  0.00  0.00    +0.184 C 
ENDBRANCH  22  26
ENDBRANCH  18  19
ENDBRANCH   2  18
TORSDOF 6
