REMARK  Name = ZINC21965187
REMARK  12 active torsions:
REMARK  status: ('A' for Active; 'I' for Inactive)
REMARK    1  A    between atoms: C_1  and  C_2
REMARK    2  A    between atoms: C_2  and  C_4
REMARK    3  A    between atoms: C_7  and  S_10
REMARK    4  A    between atoms: S_10  and  N_13
REMARK    5  A    between atoms: N_13  and  C_14
REMARK    6  A    between atoms: N_13  and  C_15
REMARK    7  A    between atoms: C_15  and  C_16
REMARK    8  A    between atoms: C_16  and  C_17
REMARK    9  A    between atoms: C_17  and  C_18
REMARK   10  A    between atoms: N_20  and  N_21
REMARK   11  A    between atoms: C_22  and  C_24
REMARK   12  A    between atoms: N_28  and  C_29
REMARK                            x       y       z     vdW  Elec       q    Type
REMARK                         _______ _______ _______ _____ _____    ______ ____
ROOT
ATOM      1  C   UNL     1       6.109  -3.072  -0.278  0.00  0.00    +0.026 C 
ENDROOT
BRANCH   1   2
ATOM      2  C   UNL     1       7.575  -3.502  -0.193  0.00  0.00    +0.109 C 
BRANCH   2   3
ATOM      3  N   UNL     1       7.668  -4.955  -0.353  0.00  0.00    -0.180 NA
ATOM      4  C   UNL     1       7.720  -5.542  -1.695  0.00  0.00    +0.131 C 
BRANCH   3   5
ATOM      5  S   UNL     1       7.714  -5.934   0.981  0.00  0.00    +0.061 S 
ATOM      6  O   UNL     1       8.346  -7.141   0.578  0.00  0.00    -0.153 OA
ATOM      7  O   UNL     1       8.204  -5.139   2.052  0.00  0.00    -0.153 OA
BRANCH   5  11
ATOM      8  C   UNL     1       3.431  -6.998   2.013  0.00  0.00    +0.017 A 
ATOM      9  C   UNL     1       4.164  -7.805   1.137  0.00  0.00    +0.013 A 
ATOM     10  C   UNL     1       5.467  -7.474   0.828  0.00  0.00    +0.029 A 
ATOM     11  C   UNL     1       6.049  -6.348   1.382  0.00  0.00    +0.106 A 
ATOM     12  C   UNL     1       5.331  -5.547   2.254  0.00  0.00    +0.029 A 
ATOM     13  C   UNL     1       4.026  -5.861   2.569  0.00  0.00    +0.013 A 
BRANCH   8  15
ATOM     14  C   UNL     1       1.253  -6.470   3.291  0.00  0.00    +0.091 C 
ATOM     15  C   UNL     1       2.040  -7.343   2.347  0.00  0.00    +0.160 C 
ATOM     16  O   UNL     1       1.526  -8.329   1.863  0.00  0.00    -0.292 OA
ENDBRANCH   8  15
ENDBRANCH   5  11
ENDBRANCH   3   5
ENDBRANCH   2   3
ENDBRANCH   1   2
BRANCH   1  17
ATOM     17  C   UNL     1       6.012  -1.554  -0.111  0.00  0.00    +0.098 C 
BRANCH  17  18
ATOM     18  C   UNL     1       4.568  -1.131  -0.195  0.00  0.00    +0.229 C 
ATOM     19  O   UNL     1       3.702  -1.961  -0.371  0.00  0.00    -0.274 OA
ATOM     20  N   UNL     1       4.239   0.170  -0.074  0.00  0.00    -0.234 N 
ATOM     21  H   UNL     1       5.025   0.923   0.086  0.00  0.00    +0.173 HD
BRANCH  20  22
ATOM     22  N   UNL     1       2.897   0.564  -0.152  0.00  0.00    -0.229 N 
ATOM     23  C   UNL     1       2.568   1.865  -0.031  0.00  0.00    +0.277 C 
ATOM     24  O   UNL     1       3.442   2.708   0.053  0.00  0.00    -0.267 OA
ATOM     25  H   UNL     1       2.111  -0.189  -0.312  0.00  0.00    +0.173 HD
BRANCH  23  26
ATOM     26  C   UNL     1       1.158   2.266  -0.001  0.00  0.00    +0.107 A 
ATOM     27  C   UNL     1       0.070   1.418   0.011  0.00  0.00    +0.047 A 
ATOM     28  C   UNL     1      -1.076   2.220   0.041  0.00  0.00    +0.036 A 
ATOM     29  C   UNL     1      -0.676   3.515   0.052  0.00  0.00    +0.101 A 
ATOM     30  N   UNL     1       0.679   3.556   0.022  0.00  0.00    -0.345 N 
ATOM     31  C   UNL     1       1.497   4.771   0.019  0.00  0.00    +0.149 C 
ATOM     32 BR   UNL     1      -2.864   1.606   0.068  0.00  0.00    -0.049 Br
ENDBRANCH  23  26
ENDBRANCH  20  22
ENDBRANCH  17  18
ENDBRANCH   1  17
TORSDOF 9
