REMARK  Name = ZINC22698895
REMARK  8 active torsions:
REMARK  status: ('A' for Active; 'I' for Inactive)
REMARK    1  A    between atoms: C_6  and  C_7
REMARK    2  A    between atoms: C_10  and  C_12
REMARK    3  A    between atoms: N_14  and  N_15
REMARK    4  A    between atoms: C_16  and  C_18
REMARK    5  A    between atoms: C_18  and  C_19
REMARK    6  A    between atoms: C_19  and  C_20
REMARK    7  A    between atoms: C_20  and  C_21
REMARK    8  A    between atoms: C_21  and  C_22
REMARK                            x       y       z     vdW  Elec       q    Type
REMARK                         _______ _______ _______ _____ _____    ______ ____
ROOT
ATOM      1  C   UNL     1       3.763  -0.329  -0.036  0.00  0.00    +0.267 C 
ATOM      2  O   UNL     1       4.021  -1.519  -0.045  0.00  0.00    -0.268 OA
ATOM      3  N   UNL     1       4.760   0.577  -0.041  0.00  0.00    -0.230 N 
ATOM      4  H   UNL     1       4.527   1.652  -0.032  0.00  0.00    +0.173 HD
ENDROOT
BRANCH   1   8
ATOM      5  C   UNL     1      -0.017   1.381   0.010  0.00  0.00    +0.020 A 
ATOM      6  C   UNL     1       0.002  -0.004   0.002  0.00  0.00    +0.017 A 
ATOM      7  C   UNL     1       1.209  -0.645  -0.013  0.00  0.00    +0.021 A 
ATOM      8  C   UNL     1       2.368   0.117  -0.020  0.00  0.00    +0.076 A 
ATOM      9  S   UNL     1       1.723   1.782  -0.005  0.00  0.00    -0.084 S 
BRANCH   5  15
ATOM     10  C   UNL     1      -2.476   1.777   0.018  0.00  0.00    +0.012 A 
ATOM     11  C   UNL     1      -3.557   2.633   0.034  0.00  0.00    +0.039 A 
ATOM     12  C   UNL     1      -3.358   4.004   0.040  0.00  0.00    +0.123 A 
ATOM     13  C   UNL     1      -2.072   4.523   0.036  0.00  0.00    +0.039 A 
ATOM     14  C   UNL     1      -0.984   3.676   0.027  0.00  0.00    +0.012 A 
ATOM     15  C   UNL     1      -1.179   2.294   0.020  0.00  0.00    -0.011 A 
ATOM     16  F   UNL     1      -4.420   4.838   0.049  0.00  0.00    -0.205 F 
ENDBRANCH   5  15
ENDBRANCH   1   8
BRANCH   3  17
ATOM     17  N   UNL     1       6.095   0.150  -0.056  0.00  0.00    -0.234 N 
ATOM     18  C   UNL     1       7.092   1.056  -0.061  0.00  0.00    +0.229 C 
ATOM     19  O   UNL     1       6.835   2.241  -0.051  0.00  0.00    -0.274 OA
ATOM     20  H   UNL     1       6.328  -0.925  -0.065  0.00  0.00    +0.173 HD
BRANCH  18  21
ATOM     21  C   UNL     1       8.527   0.597  -0.077  0.00  0.00    +0.097 C 
BRANCH  21  22
ATOM     22  C   UNL     1       9.453   1.815  -0.079  0.00  0.00    +0.009 C 
BRANCH  22  23
ATOM     23  C   UNL     1      10.910   1.349  -0.096  0.00  0.00    +0.002 C 
BRANCH  23  24
ATOM     24  C   UNL     1      11.835   2.567  -0.098  0.00  0.00    +0.015 C 
BRANCH  24  25
ATOM     25  C   UNL     1      13.293   2.101  -0.115  0.00  0.00    +0.058 C 
ATOM     26  C   UNL     1      14.218   3.307  -0.242  0.00  0.00    +0.026 C 
ATOM     27  C   UNL     1      15.181   3.691   0.886  0.00  0.00    +0.082 C 
ATOM     28  S   UNL     1      15.569   2.104   1.762  0.00  0.00    -0.093 S 
ATOM     29  S   UNL     1      13.689   1.236   1.468  0.00  0.00    -0.090 S 
ENDBRANCH  24  25
ENDBRANCH  23  24
ENDBRANCH  22  23
ENDBRANCH  21  22
ENDBRANCH  18  21
ENDBRANCH   3  17
TORSDOF 8
