REMARK  Name = ZINC62496521
REMARK  7 active torsions:
REMARK  status: ('A' for Active; 'I' for Inactive)
REMARK    1  A    between atoms: C_1  and  C_2
REMARK    2  A    between atoms: C_6  and  C_9
REMARK    3  A    between atoms: C_7  and  C_8
REMARK    4  A    between atoms: C_9  and  C_10
REMARK    5  A    between atoms: N_14  and  C_23
REMARK    6  A    between atoms: C_17  and  O_22
REMARK    7  A    between atoms: C_23  and  C_24
REMARK                            x       y       z     vdW  Elec       q    Type
REMARK                         _______ _______ _______ _____ _____    ______ ____
ROOT
ATOM      1  C   UNL     1      -1.387  -2.961   2.892  0.00  0.00    +0.263 C 
ATOM      2  C   UNL     1      -1.487  -3.756   4.169  0.00  0.00    +0.262 C 
ATOM      3  O   UNL     1      -1.656  -4.956   4.128  0.00  0.00    -0.271 OA
ATOM      4  N   UNL     1      -1.387  -3.126   5.358  0.00  0.00    -0.251 N 
ATOM      5  C   UNL     1      -1.319  -1.726   5.388  0.00  0.00    +0.083 A 
ATOM      6  C   UNL     1      -0.990  -1.063   6.559  0.00  0.00    +0.072 A 
ATOM      7  C   UNL     1      -0.913   0.321   6.569  0.00  0.00    +0.119 A 
ATOM      8  C   UNL     1      -1.166   1.040   5.410  0.00  0.00    +0.049 A 
ATOM      9  C   UNL     1      -1.500   0.380   4.242  0.00  0.00    +0.051 A 
ATOM     10  C   UNL     1      -1.583  -1.002   4.228  0.00  0.00    +0.143 A 
ATOM     11  O   UNL     1      -1.942  -1.659   3.092  0.00  0.00    -0.477 OA
ENDROOT
BRANCH   7  12
ATOM     12  O   UNL     1      -0.591   0.976   7.717  0.00  0.00    -0.507 OA
ATOM     13  H   UNL     1       0.358   1.119   7.835  0.00  0.00    +0.292 HD
ENDBRANCH   7  12
BRANCH   1  14
ATOM     14  C   UNL     1       0.082  -2.832   2.486  0.00  0.00    +0.089 C 
BRANCH  14  20
ATOM     15  C   UNL     1       0.601  -6.588  -0.780  0.00  0.00    +0.044 C 
ATOM     16  C   UNL     1       0.876  -5.990   0.575  0.00  0.00    -0.047 A 
ATOM     17  C   UNL     1       1.630  -6.689   1.499  0.00  0.00    +0.003 A 
ATOM     18  C   UNL     1       1.882  -6.141   2.743  0.00  0.00    +0.001 A 
ATOM     19  C   UNL     1       1.381  -4.892   3.062  0.00  0.00    +0.004 A 
ATOM     20  C   UNL     1       0.628  -4.192   2.137  0.00  0.00    -0.040 A 
ATOM     21  C   UNL     1       0.380  -4.739   0.892  0.00  0.00    -0.044 A 
ATOM     22  C   UNL     1      -0.437  -3.974  -0.117  0.00  0.00    +0.044 C 
ENDBRANCH  14  20
ENDBRANCH   1  14
BRANCH   4  23
ATOM     23  C   UNL     1      -1.351  -3.897   6.604  0.00  0.00    +0.232 C 
BRANCH  23  24
ATOM     24  C   UNL     1       0.044  -4.221   6.940  0.00  0.00    +0.082 C 
ATOM     25  N   UNL     1       1.122  -4.471   7.200  0.00  0.00    -0.195 NA
ENDBRANCH  23  24
ENDBRANCH   4  23
TORSDOF 5
