REMARK  Name = ZINC47218605
REMARK  5 active torsions:
REMARK  status: ('A' for Active; 'I' for Inactive)
REMARK    1  A    between atoms: C_1  and  O_2
REMARK    2  A    between atoms: O_2  and  C_3
REMARK    3  A    between atoms: C_5  and  C_12
REMARK    4  A    between atoms: C_7  and  O_10
REMARK    5  A    between atoms: O_10  and  C_11
REMARK                            x       y       z     vdW  Elec       q    Type
REMARK                         _______ _______ _______ _____ _____    ______ ____
ROOT
ATOM      1  C   UNL     1       0.605  -0.607  -1.055  0.00  0.00    +0.141 A 
ATOM      2  C   UNL     1       1.180   0.150  -2.075  0.00  0.00    +0.079 A 
ATOM      3  C   UNL     1       1.784  -0.496  -3.133  0.00  0.00    +0.151 A 
ATOM      4  N   UNL     1       1.823  -1.815  -3.189  0.00  0.00    -0.208 NA
ATOM      5  C   UNL     1       1.290  -2.569  -2.242  0.00  0.00    +0.233 A 
ATOM      6  C   UNL     1       0.669  -1.993  -1.143  0.00  0.00    +0.121 A 
ATOM      7 BR   UNL     1      -0.084  -3.076   0.212  0.00  0.00    -0.041 Br
ENDROOT
BRANCH   3   8
ATOM      8  C   UNL     1       2.408   0.314  -4.240  0.00  0.00    +0.434 C 
ATOM      9  F   UNL     1       3.748   0.571  -3.932  0.00  0.00    -0.164 F 
ATOM     10  F   UNL     1       2.334  -0.402  -5.440  0.00  0.00    -0.164 F 
ATOM     11  F   UNL     1       1.720   1.524  -4.376  0.00  0.00    -0.164 F 
ENDBRANCH   3   8
BRANCH   1  13
ATOM     12  C   UNL     1      -0.017   1.425   0.010  0.00  0.00    +0.277 C 
ATOM     13  O   UNL     1       0.002  -0.004   0.002  0.00  0.00    -0.494 OA
ENDBRANCH   1  13
BRANCH   5  14
ATOM     14  O   UNL     1       1.355  -3.921  -2.344  0.00  0.00    -0.479 OA
ATOM     15  C   UNL     1       2.011  -4.454  -3.496  0.00  0.00    +0.279 C 
ENDBRANCH   5  14
TORSDOF 3
