REMARK  Name = ZINC20884560
REMARK  2 active torsions:
REMARK  status: ('A' for Active; 'I' for Inactive)
REMARK    1  A    between atoms: C_5  and  C_7
REMARK    2  A    between atoms: C_12  and  C_17
REMARK                            x       y       z     vdW  Elec       q    Type
REMARK                         _______ _______ _______ _____ _____    ______ ____
ROOT
ATOM      1  C   UNL     1       0.002  -0.004   0.002  0.00  0.00    +0.137 C 
ATOM      2  C   UNL     1      -0.103  -0.492   1.427  0.00  0.00    +0.036 C 
ATOM      3  C   UNL     1       0.877  -1.079   2.134  0.00  0.00    +0.017 C 
ATOM      4  C   UNL     1       0.642  -1.499   3.575  0.00  0.00    +0.059 C 
ATOM      5  C   UNL     1      -0.814  -1.920   3.764  0.00  0.00    +0.032 C 
ATOM      6  C   UNL     1      -1.697  -0.718   3.409  0.00  0.00    +0.088 C 
ATOM      7  C   UNL     1      -1.375  -0.286   2.010  0.00  0.00    +0.163 C 
ATOM      8  O   UNL     1      -2.239   0.262   1.353  0.00  0.00    -0.292 OA
ATOM      9  N   UNL     1       2.123  -1.343   1.663  0.00  0.00    -0.316 N 
ATOM     10  C   UNL     1       2.913  -0.441   0.961  0.00  0.00    +0.052 A 
ATOM     11  C   UNL     1       4.111   0.040   1.462  0.00  0.00    +0.025 A 
ATOM     12  C   UNL     1       4.871   0.903   0.691  0.00  0.00    +0.002 A 
ATOM     13  C   UNL     1       4.439   1.278  -0.568  0.00  0.00    +0.002 A 
ATOM     14  C   UNL     1       3.233   0.812  -1.063  0.00  0.00    +0.025 A 
ATOM     15  C   UNL     1       2.460  -0.035  -0.285  0.00  0.00    +0.049 A 
ATOM     16  N   UNL     1       1.192  -0.443  -0.695  0.00  0.00    -0.331 N 
ATOM     17  H   UNL     1       2.575  -2.332   1.829  0.00  0.00    +0.152 HD
ATOM     18  H   UNL     1       1.105  -1.111  -1.565  0.00  0.00    +0.147 HD
ENDROOT
BRANCH   1  23
ATOM     19  C   UNL     1       0.220   3.573   1.189  0.00  0.00    +0.000 A 
ATOM     20  C   UNL     1      -0.054   4.268   0.025  0.00  0.00    +0.001 A 
ATOM     21  C   UNL     1      -0.311   3.580  -1.146  0.00  0.00    +0.015 A 
ATOM     22  C   UNL     1      -0.288   2.197  -1.155  0.00  0.00    +0.023 A 
ATOM     23  C   UNL     1      -0.018   1.503   0.010  0.00  0.00    -0.009 A 
ATOM     24  C   UNL     1       0.238   2.191   1.181  0.00  0.00    +0.007 A 
ATOM     25 BR   UNL     1      -0.631   1.256  -2.759  0.00  0.00    -0.050 Br
ENDBRANCH   1  23
BRANCH   5  26
ATOM     26  C   UNL     1      -1.048  -2.321   5.198  0.00  0.00    -0.043 A 
ATOM     27  C   UNL     1      -0.796  -1.420   6.216  0.00  0.00    +0.007 A 
ATOM     28  C   UNL     1      -1.015  -1.785   7.531  0.00  0.00    +0.038 A 
ATOM     29  C   UNL     1      -1.478  -3.055   7.829  0.00  0.00    +0.123 A 
ATOM     30  C   UNL     1      -1.725  -3.958   6.809  0.00  0.00    +0.038 A 
ATOM     31  C   UNL     1      -1.510  -3.589   5.494  0.00  0.00    +0.007 A 
ATOM     32  F   UNL     1      -1.688  -3.414   9.115  0.00  0.00    -0.205 F 
ENDBRANCH   5  26
TORSDOF 2
