REMARK  Name = ZINC48303407
REMARK  9 active torsions:
REMARK  status: ('A' for Active; 'I' for Inactive)
REMARK    1  A    between atoms: C_1  and  C_2
REMARK    2  A    between atoms: C_2  and  N_3
REMARK    3  A    between atoms: N_3  and  C_4
REMARK    4  A    between atoms: N_3  and  C_6
REMARK    5  A    between atoms: C_4  and  C_5
REMARK    6  A    between atoms: C_6  and  C_7
REMARK    7  A    between atoms: C_7  and  N_8
REMARK    8  A    between atoms: N_17  and  C_18
REMARK    9  A    between atoms: C_18  and  C_20
REMARK                            x       y       z     vdW  Elec       q    Type
REMARK                         _______ _______ _______ _____ _____    ______ ____
ROOT
ATOM      1  N   UNL     1      -0.622  -3.765   2.101  0.00  0.00    -0.314 N 
ATOM      2  C   UNL     1      -1.584  -4.469   2.818  0.00  0.00    +0.068 A 
ATOM      3  C   UNL     1      -2.778  -4.095   3.418  0.00  0.00    +0.028 A 
ATOM      4  C   UNL     1      -3.542  -5.038   4.077  0.00  0.00    +0.002 A 
ATOM      5  C   UNL     1      -3.121  -6.356   4.142  0.00  0.00    +0.002 A 
ATOM      6  C   UNL     1      -1.935  -6.738   3.548  0.00  0.00    +0.028 A 
ATOM      7  C   UNL     1      -1.161  -5.798   2.882  0.00  0.00    +0.066 A 
ATOM      8  N   UNL     1       0.051  -5.877   2.203  0.00  0.00    -0.326 N 
ATOM      9  C   UNL     1       0.358  -4.636   1.732  0.00  0.00    +0.201 A 
ATOM     10  N   UNL     1       1.438  -4.326   1.030  0.00  0.00    -0.142 NA
ATOM     11  H   UNL     1       0.584  -6.678   2.083  0.00  0.00    +0.169 HD
ENDROOT
BRANCH  10  12
ATOM     12  C   UNL     1       2.275  -5.294   0.623  0.00  0.00    +0.280 C 
ATOM     13  O   UNL     1       1.994  -6.465   0.818  0.00  0.00    -0.267 OA
BRANCH  12  14
ATOM     14  C   UNL     1       3.527  -4.943  -0.054  0.00  0.00    +0.116 A 
ATOM     15  C   UNL     1       4.044  -3.695  -0.371  0.00  0.00    +0.151 A 
ATOM     16  N   UNL     1       5.201  -3.683  -0.987  0.00  0.00    -0.212 NA
ATOM     17  C   UNL     1       5.833  -4.804  -1.287  0.00  0.00    +0.163 A 
ATOM     18  S   UNL     1       4.813  -6.004  -0.696  0.00  0.00    -0.046 S 
ATOM     19  N   UNL     1       7.045  -4.954  -1.928  0.00  0.00    -0.310 N 
ATOM     20  C   UNL     1       7.696  -6.235  -2.241  0.00  0.00    +0.107 C 
ATOM     21  C   UNL     1       9.037  -5.910  -2.933  0.00  0.00    +0.020 C 
ATOM     22  C   UNL     1       9.328  -4.460  -2.464  0.00  0.00    +0.020 C 
ATOM     23  C   UNL     1       7.899  -3.857  -2.419  0.00  0.00    +0.107 C 
ATOM     24 CL   UNL     1       3.204  -2.229   0.028  0.00  0.00    -0.061 Cl
ENDBRANCH  12  14
ENDBRANCH  10  12
BRANCH   1  25
ATOM     25  C   UNL     1      -0.659  -2.334   1.790  0.00  0.00    +0.106 C 
BRANCH  25  26
ATOM     26  C   UNL     1      -1.383  -2.119   0.460  0.00  0.00    -0.057 C 
BRANCH  26  27
ATOM     27  N   UNL     1      -1.421  -0.684   0.148  0.00  0.00    +0.380 N 
ATOM     28  H   UNL     1      -1.838  -0.183   0.918  0.00  0.00    -0.082 HD
BRANCH  27  30
ATOM     29  C   UNL     1      -0.078   1.324  -0.255  0.00  0.00    -0.017 C 
ATOM     30  C   UNL     1      -0.053  -0.195  -0.071  0.00  0.00    -0.082 C 
ENDBRANCH  27  30
BRANCH  27  31
ATOM     31  C   UNL     1      -2.219  -0.467  -1.066  0.00  0.00    -0.082 C 
ATOM     32  C   UNL     1      -3.676  -0.844  -0.792  0.00  0.00    -0.017 C 
ENDBRANCH  27  31
ENDBRANCH  26  27
ENDBRANCH  25  26
ENDBRANCH   1  25
TORSDOF 7
