REMARK  Name = ZINC14977152
REMARK  10 active torsions:
REMARK  status: ('A' for Active; 'I' for Inactive)
REMARK    1  A    between atoms: C_1  and  C_2
REMARK    2  A    between atoms: C_2  and  C_3
REMARK    3  A    between atoms: C_2  and  C_4
REMARK    4  A    between atoms: C_2  and  C_5
REMARK    5  A    between atoms: C_8  and  N_11
REMARK    6  A    between atoms: C_16  and  N_56
REMARK    7  A    between atoms: C_21  and  C_22
REMARK    8  A    between atoms: C_21  and  N_56
REMARK    9  A    between atoms: C_25  and  C_27
REMARK   10  A    between atoms: C_27  and  O_28
REMARK                            x       y       z     vdW  Elec       q    Type
REMARK                         _______ _______ _______ _____ _____    ______ ____
ROOT
ATOM      1  N   UNL     1       2.084  11.311  -1.312  0.00  0.00    -0.237 N 
ATOM      2  C   UNL     1       2.528  10.419  -2.218  0.00  0.00    +0.047 A 
ATOM      3  C   UNL     1       1.873   9.250  -2.005  0.00  0.00    -0.020 A 
ATOM      4  C   UNL     1       0.999   9.435  -0.935  0.00  0.00    +0.137 A 
ATOM      5  N   UNL     1       1.123  10.671  -0.516  0.00  0.00    -0.174 NA
ATOM      6  C   UNL     1       2.092   7.997  -2.816  0.00  0.00    -0.037 C 
ATOM      7  C   UNL     1       3.410   8.145  -3.586  0.00  0.00    -0.011 C 
ATOM      8  C   UNL     1       3.428   9.489  -4.318  0.00  0.00    +0.005 C 
ATOM      9  C   UNL     1       3.561  10.626  -3.297  0.00  0.00    +0.056 C 
ENDROOT
BRANCH   1  13
ATOM     10  C   UNL     1       3.345  15.267  -0.939  0.00  0.00    -0.042 A 
ATOM     11  C   UNL     1       2.026  14.936  -0.684  0.00  0.00    +0.006 A 
ATOM     12  C   UNL     1       1.606  13.626  -0.807  0.00  0.00    +0.028 A 
ATOM     13  C   UNL     1       2.508  12.641  -1.187  0.00  0.00    +0.066 A 
ATOM     14  C   UNL     1       3.832  12.976  -1.436  0.00  0.00    +0.028 A 
ATOM     15  C   UNL     1       4.246  14.289  -1.317  0.00  0.00    +0.006 A 
BRANCH  10  17
ATOM     16  C   UNL     1       3.570  17.172   0.633  0.00  0.00    +0.015 C 
ATOM     17  C   UNL     1       3.800  16.697  -0.803  0.00  0.00    -0.013 C 
ATOM     18  C   UNL     1       5.290  16.792  -1.139  0.00  0.00    +0.015 C 
ATOM     19  C   UNL     1       3.003  17.579  -1.766  0.00  0.00    +0.015 C 
ENDBRANCH  10  17
ENDBRANCH   1  13
BRANCH   6  20
ATOM     20  N   UNL     1       2.178   6.831  -1.917  0.00  0.00    +0.388 N 
ATOM     21  H   UNL     1       2.642   7.109  -1.044  0.00  0.00    -0.084 HD
ATOM     22  H   UNL     1       2.724   6.091  -2.374  0.00  0.00    -0.084 HD
BRANCH  20  23
ATOM     23  C   UNL     1       0.829   6.321  -1.610  0.00  0.00    -0.006 C 
BRANCH  23  24
ATOM     24  C   UNL     1       0.948   5.131  -0.692  0.00  0.00    +0.089 A 
ATOM     25  C   UNL     1       0.956   5.173   0.653  0.00  0.00    +0.043 A 
ATOM     26  C   UNL     1       1.079   3.839   1.104  0.00  0.00    +0.047 A 
ATOM     27  C   UNL     1       1.147   3.062   0.008  0.00  0.00    +0.130 A 
ATOM     28  O   UNL     1       1.063   3.850  -1.077  0.00  0.00    -0.464 OA
BRANCH  27  29
ATOM     29  C   UNL     1       1.286   1.562  -0.002  0.00  0.00    +0.230 C 
BRANCH  29  30
ATOM     30  O   UNL     1      -0.011   0.963   0.007  0.00  0.00    -0.387 OA
ATOM     31  H   UNL     1       0.002  -0.004   0.002  0.00  0.00    +0.210 HD
ENDBRANCH  29  30
ENDBRANCH  27  29
ENDBRANCH  23  24
ENDBRANCH  20  23
ENDBRANCH   6  20
TORSDOF 7
