REMARK  Name = ZINC02655360
REMARK  9 active torsions:
REMARK  status: ('A' for Active; 'I' for Inactive)
REMARK    1  A    between atoms: C_1  and  C_2
REMARK    2  A    between atoms: C_6  and  N_9
REMARK    3  A    between atoms: C_7  and  C_8
REMARK    4  A    between atoms: C_13  and  S_15
REMARK    5  A    between atoms: S_15  and  C_16
REMARK    6  A    between atoms: C_16  and  C_18
REMARK    7  A    between atoms: C_16  and  C_19
REMARK    8  A    between atoms: C_24  and  C_27
REMARK    9  A    between atoms: C_31  and  N_33
REMARK                            x       y       z     vdW  Elec       q    Type
REMARK                         _______ _______ _______ _____ _____    ______ ____
ROOT
ATOM      1  C   UNL     1       5.972  -0.275   0.451  0.00  0.00    +0.136 C 
ATOM      2  C   UNL     1       6.249  -0.872  -0.930  0.00  0.00    +0.029 C 
ENDROOT
BRANCH   1   3
ATOM      3  C   UNL     1       4.571   0.278   0.487  0.00  0.00    +0.232 C 
ATOM      4  O   UNL     1       4.376   1.453   0.259  0.00  0.00    -0.274 OA
ATOM      5  N   UNL     1       3.533  -0.533   0.772  0.00  0.00    -0.264 N 
ATOM      6  C   UNL     1       2.241  -0.024   0.805  0.00  0.00    +0.165 A 
ATOM      7  N   UNL     1       1.105  -0.645   1.061  0.00  0.00    -0.225 NA
ATOM      8  C   UNL     1      -0.051   0.003   1.050  0.00  0.00    +0.080 A 
ATOM      9  C   UNL     1      -0.067   1.341   0.768  0.00  0.00    +0.076 A 
ATOM     10  S   UNL     1       1.676   1.647   0.513  0.00  0.00    -0.060 S 
ATOM     11  H   UNL     1       3.689  -1.473   0.955  0.00  0.00    +0.157 HD
BRANCH   8  12
ATOM     12  C   UNL     1      -1.315  -0.716   1.341  0.00  0.00    +0.003 A 
ATOM     13  C   UNL     1      -2.537  -0.056   1.227  0.00  0.00    +0.010 A 
ATOM     14  C   UNL     1      -3.710  -0.730   1.500  0.00  0.00    +0.003 A 
ATOM     15  C   UNL     1      -3.674  -2.058   1.885  0.00  0.00    +0.033 A 
ATOM     16  C   UNL     1      -2.464  -2.718   2.000  0.00  0.00    +0.127 A 
ATOM     17  C   UNL     1      -1.285  -2.056   1.724  0.00  0.00    +0.042 A 
BRANCH  16  18
ATOM     18  N   UNL     1      -2.434  -4.139   2.412  0.00  0.00    +0.056 N 
ATOM     19  O   UNL     1      -3.474  -4.727   2.651  0.00  0.00    -0.126 OA
ATOM     20  O   UNL     1      -1.369  -4.722   2.514  0.00  0.00    -0.126 OA
ENDBRANCH  16  18
ENDBRANCH   8  12
ENDBRANCH   1   3
BRANCH   1  21
ATOM     21  S   UNL     1       7.157   1.059   0.781  0.00  0.00    -0.084 S 
BRANCH  21  26
ATOM     22  N   UNL     1      12.625  -0.828   1.169  0.00  0.00    -0.292 N 
ATOM     23  C   UNL     1      11.258  -0.611   1.036  0.00  0.00    +0.187 A 
ATOM     24  N   UNL     1      10.293  -1.477   0.798  0.00  0.00    -0.125 NA
ATOM     25  N   UNL     1       8.991  -1.044   0.704  0.00  0.00    -0.133 NA
ATOM     26  C   UNL     1       8.714   0.238   0.852  0.00  0.00    +0.161 A 
ATOM     27  S   UNL     1      10.341   0.919   1.136  0.00  0.00    -0.024 S 
ATOM     28  H   UNL     1      13.209  -0.100   1.430  0.00  0.00    +0.154 HD
BRANCH  22  34
ATOM     29  C   UNL     1      16.442  -3.920   1.345  0.00  0.00    +0.044 C 
ATOM     30  C   UNL     1      15.005  -3.624   1.002  0.00  0.00    -0.046 A 
ATOM     31  C   UNL     1      14.211  -4.610   0.445  0.00  0.00    +0.004 A 
ATOM     32  C   UNL     1      12.892  -4.343   0.127  0.00  0.00    +0.002 A 
ATOM     33  C   UNL     1      12.361  -3.091   0.371  0.00  0.00    +0.023 A 
ATOM     34  C   UNL     1      13.157  -2.097   0.925  0.00  0.00    +0.036 A 
ATOM     35  C   UNL     1      14.482  -2.369   1.243  0.00  0.00    -0.026 A 
ATOM     36  C   UNL     1      15.348  -1.295   1.849  0.00  0.00    +0.046 C 
ENDBRANCH  22  34
ENDBRANCH  21  26
ENDBRANCH   1  21
TORSDOF 6
