REMARK  Name = ZINC13806374
REMARK  7 active torsions:
REMARK  status: ('A' for Active; 'I' for Inactive)
REMARK    1  A    between atoms: C_1  and  C_2
REMARK    2  A    between atoms: C_4  and  C_32
REMARK    3  A    between atoms: C_6  and  N_8
REMARK    4  A    between atoms: C_9  and  C_11
REMARK    5  A    between atoms: C_11  and  C_30
REMARK    6  A    between atoms: N_13  and  C_24
REMARK    7  A    between atoms: C_17  and  C_18
REMARK                            x       y       z     vdW  Elec       q    Type
REMARK                         _______ _______ _______ _____ _____    ______ ____
ROOT
ATOM      1  C   UNL     1      -6.453   1.542   1.745  0.00  0.00    +0.144 C 
ATOM      2  C   UNL     1      -7.261   1.769   0.626  0.00  0.00    +0.111 A 
ATOM      3  N   UNL     1      -6.926   1.667  -0.701  0.00  0.00    -0.269 N 
ATOM      4  C   UNL     1      -7.827   1.921  -1.636  0.00  0.00    +0.270 A 
ATOM      5  O   UNL     1      -7.556   1.838  -2.821  0.00  0.00    -0.266 OA
ATOM      6  C   UNL     1      -9.129   2.298  -1.194  0.00  0.00    +0.080 A 
ATOM      7  C   UNL     1     -10.235   2.611  -1.930  0.00  0.00    +0.035 C 
ATOM      8  S   UNL     1      -8.929   2.241   0.579  0.00  0.00    -0.064 S 
ENDROOT
BRANCH   3   9
ATOM      9  C   UNL     1      -5.627   1.292  -1.067  0.00  0.00    +0.051 A 
ATOM     10  C   UNL     1      -4.572   2.179  -0.895  0.00  0.00    +0.026 A 
ATOM     11  C   UNL     1      -3.292   1.804  -1.252  0.00  0.00    +0.002 A 
ATOM     12  C   UNL     1      -3.060   0.551  -1.788  0.00  0.00    +0.000 A 
ATOM     13  C   UNL     1      -4.109  -0.333  -1.966  0.00  0.00    +0.002 A 
ATOM     14  C   UNL     1      -5.391   0.034  -1.606  0.00  0.00    +0.026 A 
ENDBRANCH   3   9
BRANCH   7  15
ATOM     15  C   UNL     1     -10.230   2.419  -3.330  0.00  0.00    +0.013 A 
ATOM     16  C   UNL     1     -10.873   3.156  -4.319  0.00  0.00    +0.015 A 
ATOM     17  C   UNL     1     -10.692   2.748  -5.617  0.00  0.00    +0.008 A 
ATOM     18  C   UNL     1      -9.919   1.659  -5.869  0.00  0.00    +0.046 A 
ATOM     19  S   UNL     1      -9.403   1.163  -4.290  0.00  0.00    -0.097 S 
ENDBRANCH   7  15
BRANCH   1  21
ATOM     20  N   UNL     1      -4.915  -0.315   1.420  0.00  0.00    -0.281 N 
ATOM     21  C   UNL     1      -5.103   1.010   1.576  0.00  0.00    +0.261 C 
ATOM     22  O   UNL     1      -4.147   1.765   1.576  0.00  0.00    -0.269 OA
ATOM     23  H   UNL     1      -5.679  -0.909   1.359  0.00  0.00    +0.155 HD
BRANCH  20  29
ATOM     24  C   UNL     1      -0.176  -0.057   2.703  0.00  0.00    +0.044 C 
ATOM     25  C   UNL     1      -1.302  -0.729   1.960  0.00  0.00    -0.048 A 
ATOM     26  C   UNL     1      -1.052  -1.860   1.205  0.00  0.00    +0.006 A 
ATOM     27  C   UNL     1      -2.082  -2.480   0.521  0.00  0.00    -0.048 A 
ATOM     28  C   UNL     1      -3.364  -1.970   0.590  0.00  0.00    +0.026 A 
ATOM     29  C   UNL     1      -3.618  -0.834   1.348  0.00  0.00    +0.034 A 
ATOM     30  C   UNL     1      -2.582  -0.217   2.038  0.00  0.00    +0.026 A 
ATOM     31  C   UNL     1      -1.806  -3.712  -0.301  0.00  0.00    +0.044 C 
ENDBRANCH  20  29
ENDBRANCH   1  21
BRANCH   1  32
ATOM     32  C   UNL     1      -6.950   1.830   3.057  0.00  0.00    +0.107 C 
ATOM     33  N   UNL     1      -7.344   2.058   4.098  0.00  0.00    -0.191 NA
ENDBRANCH   1  32
TORSDOF 5
