REMARK  Name = ZINC04904283
REMARK  3 active torsions:
REMARK  status: ('A' for Active; 'I' for Inactive)
REMARK    1  A    between atoms: C_13  and  N_17
REMARK    2  A    between atoms: C_18  and  C_20
REMARK    3  A    between atoms: C_21  and  C_22
REMARK                            x       y       z     vdW  Elec       q    Type
REMARK                         _______ _______ _______ _____ _____    ______ ____
ROOT
ATOM      1  C   UNL     1       7.356   0.034  -0.042  0.00  0.00    +0.001 A 
ATOM      2  C   UNL     1       7.349   1.417  -0.024  0.00  0.00    +0.001 A 
ATOM      3  C   UNL     1       6.153   2.112  -0.013  0.00  0.00    +0.012 A 
ATOM      4  C   UNL     1       4.947   1.417  -0.021  0.00  0.00    +0.033 A 
ATOM      5  C   UNL     1       4.954   0.011  -0.038  0.00  0.00    +0.033 A 
ATOM      6  C   UNL     1       6.166  -0.673  -0.049  0.00  0.00    +0.012 A 
ATOM      7  C   UNL     1       3.678  -0.735  -0.046  0.00  0.00    +0.195 C 
ATOM      8  O   UNL     1       3.683  -1.950  -0.062  0.00  0.00    -0.287 OA
ATOM      9  C   UNL     1       2.396   0.000  -0.036  0.00  0.00    +0.035 A 
ATOM     10  C   UNL     1       1.190  -0.693  -0.044  0.00  0.00    +0.012 A 
ATOM     11  C   UNL     1      -0.010   0.000  -0.035  0.00  0.00    +0.003 A 
ATOM     12  C   UNL     1      -0.024   1.379  -0.017  0.00  0.00    +0.024 A 
ATOM     13  C   UNL     1       1.172   2.095  -0.008  0.00  0.00    +0.045 A 
ATOM     14  C   UNL     1       2.392   1.408  -0.018  0.00  0.00    +0.054 A 
ATOM     15  C   UNL     1       3.664   2.151  -0.010  0.00  0.00    +0.196 C 
ATOM     16  O   UNL     1       3.658   3.366   0.006  0.00  0.00    -0.287 OA
ENDROOT
BRANCH  13  17
ATOM     17  N   UNL     1       1.154   3.484   0.009  0.00  0.00    -0.281 N 
ATOM     18  C   UNL     1       0.090   4.138   0.516  0.00  0.00    +0.241 C 
ATOM     19  O   UNL     1      -0.810   3.514   1.050  0.00  0.00    -0.270 OA
ATOM     20  H   UNL     1       1.907   3.983  -0.343  0.00  0.00    +0.155 HD
BRANCH  18  21
ATOM     21  C   UNL     1       0.018   5.548   0.428  0.00  0.00    +0.071 C 
ATOM     22  C   UNL     1      -1.053   6.206   0.938  0.00  0.00    +0.051 C 
BRANCH  22  23
ATOM     23  C   UNL     1      -1.125   7.617   0.850  0.00  0.00    +0.128 A 
ATOM     24  C   UNL     1      -2.152   8.410   1.319  0.00  0.00    +0.049 A 
ATOM     25  C   UNL     1      -1.802   9.735   1.020  0.00  0.00    +0.042 A 
ATOM     26  C   UNL     1      -0.607   9.700   0.389  0.00  0.00    +0.195 A 
ATOM     27  O   UNL     1      -0.203   8.427   0.288  0.00  0.00    -0.464 OA
ENDBRANCH  22  23
ENDBRANCH  18  21
ENDBRANCH  13  17
TORSDOF 3
