REMARK  Name = ZINC11898361
REMARK  8 active torsions:
REMARK  status: ('A' for Active; 'I' for Inactive)
REMARK    1  A    between atoms: C_1  and  N_2
REMARK    2  A    between atoms: C_6  and  C_7
REMARK    3  A    between atoms: C_7  and  C_9
REMARK    4  A    between atoms: C_7  and  N_59
REMARK    5  A    between atoms: C_9  and  N_10
REMARK    6  A    between atoms: C_11  and  C_13
REMARK    7  A    between atoms: N_15  and  C_16
REMARK    8  A    between atoms: C_16  and  C_17
REMARK                            x       y       z     vdW  Elec       q    Type
REMARK                         _______ _______ _______ _____ _____    ______ ____
ROOT
ATOM      1  C   UNL     1      -2.596  -2.606  -0.047  0.00  0.00    -0.003 C 
ENDROOT
BRANCH   1  11
ATOM      2  C   UNL     1      -2.913  -0.866  -1.703  0.00  0.00    -0.073 C 
ATOM      3  C   UNL     1      -3.509  -0.633  -3.092  0.00  0.00    +0.017 C 
ATOM      4  C   UNL     1      -4.999  -0.857  -3.055  0.00  0.00    -0.048 A 
ATOM      5  C   UNL     1      -5.767  -0.363  -4.099  0.00  0.00    +0.004 A 
ATOM      6  C   UNL     1      -7.135  -0.553  -4.109  0.00  0.00    +0.000 A 
ATOM      7  C   UNL     1      -7.741  -1.239  -3.073  0.00  0.00    +0.000 A 
ATOM      8  C   UNL     1      -6.978  -1.728  -2.033  0.00  0.00    +0.002 A 
ATOM      9  C   UNL     1      -5.604  -1.537  -2.020  0.00  0.00    -0.061 A 
ATOM     10  C   UNL     1      -4.814  -2.085  -0.861  0.00  0.00    -0.042 C 
ATOM     11  N   UNL     1      -3.389  -2.178  -1.222  0.00  0.00    +0.389 N 
ATOM     12  H   UNL     1      -3.277  -2.871  -1.971  0.00  0.00    -0.080 HD
ENDBRANCH   1  11
BRANCH   1  18
ATOM     13  C   UNL     1      -1.497  -4.275   2.324  0.00  0.00    +0.148 C 
ATOM     14  N   UNL     1      -2.406  -4.777   1.291  0.00  0.00    -0.355 N 
ATOM     15  C   UNL     1      -2.905  -6.044   1.220  0.00  0.00    +0.085 A 
ATOM     16  C   UNL     1      -3.697  -6.125   0.132  0.00  0.00    +0.019 A 
ATOM     17  C   UNL     1      -3.692  -4.860  -0.489  0.00  0.00    +0.021 A 
ATOM     18  C   UNL     1      -2.897  -4.054   0.244  0.00  0.00    +0.006 A 
ENDBRANCH   1  18
BRANCH   1  19
ATOM     19  C   UNL     1      -1.107  -2.447  -0.361  0.00  0.00    +0.095 C 
BRANCH  19  20
ATOM     20  N   UNL     1      -0.792  -3.156  -1.604  0.00  0.00    -0.309 N 
ATOM     21  C   UNL     1       0.446  -3.073  -2.131  0.00  0.00    +0.299 C 
ATOM     22  O   UNL     1       1.299  -2.413  -1.575  0.00  0.00    -0.265 OA
ATOM     23  H   UNL     1      -1.474  -3.684  -2.047  0.00  0.00    +0.149 HD
BRANCH  21  24
ATOM     24  C   UNL     1       0.768  -3.796  -3.399  0.00  0.00    +0.299 C 
ATOM     25  O   UNL     1      -0.084  -4.461  -3.951  0.00  0.00    -0.265 OA
ATOM     26  N   UNL     1       2.006  -3.713  -3.926  0.00  0.00    -0.303 N 
ATOM     27  H   UNL     1       2.688  -3.185  -3.482  0.00  0.00    +0.149 HD
BRANCH  26  28
ATOM     28  C   UNL     1       2.321  -4.421  -5.169  0.00  0.00    +0.140 C 
BRANCH  28  29
ATOM     29  C   UNL     1       3.759  -4.168  -5.540  0.00  0.00    -0.030 A 
ATOM     30  C   UNL     1       4.085  -3.093  -6.348  0.00  0.00    +0.006 A 
ATOM     31  C   UNL     1       5.404  -2.857  -6.684  0.00  0.00    +0.020 A 
ATOM     32  C   UNL     1       6.398  -3.701  -6.223  0.00  0.00    +0.041 A 
ATOM     33  C   UNL     1       6.071  -4.779  -5.420  0.00  0.00    +0.020 A 
ATOM     34  C   UNL     1       4.752  -5.012  -5.079  0.00  0.00    +0.006 A 
ATOM     35 CL   UNL     1       8.055  -3.409  -6.650  0.00  0.00    -0.084 Cl
ENDBRANCH  28  29
ENDBRANCH  26  28
ENDBRANCH  21  24
ENDBRANCH  19  20
ENDBRANCH   1  19
TORSDOF 7
