REMARK  Name = ZINC39545431
REMARK  7 active torsions:
REMARK  status: ('A' for Active; 'I' for Inactive)
REMARK    1  A    between atoms: C_1  and  O_2
REMARK    2  A    between atoms: O_2  and  N_3
REMARK    3  A    between atoms: N_3  and  C_4
REMARK    4  A    between atoms: C_9  and  O_10
REMARK    5  A    between atoms: C_11  and  C_13
REMARK    6  A    between atoms: C_16  and  S_27
REMARK    7  A    between atoms: S_27  and  C_28
REMARK                            x       y       z     vdW  Elec       q    Type
REMARK                         _______ _______ _______ _____ _____    ______ ____
ROOT
ATOM      1  C   UNL     1      -1.924  -0.427  -2.838  0.00  0.00    +0.152 C 
ATOM      2  C   UNL     1      -2.435  -1.273  -1.655  0.00  0.00    +0.075 C 
ATOM      3  C   UNL     1      -3.458  -2.197  -2.276  0.00  0.00    +0.022 C 
ATOM      4  C   UNL     1      -3.533  -1.959  -3.566  0.00  0.00    +0.084 C 
ATOM      5  N   UNL     1      -4.407  -2.595  -4.483  0.00  0.00    -0.303 N 
ATOM      6  C   UNL     1      -4.907  -1.761  -5.496  0.00  0.00    +0.037 A 
ATOM      7  C   UNL     1      -5.857  -2.246  -6.383  0.00  0.00    +0.023 A 
ATOM      8  C   UNL     1      -6.341  -1.428  -7.386  0.00  0.00    +0.002 A 
ATOM      9  C   UNL     1      -5.876  -0.130  -7.500  0.00  0.00    +0.000 A 
ATOM     10  C   UNL     1      -4.933   0.354  -6.614  0.00  0.00    +0.007 A 
ATOM     11  C   UNL     1      -4.444  -0.456  -5.602  0.00  0.00    -0.010 A 
ATOM     12  C   UNL     1      -3.437   0.111  -4.636  0.00  0.00    +0.124 C 
ATOM     13  N   UNL     1      -2.656  -0.952  -4.001  0.00  0.00    -0.369 NA
ATOM     14  H   UNL     1      -4.641  -3.534  -4.417  0.00  0.00    +0.153 HD
ATOM     15  H   UNL     1      -2.004  -1.335  -4.669  0.00  0.00    +0.129 HD
ENDROOT
BRANCH   1  17
ATOM     16  N   UNL     1       0.411  -0.235  -2.046  0.00  0.00    -0.144 N 
ATOM     17  C   UNL     1      -0.440  -0.616  -3.019  0.00  0.00    +0.262 C 
ATOM     18  O   UNL     1      -0.012  -1.110  -4.041  0.00  0.00    -0.271 OA
BRANCH  16  19
ATOM     19  C   UNL     1       1.791  -0.411  -2.215  0.00  0.00    +0.106 A 
ATOM     20  C   UNL     1       2.538   0.550  -2.881  0.00  0.00    +0.029 A 
ATOM     21  C   UNL     1       3.899   0.375  -3.046  0.00  0.00    +0.002 A 
ATOM     22  C   UNL     1       4.519  -0.756  -2.549  0.00  0.00    +0.004 A 
ATOM     23  C   UNL     1       3.782  -1.718  -1.884  0.00  0.00    +0.047 A 
ATOM     24  C   UNL     1       2.418  -1.547  -1.709  0.00  0.00    +0.140 A 
BRANCH  24  25
ATOM     25  O   UNL     1       1.692  -2.489  -1.050  0.00  0.00    -0.505 OA
ATOM     26  H   UNL     1       1.335  -3.182  -1.622  0.00  0.00    +0.292 HD
ENDBRANCH  24  25
ENDBRANCH  16  19
BRANCH  16  28
ATOM     27  C   UNL     1      -0.209   1.764  -0.902  0.00  0.00    +0.227 C 
ATOM     28  O   UNL     1      -0.089   0.341  -0.853  0.00  0.00    -0.276 OA
ENDBRANCH  16  28
ENDBRANCH   1  17
BRANCH   3  29
ATOM     29  S   UNL     1      -4.401  -3.404  -1.405  0.00  0.00    -0.130 S 
ATOM     30  C   UNL     1      -5.447  -2.425  -0.293  0.00  0.00    +0.089 C 
ENDBRANCH   3  29
TORSDOF 5
