REMARK  Name = ZINC02955745
REMARK  8 active torsions:
REMARK  status: ('A' for Active; 'I' for Inactive)
REMARK    1  A    between atoms: C_1  and  C_2
REMARK    2  A    between atoms: C_2  and  C_3
REMARK    3  A    between atoms: C_7  and  N_9
REMARK    4  A    between atoms: C_11  and  C_23
REMARK    5  A    between atoms: C_14  and  C_21
REMARK    6  A    between atoms: C_17  and  C_20
REMARK    7  A    between atoms: C_21  and  O_22
REMARK    8  A    between atoms: N_25  and  C_26
REMARK                            x       y       z     vdW  Elec       q    Type
REMARK                         _______ _______ _______ _____ _____    ______ ____
ROOT
ATOM      1  N   UNL     1      -3.534  -1.871  -3.333  0.00  0.00    -0.325 N 
ATOM      2  C   UNL     1      -4.437  -2.612  -2.729  0.00  0.00    +0.212 A 
ATOM      3  C   UNL     1      -5.818  -2.695  -3.246  0.00  0.00    +0.098 A 
ATOM      4  C   UNL     1      -6.530  -3.840  -2.962  0.00  0.00    +0.030 A 
ATOM      5  C   UNL     1      -5.856  -4.871  -2.171  0.00  0.00    +0.027 A 
ATOM      6  C   UNL     1      -6.380  -6.163  -2.046  0.00  0.00    +0.007 A 
ATOM      7  C   UNL     1      -5.687  -7.083  -1.286  0.00  0.00    +0.117 A 
ATOM      8  N   UNL     1      -4.555  -6.761  -0.687  0.00  0.00    -0.256 NA
ATOM      9  C   UNL     1      -4.022  -5.559  -0.774  0.00  0.00    +0.081 A 
ATOM     10  C   UNL     1      -4.648  -4.566  -1.515  0.00  0.00    +0.159 A 
ATOM     11  O   UNL     1      -4.124  -3.326  -1.618  0.00  0.00    -0.437 OA
ATOM     12  C   UNL     1      -2.727  -5.260  -0.064  0.00  0.00    +0.069 C 
ATOM     13  H   UNL     1      -3.738  -1.456  -4.186  0.00  0.00    +0.169 HD
ENDROOT
BRANCH   1  18
ATOM     14  C   UNL     1       0.087  -1.605  -2.943  0.00  0.00    -0.046 A 
ATOM     15  C   UNL     1       0.178  -1.310  -1.594  0.00  0.00    +0.004 A 
ATOM     16  C   UNL     1      -0.966  -1.202  -0.824  0.00  0.00    +0.002 A 
ATOM     17  C   UNL     1      -2.207  -1.388  -1.397  0.00  0.00    +0.026 A 
ATOM     18  C   UNL     1      -2.307  -1.686  -2.758  0.00  0.00    +0.042 A 
ATOM     19  C   UNL     1      -1.147  -1.787  -3.531  0.00  0.00    +0.029 A 
BRANCH  14  21
ATOM     20  C   UNL     1       1.696  -0.349  -4.352  0.00  0.00    +0.009 C 
ATOM     21  C   UNL     1       1.339  -1.720  -3.773  0.00  0.00    +0.032 C 
ENDBRANCH  14  21
ENDBRANCH   1  18
BRANCH   3  22
ATOM     22  C   UNL     1      -6.410  -1.598  -4.033  0.00  0.00    +0.253 C 
ATOM     23  O   UNL     1      -7.501  -1.742  -4.552  0.00  0.00    -0.270 OA
ATOM     24  N   UNL     1      -5.743  -0.436  -4.177  0.00  0.00    -0.281 N 
ATOM     25  H   UNL     1      -4.851  -0.340  -3.809  0.00  0.00    +0.155 HD
BRANCH  24  26
ATOM     26  C   UNL     1      -6.338   0.632  -4.856  0.00  0.00    +0.034 A 
ATOM     27  C   UNL     1      -7.177   0.389  -5.936  0.00  0.00    +0.024 A 
ATOM     28  C   UNL     1      -7.762   1.446  -6.606  0.00  0.00    +0.017 A 
ATOM     29  C   UNL     1      -7.514   2.745  -6.202  0.00  0.00    +0.018 A 
ATOM     30  C   UNL     1      -6.678   2.990  -5.126  0.00  0.00    +0.017 A 
ATOM     31  C   UNL     1      -6.095   1.938  -4.449  0.00  0.00    +0.024 A 
ATOM     32 BR   UNL     1      -8.317   4.189  -7.121  0.00  0.00    -0.050 Br
ENDBRANCH  24  26
ENDBRANCH   3  22
BRANCH   6  33
ATOM     33  C   UNL     1      -7.671  -6.541  -2.725  0.00  0.00    +0.193 C 
BRANCH  33  34
ATOM     34  O   UNL     1      -7.978  -7.907  -2.438  0.00  0.00    -0.390 OA
ATOM     35  H   UNL     1      -8.798  -8.220  -2.844  0.00  0.00    +0.210 HD
ENDBRANCH  33  34
ENDBRANCH   6  33
TORSDOF 6
