REMARK  Name = ZINC17217233
REMARK  4 active torsions:
REMARK  status: ('A' for Active; 'I' for Inactive)
REMARK    1  A    between atoms: C_1  and  O_2
REMARK    2  A    between atoms: O_2  and  C_3
REMARK    3  A    between atoms: C_6  and  N_9
REMARK    4  A    between atoms: C_15  and  C_31
REMARK                            x       y       z     vdW  Elec       q    Type
REMARK                         _______ _______ _______ _____ _____    ______ ____
ROOT
ATOM      1  N   UNL     1      -3.302  -2.249   1.754  0.00  0.00    -0.210 N 
ATOM      2  C   UNL     1      -2.090  -2.465   2.294  0.00  0.00    +0.230 C 
ATOM      3  O   UNL     1      -1.870  -2.853   3.421  0.00  0.00    -0.274 OA
ATOM      4  C   UNL     1      -1.040  -2.135   1.235  0.00  0.00    +0.094 C 
ATOM      5  C   UNL     1      -0.515  -0.746   1.510  0.00  0.00    +0.026 C 
ATOM      6  C   UNL     1       0.229  -0.102   0.358  0.00  0.00    +0.052 C 
ATOM      7  C   UNL     1      -0.519  -0.312  -0.927  0.00  0.00    -0.011 A 
ATOM      8  C   UNL     1      -0.407   0.416  -2.174  0.00  0.00    +0.004 A 
ATOM      9  C   UNL     1       0.391   1.491  -2.576  0.00  0.00    +0.010 A 
ATOM     10  C   UNL     1       0.228   1.937  -3.865  0.00  0.00    +0.001 A 
ATOM     11  C   UNL     1      -0.682   1.357  -4.734  0.00  0.00    +0.002 A 
ATOM     12  C   UNL     1      -1.483   0.292  -4.362  0.00  0.00    +0.026 A 
ATOM     13  C   UNL     1      -1.338  -0.182  -3.060  0.00  0.00    +0.047 A 
ATOM     14  N   UNL     1      -1.951  -1.194  -2.381  0.00  0.00    -0.357 N 
ATOM     15  H   UNL     1      -2.720  -1.803  -2.879  0.00  0.00    +0.166 HD
ATOM     16  C   UNL     1      -1.455  -1.270  -1.102  0.00  0.00    +0.034 A 
ATOM     17  C   UNL     1      -1.863  -2.252  -0.050  0.00  0.00    +0.134 C 
ATOM     18  C   UNL     1      -3.275  -2.001   0.431  0.00  0.00    +0.236 C 
ATOM     19  O   UNL     1      -4.212  -1.643  -0.250  0.00  0.00    -0.274 OA
ENDROOT
BRANCH   6  20
ATOM     20  C   UNL     1       0.368   1.376   0.618  0.00  0.00    -0.040 A 
ATOM     21  C   UNL     1      -0.760   2.162   0.755  0.00  0.00    +0.005 A 
ATOM     22  C   UNL     1      -0.633   3.517   0.999  0.00  0.00    +0.015 A 
ATOM     23  C   UNL     1       0.623   4.088   1.094  0.00  0.00    +0.018 A 
ATOM     24  C   UNL     1       1.752   3.301   0.951  0.00  0.00    +0.015 A 
ATOM     25  C   UNL     1       1.624   1.946   0.713  0.00  0.00    +0.005 A 
ATOM     26 BR   UNL     1       0.797   5.942   1.420  0.00  0.00    -0.050 Br
ENDBRANCH   6  20
BRANCH   1  30
ATOM     27  C   UNL     1      -6.830  -2.336   3.979  0.00  0.00    +0.120 A 
ATOM     28  C   UNL     1      -5.603  -2.436   4.620  0.00  0.00    +0.047 A 
ATOM     29  C   UNL     1      -4.436  -2.408   3.884  0.00  0.00    +0.027 A 
ATOM     30  C   UNL     1      -4.489  -2.278   2.502  0.00  0.00    +0.044 A 
ATOM     31  C   UNL     1      -5.716  -2.173   1.863  0.00  0.00    +0.027 A 
ATOM     32  C   UNL     1      -6.884  -2.207   2.599  0.00  0.00    +0.047 A 
BRANCH  27  34
ATOM     33  C   UNL     1      -9.206  -2.256   3.980  0.00  0.00    +0.277 C 
ATOM     34  O   UNL     1      -7.979  -2.364   4.704  0.00  0.00    -0.495 OA
ENDBRANCH  27  34
ENDBRANCH   1  30
TORSDOF 3
