REMARK  Name = ZINC54390029
REMARK  10 active torsions:
REMARK  status: ('A' for Active; 'I' for Inactive)
REMARK    1  A    between atoms: C_1  and  C_2
REMARK    2  A    between atoms: C_2  and  C_3
REMARK    3  A    between atoms: C_3  and  C_5
REMARK    4  A    between atoms: C_3  and  C_6
REMARK    5  A    between atoms: C_11  and  N_12
REMARK    6  A    between atoms: C_13  and  C_15
REMARK    7  A    between atoms: C_15  and  C_17
REMARK    8  A    between atoms: C_15  and  N_18
REMARK    9  A    between atoms: C_26  and  N_27
REMARK   10  A    between atoms: C_28  and  C_30
REMARK                            x       y       z     vdW  Elec       q    Type
REMARK                         _______ _______ _______ _____ _____    ______ ____
ROOT
ATOM      1  C   UNL     1      -3.626  -1.457   4.415  0.00  0.00    +0.017 C 
ATOM      2  C   UNL     1      -2.687  -0.338   4.869  0.00  0.00    -0.004 C 
ENDROOT
BRANCH   1   3
ATOM      3  N   UNL     1      -3.993  -2.286   5.571  0.00  0.00    +0.390 N 
ATOM      4  C   UNL     1      -4.905  -3.356   5.139  0.00  0.00    -0.073 C 
ATOM      5  C   UNL     1      -5.030  -4.376   6.272  0.00  0.00    +0.019 C 
ATOM      6  C   UNL     1      -5.365  -3.669   7.560  0.00  0.00    -0.027 A 
ATOM      7  C   UNL     1      -5.192  -2.310   7.700  0.00  0.00    -0.059 A 
ATOM      8  C   UNL     1      -5.508  -1.696   8.903  0.00  0.00    +0.002 A 
ATOM      9  C   UNL     1      -5.997  -2.437   9.961  0.00  0.00    +0.002 A 
ATOM     10  C   UNL     1      -6.175  -3.800   9.825  0.00  0.00    +0.023 A 
ATOM     11  C   UNL     1      -5.860  -4.418   8.624  0.00  0.00    +0.037 A 
ATOM     12  C   UNL     1      -4.670  -1.458   6.573  0.00  0.00    -0.042 C 
ATOM     13  H   UNL     1      -3.162  -2.691   5.974  0.00  0.00    -0.080 HD
BRANCH  11  14
ATOM     14  N   UNL     1      -6.038  -5.799   8.482  0.00  0.00    -0.285 N 
ATOM     15  C   UNL     1      -5.824  -6.617   9.532  0.00  0.00    +0.214 C 
ATOM     16  O   UNL     1      -5.558  -6.152  10.619  0.00  0.00    -0.276 OA
ATOM     17  C   UNL     1      -5.917  -8.111   9.354  0.00  0.00    +0.109 C 
ATOM     18  H   UNL     1      -6.315  -6.167   7.629  0.00  0.00    +0.155 HD
ENDBRANCH  11  14
ENDBRANCH   1   3
BRANCH   1  20
ATOM     19  N   UNL     1      -2.500  -1.760   2.234  0.00  0.00    -0.287 N 
ATOM     20  C   UNL     1      -2.930  -2.310   3.386  0.00  0.00    +0.203 C 
ATOM     21  O   UNL     1      -2.758  -3.493   3.595  0.00  0.00    -0.277 OA
ATOM     22  H   UNL     1      -2.586  -0.804   2.091  0.00  0.00    +0.155 HD
BRANCH  19  28
ATOM     23  C   UNL     1      -1.974  -2.172  -0.087  0.00  0.00    -0.023 A 
ATOM     24  C   UNL     1      -1.404  -2.968  -1.062  0.00  0.00    +0.006 A 
ATOM     25  C   UNL     1      -0.794  -4.159  -0.714  0.00  0.00    +0.000 A 
ATOM     26  C   UNL     1      -0.751  -4.557   0.610  0.00  0.00    +0.002 A 
ATOM     27  C   UNL     1      -1.319  -3.766   1.589  0.00  0.00    +0.023 A 
ATOM     28  C   UNL     1      -1.929  -2.567   1.243  0.00  0.00    +0.037 A 
BRANCH  23  29
ATOM     29  C   UNL     1      -2.640  -0.875  -0.467  0.00  0.00    +0.017 C 
ATOM     30  C   UNL     1      -3.713  -1.142  -1.524  0.00  0.00    +0.012 C 
BRANCH  29  32
ATOM     31  C   UNL     1      -2.244   1.446  -1.304  0.00  0.00    +0.004 C 
ATOM     32  C   UNL     1      -1.594   0.088  -1.035  0.00  0.00    +0.004 C 
ENDBRANCH  29  32
ENDBRANCH  23  29
ENDBRANCH  19  28
ENDBRANCH   1  20
TORSDOF 6
