REMARK  Name = ZINC09281078
REMARK  9 active torsions:
REMARK  status: ('A' for Active; 'I' for Inactive)
REMARK    1  A    between atoms: C_1  and  C_2
REMARK    2  A    between atoms: C_2  and  C_3
REMARK    3  A    between atoms: C_2  and  C_4
REMARK    4  A    between atoms: C_2  and  C_5
REMARK    5  A    between atoms: C_12  and  N_25
REMARK    6  A    between atoms: C_13  and  C_14
REMARK    7  A    between atoms: N_16  and  C_17
REMARK    8  A    between atoms: C_26  and  C_28
REMARK    9  A    between atoms: C_29  and  C_30
REMARK                            x       y       z     vdW  Elec       q    Type
REMARK                         _______ _______ _______ _____ _____    ______ ____
ROOT
ATOM      1  C   UNL     1       3.555   2.857   3.492  0.00  0.00    -0.000 C 
ATOM      2  C   UNL     1       2.034   2.924   3.648  0.00  0.00    +0.009 C 
ATOM      3  C   UNL     1       1.365   2.006   2.624  0.00  0.00    +0.037 C 
ATOM      4  C   UNL     1       1.901   2.347   1.239  0.00  0.00    -0.023 A 
ATOM      5  C   UNL     1       3.057   3.029   1.089  0.00  0.00    -0.004 A 
ATOM      6  S   UNL     1       3.272   3.178  -0.661  0.00  0.00    -0.077 S 
ATOM      7  C   UNL     1       1.852   2.338  -1.190  0.00  0.00    +0.085 A 
ATOM      8  C   UNL     1       1.245   1.963   0.001  0.00  0.00    +0.069 A 
ATOM      9  C   UNL     1       3.948   3.546   2.177  0.00  0.00    +0.046 C 
ENDROOT
BRANCH   1  11
ATOM     10  C   UNL     1       3.765   5.035   4.699  0.00  0.00    +0.011 C 
ATOM     11  C   UNL     1       4.223   3.576   4.666  0.00  0.00    -0.035 C 
ATOM     12  C   UNL     1       3.830   2.888   5.975  0.00  0.00    +0.011 C 
ATOM     13  C   UNL     1       5.743   3.522   4.499  0.00  0.00    +0.011 C 
ENDBRANCH   1  11
BRANCH   8  14
ATOM     14  C   UNL     1      -0.014   1.213   0.009  0.00  0.00    +0.247 C 
ATOM     15  O   UNL     1       0.002  -0.004   0.002  0.00  0.00    -0.270 OA
ATOM     16  N   UNL     1      -1.191   1.871   0.018  0.00  0.00    -0.307 N 
ATOM     17  H   UNL     1      -1.204   2.841   0.023  0.00  0.00    +0.149 HD
BRANCH  16  18
ATOM     18  C   UNL     1      -2.449   1.121   0.020  0.00  0.00    +0.096 C 
ATOM     19  C   UNL     1      -2.855   0.783  -1.425  0.00  0.00    +0.046 C 
ATOM     20  C   UNL     1      -4.319   0.283  -1.458  0.00  0.00    +0.168 C 
ATOM     21  S   UNL     1      -5.069   1.131  -0.009  0.00  0.00    -0.029 S 
ATOM     22  O   UNL     1      -5.492   0.153   0.931  0.00  0.00    -0.174 OA
ATOM     23  O   UNL     1      -5.995   2.104  -0.471  0.00  0.00    -0.174 OA
ATOM     24  C   UNL     1      -3.577   1.989   0.649  0.00  0.00    +0.188 C 
ENDBRANCH  16  18
ENDBRANCH   8  14
BRANCH   7  25
ATOM     25  N   UNL     1       1.425   2.100  -2.486  0.00  0.00    -0.276 N 
ATOM     26  C   UNL     1       2.154   2.546  -3.528  0.00  0.00    +0.242 C 
ATOM     27  O   UNL     1       3.188   3.159  -3.330  0.00  0.00    -0.270 OA
ATOM     28  H   UNL     1       0.602   1.612  -2.643  0.00  0.00    +0.156 HD
BRANCH  26  29
ATOM     29  C   UNL     1       1.719   2.303  -4.852  0.00  0.00    +0.071 C 
ATOM     30  C   UNL     1       2.453   2.752  -5.901  0.00  0.00    +0.051 C 
BRANCH  30  31
ATOM     31  C   UNL     1       2.017   2.508  -7.226  0.00  0.00    +0.128 A 
ATOM     32  C   UNL     1       2.658   2.910  -8.379  0.00  0.00    +0.049 A 
ATOM     33  C   UNL     1       1.875   2.452  -9.450  0.00  0.00    +0.042 A 
ATOM     34  C   UNL     1       0.809   1.811  -8.922  0.00  0.00    +0.195 A 
ATOM     35  O   UNL     1       0.897   1.847  -7.585  0.00  0.00    -0.464 OA
ENDBRANCH  30  31
ENDBRANCH  26  29
ENDBRANCH   7  25
TORSDOF 6
