REMARK  Name = ZINC17082595
REMARK  7 active torsions:
REMARK  status: ('A' for Active; 'I' for Inactive)
REMARK    1  A    between atoms: C_1  and  C_2
REMARK    2  A    between atoms: C_2  and  C_3
REMARK    3  A    between atoms: C_3  and  C_4
REMARK    4  A    between atoms: C_11  and  N_16
REMARK    5  A    between atoms: C_12  and  C_13
REMARK    6  A    between atoms: C_17  and  C_19
REMARK    7  A    between atoms: C_20  and  C_21
REMARK                            x       y       z     vdW  Elec       q    Type
REMARK                         _______ _______ _______ _____ _____    ______ ____
ROOT
ATOM      1  C   UNL     1       9.076  10.699   0.348  0.00  0.00    -0.006 C 
ATOM      2  C   UNL     1       8.161  11.610  -0.476  0.00  0.00    +0.008 C 
ATOM      3  C   UNL     1       6.714  11.455  -0.006  0.00  0.00    +0.037 C 
ATOM      4  C   UNL     1       6.353   9.975  -0.009  0.00  0.00    -0.023 A 
ATOM      5  C   UNL     1       7.313   9.025  -0.023  0.00  0.00    -0.004 A 
ATOM      6  S   UNL     1       6.431   7.490  -0.014  0.00  0.00    -0.077 S 
ATOM      7  C   UNL     1       4.809   8.099  -0.003  0.00  0.00    +0.085 A 
ATOM      8  C   UNL     1       4.988   9.476   0.002  0.00  0.00    +0.068 A 
ATOM      9  C   UNL     1       8.795   9.239  -0.035  0.00  0.00    +0.046 C 
ENDROOT
BRANCH   8  10
ATOM     10  C   UNL     1       3.844  10.391   0.017  0.00  0.00    +0.244 C 
ATOM     11  O   UNL     1       3.379  10.767   1.078  0.00  0.00    -0.270 OA
ATOM     12  N   UNL     1       3.306  10.818  -1.143  0.00  0.00    -0.325 N 
ATOM     13  H   UNL     1       3.677  10.519  -1.988  0.00  0.00    +0.145 HD
ATOM     14  H   UNL     1       2.549  11.424  -1.133  0.00  0.00    +0.145 HD
ENDBRANCH   8  10
BRANCH   7  15
ATOM     15  N   UNL     1       3.622   7.386   0.005  0.00  0.00    -0.276 N 
ATOM     16  C   UNL     1       3.645   6.038  -0.002  0.00  0.00    +0.241 C 
ATOM     17  O   UNL     1       4.710   5.448  -0.015  0.00  0.00    -0.270 OA
ATOM     18  H   UNL     1       2.774   7.856   0.015  0.00  0.00    +0.156 HD
BRANCH  16  19
ATOM     19  C   UNL     1       2.391   5.284   0.006  0.00  0.00    +0.068 C 
ATOM     20  C   UNL     1       2.414   3.936  -0.001  0.00  0.00    +0.013 C 
BRANCH  20  21
ATOM     21  C   UNL     1       1.153   3.178   0.008  0.00  0.00    -0.023 A 
ATOM     22  C   UNL     1       1.173   1.779   0.000  0.00  0.00    +0.008 A 
ATOM     23  C   UNL     1      -0.013   1.076   0.008  0.00  0.00    +0.002 A 
ATOM     24  C   UNL     1      -1.222   1.750   0.017  0.00  0.00    +0.020 A 
ATOM     25  C   UNL     1      -1.251   3.134   0.030  0.00  0.00    +0.042 A 
ATOM     26  C   UNL     1      -0.072   3.852   0.022  0.00  0.00    +0.028 A 
ATOM     27 CL   UNL     1      -2.773   3.968   0.048  0.00  0.00    -0.084 Cl
ENDBRANCH  20  21
ENDBRANCH  16  19
ENDBRANCH   7  15
BRANCH   1  28
ATOM     28  C   UNL     1      10.539  11.035   0.048  0.00  0.00    +0.003 C 
BRANCH  28  30
ATOM     29  C   UNL     1      12.911  10.548   0.662  0.00  0.00    +0.004 C 
ATOM     30  C   UNL     1      11.449  10.212   0.962  0.00  0.00    -0.003 C 
ENDBRANCH  28  30
ENDBRANCH   1  28
TORSDOF 6
