REMARK  Name = ZINC45869986
REMARK  10 active torsions:
REMARK  status: ('A' for Active; 'I' for Inactive)
REMARK    1  A    between atoms: C_1  and  C_2
REMARK    2  A    between atoms: C_5  and  C_8
REMARK    3  A    between atoms: C_8  and  N_9
REMARK    4  A    between atoms: N_12  and  C_13
REMARK    5  A    between atoms: C_13  and  C_15
REMARK    6  A    between atoms: C_13  and  C_19
REMARK    7  A    between atoms: C_15  and  C_16
REMARK    8  A    between atoms: C_16  and  C_17
REMARK    9  A    between atoms: C_16  and  C_18
REMARK   10  A    between atoms: C_24  and  N_27
REMARK                            x       y       z     vdW  Elec       q    Type
REMARK                         _______ _______ _______ _____ _____    ______ ____
ROOT
ATOM      1  C   UNL     1       3.571  -8.261   0.705  0.00  0.00    +0.161 C 
ENDROOT
BRANCH   1   2
ATOM      2  C   UNL     1       4.761  -8.609  -0.151  0.00  0.00    +0.236 C 
ATOM      3  O   UNL     1       5.239  -7.776  -0.893  0.00  0.00    -0.274 OA
ATOM      4  N   UNL     1       5.296  -9.845  -0.092  0.00  0.00    -0.300 N 
ATOM      5  C   UNL     1       4.665 -10.895   0.719  0.00  0.00    +0.110 C 
ATOM      6  C   UNL     1       4.424 -12.123  -0.166  0.00  0.00    +0.044 C 
ATOM      7  C   UNL     1       5.742 -12.541  -0.821  0.00  0.00    +0.095 C 
ATOM      8  C   UNL     1       6.258 -11.403  -1.705  0.00  0.00    +0.044 C 
ATOM      9  C   UNL     1       6.516 -10.169  -0.843  0.00  0.00    +0.110 C 
BRANCH   7  10
ATOM     10  N   UNL     1       5.522 -13.735  -1.642  0.00  0.00    -0.289 N 
ATOM     11  C   UNL     1       6.144 -14.969  -1.469  0.00  0.00    +0.070 A 
ATOM     12  C   UNL     1       7.082 -15.443  -0.564  0.00  0.00    +0.028 A 
ATOM     13  C   UNL     1       7.518 -16.751  -0.649  0.00  0.00    +0.002 A 
ATOM     14  C   UNL     1       7.025 -17.589  -1.633  0.00  0.00    +0.002 A 
ATOM     15  C   UNL     1       6.091 -17.125  -2.539  0.00  0.00    +0.028 A 
ATOM     16  C   UNL     1       5.646 -15.815  -2.462  0.00  0.00    +0.067 A 
ATOM     17  N   UNL     1       4.736 -15.068  -3.207  0.00  0.00    -0.306 N 
ATOM     18  H   UNL     1       4.227 -15.389  -3.968  0.00  0.00    +0.170 HD
ATOM     19  C   UNL     1       4.679 -13.827  -2.688  0.00  0.00    +0.328 A 
ATOM     20  O   UNL     1       3.976 -12.925  -3.103  0.00  0.00    -0.247 OA
ENDBRANCH   7  10
ENDBRANCH   1   2
BRANCH   1  24
ATOM     21  N   UNL     1       1.467  -5.258   0.458  0.00  0.00    -0.295 N 
ATOM     22  C   UNL     1       1.853  -6.534   0.654  0.00  0.00    +0.300 C 
ATOM     23  O   UNL     1       1.056  -7.353   1.069  0.00  0.00    -0.253 OA
ATOM     24  N   UNL     1       3.122  -6.903   0.389  0.00  0.00    -0.288 N 
ATOM     25  H   UNL     1       2.103  -4.604   0.126  0.00  0.00    +0.151 HD
ATOM     26  H   UNL     1       3.737  -6.269  -0.012  0.00  0.00    +0.151 HD
BRANCH  21  27
ATOM     27  C   UNL     1       0.088  -4.856   0.746  0.00  0.00    +0.141 C 
BRANCH  27  32
ATOM     28  C   UNL     1      -0.566   0.768  -0.407  0.00  0.00    +0.044 C 
ATOM     29  C   UNL     1      -0.395  -0.699  -0.107  0.00  0.00    -0.050 A 
ATOM     30  C   UNL     1      -0.628  -1.638  -1.093  0.00  0.00    +0.003 A 
ATOM     31  C   UNL     1      -0.472  -2.983  -0.818  0.00  0.00    +0.005 A 
ATOM     32  C   UNL     1      -0.082  -3.389   0.445  0.00  0.00    -0.030 A 
ATOM     33  C   UNL     1       0.153  -2.450   1.431  0.00  0.00    +0.005 A 
ATOM     34  C   UNL     1       0.000  -1.104   1.154  0.00  0.00    +0.003 A 
ENDBRANCH  27  32
ENDBRANCH  21  27
ENDBRANCH   1  24
BRANCH   1  35
ATOM     35  C   UNL     1       3.965  -8.337   2.182  0.00  0.00    +0.034 C 
BRANCH  35  36
ATOM     36  C   UNL     1       4.996  -7.249   2.491  0.00  0.00    -0.015 C 
ATOM     37  C   UNL     1       5.241  -7.193   4.000  0.00  0.00    +0.007 C 
ATOM     38  C   UNL     1       6.308  -7.572   1.773  0.00  0.00    +0.007 C 
ENDBRANCH  35  36
ENDBRANCH   1  35
TORSDOF 7
