REMARK  Name = ZINC65329876
REMARK  11 active torsions:
REMARK  status: ('A' for Active; 'I' for Inactive)
REMARK    1  A    between atoms: C_1  and  C_2
REMARK    2  A    between atoms: C_2  and  C_3
REMARK    3  A    between atoms: C_3  and  C_4
REMARK    4  A    between atoms: C_3  and  C_6
REMARK    5  A    between atoms: C_4  and  C_5
REMARK    6  A    between atoms: C_6  and  N_8
REMARK    7  A    between atoms: N_10  and  C_11
REMARK    8  A    between atoms: C_16  and  C_17
REMARK    9  A    between atoms: N_18  and  C_19
REMARK   10  A    between atoms: C_19  and  C_20
REMARK   11  A    between atoms: C_20  and  C_21
REMARK                            x       y       z     vdW  Elec       q    Type
REMARK                         _______ _______ _______ _____ _____    ______ ____
ROOT
ATOM      1  N   UNL     1       2.749  -2.700  -2.413  0.00  0.00    -0.147 NA
ATOM      2  C   UNL     1       2.264  -3.841  -2.886  0.00  0.00    +0.194 C 
ATOM      3  N   UNL     1       2.595  -4.254  -4.143  0.00  0.00    -0.328 N 
ATOM      4  N   UNL     1       1.433  -4.599  -2.117  0.00  0.00    -0.357 N 
ATOM      5  H   UNL     1       1.269  -4.353  -1.193  0.00  0.00    +0.162 HD
ATOM      6  H   UNL     1       2.293  -5.118  -4.466  0.00  0.00    +0.169 HD
ENDROOT
BRANCH   3   7
ATOM      7  C   UNL     1       3.371  -3.433  -4.968  0.00  0.00    +0.045 A 
ATOM      8  C   UNL     1       3.382  -2.058  -4.769  0.00  0.00    +0.026 A 
ATOM      9  C   UNL     1       4.149  -1.250  -5.585  0.00  0.00    +0.002 A 
ATOM     10  C   UNL     1       4.906  -1.808  -6.599  0.00  0.00    +0.000 A 
ATOM     11  C   UNL     1       4.898  -3.175  -6.799  0.00  0.00    +0.005 A 
ATOM     12  C   UNL     1       4.137  -3.990  -5.983  0.00  0.00    -0.027 A 
ATOM     13  C   UNL     1       4.134  -5.482  -6.198  0.00  0.00    +0.046 C 
ENDBRANCH   3   7
BRANCH   1  14
ATOM     14  C   UNL     1       2.256  -2.182  -1.290  0.00  0.00    +0.242 C 
ATOM     15  O   UNL     1       1.282  -2.684  -0.766  0.00  0.00    -0.273 OA
BRANCH  14  16
ATOM     16  C   UNL     1       2.907  -0.973  -0.670  0.00  0.00    +0.077 C 
BRANCH  16  18
ATOM     17  C   UNL     1       2.630   0.843   1.024  0.00  0.00    +0.004 C 
ATOM     18  C   UNL     1       2.034  -0.455   0.475  0.00  0.00    +0.009 C 
ENDBRANCH  16  18
BRANCH  16  19
ATOM     19  C   UNL     1       4.285  -1.357  -0.126  0.00  0.00    +0.009 C 
ATOM     20  C   UNL     1       5.189  -1.784  -1.285  0.00  0.00    +0.004 C 
ENDBRANCH  16  19
ENDBRANCH  14  16
ENDBRANCH   1  14
BRANCH   4  21
ATOM     21  C   UNL     1       0.789  -5.787  -2.684  0.00  0.00    +0.120 C 
BRANCH  21  22
ATOM     22  C   UNL     1      -0.175  -6.384  -1.657  0.00  0.00    +0.054 C 
BRANCH  22  23
ATOM     23  C   UNL     1      -0.746  -7.671  -2.194  0.00  0.00    -0.040 C 
ATOM     24  C   UNL     1      -0.254  -8.917  -2.012  0.00  0.00    -0.001 A 
ATOM     25  C   UNL     1       0.916  -9.428  -1.288  0.00  0.00    +0.010 A 
ATOM     26  C   UNL     1       1.157 -10.759  -1.286  0.00  0.00    +0.001 A 
ATOM     27  C   UNL     1       0.318 -11.661  -1.956  0.00  0.00    +0.002 A 
ATOM     28  C   UNL     1      -0.776 -11.267  -2.642  0.00  0.00    +0.026 A 
ATOM     29  C   UNL     1      -1.124  -9.890  -2.711  0.00  0.00    +0.043 A 
ATOM     30  N   UNL     1      -2.116  -9.269  -3.302  0.00  0.00    -0.380 N 
ATOM     31  C   UNL     1      -1.990  -7.831  -3.040  0.00  0.00    +0.144 C 
ATOM     32  H   UNL     1      -2.817  -9.690  -3.823  0.00  0.00    +0.160 HD
ENDBRANCH  22  23
ENDBRANCH  21  22
ENDBRANCH   4  21
TORSDOF 8
