REMARK  Name = ZINC33367616
REMARK  7 active torsions:
REMARK  status: ('A' for Active; 'I' for Inactive)
REMARK    1  A    between atoms: C_1  and  C_2
REMARK    2  A    between atoms: C_4  and  C_25
REMARK    3  A    between atoms: C_6  and  S_8
REMARK    4  A    between atoms: S_8  and  C_9
REMARK    5  A    between atoms: C_9  and  C_10
REMARK    6  A    between atoms: N_12  and  C_13
REMARK    7  A    between atoms: C_14  and  C_23
REMARK                            x       y       z     vdW  Elec       q    Type
REMARK                         _______ _______ _______ _____ _____    ______ ____
ROOT
ATOM      1  C   UNL     1       0.055  -2.123   5.307  0.00  0.00    +0.228 C 
ATOM      2  O   UNL     1       0.071  -3.328   5.447  0.00  0.00    -0.275 OA
ATOM      3  N   UNL     1       0.049  -1.320   6.389  0.00  0.00    -0.278 N 
ATOM      4  H   UNL     1       0.035  -0.356   6.277  0.00  0.00    +0.155 HD
ENDROOT
BRANCH   3   5
ATOM      5  C   UNL     1       0.062  -1.871   7.663  0.00  0.00    +0.090 A 
ATOM      6  C   UNL     1       0.053  -1.207   8.877  0.00  0.00    +0.084 A 
ATOM      7  C   UNL     1       0.071  -2.019  10.085  0.00  0.00    -0.018 A 
ATOM      8  C   UNL     1       0.100  -3.348   9.850  0.00  0.00    -0.004 A 
ATOM      9  S   UNL     1       0.085  -3.495   8.085  0.00  0.00    -0.077 S 
ATOM     10  C   UNL     1       0.143  -4.455  10.858  0.00  0.00    +0.043 C 
ATOM     11  C   UNL     1      -0.937  -4.210  11.920  0.00  0.00    +0.005 C 
ATOM     12  C   UNL     1      -0.338  -3.361  13.037  0.00  0.00    +0.001 C 
ATOM     13  C   UNL     1       0.699  -2.395  12.468  0.00  0.00    +0.005 C 
ATOM     14  C   UNL     1       0.044  -1.427  11.487  0.00  0.00    +0.037 C 
BRANCH   6  15
ATOM     15  C   UNL     1       0.027   0.223   8.943  0.00  0.00    +0.102 C 
ATOM     16  N   UNL     1       0.007   1.358   8.995  0.00  0.00    -0.191 NA
ENDBRANCH   6  15
ENDBRANCH   3   5
BRANCH   1  17
ATOM     17  C   UNL     1       0.041  -1.525   3.924  0.00  0.00    +0.173 C 
BRANCH  17  18
ATOM     18  S   UNL     1       0.053  -2.855   2.690  0.00  0.00    -0.077 S 
BRANCH  18  24
ATOM     19  C   UNL     1      -0.018   1.503   0.010  0.00  0.00    +0.066 C 
ATOM     20  C   UNL     1       0.002  -0.004   0.002  0.00  0.00    +0.043 A 
ATOM     21  C   UNL     1       0.006  -0.697  -1.196  0.00  0.00    +0.051 A 
ATOM     22  C   UNL     1       0.025  -2.093  -1.158  0.00  0.00    +0.076 A 
ATOM     23  N   UNL     1       0.039  -2.706   0.024  0.00  0.00    -0.222 NA
ATOM     24  C   UNL     1       0.035  -2.005   1.147  0.00  0.00    +0.189 A 
ATOM     25  N   UNL     1       0.022  -0.679   1.140  0.00  0.00    -0.227 NA
BRANCH  22  26
ATOM     26  C   UNL     1       0.029  -2.881  -2.414  0.00  0.00    +0.000 A 
ATOM     27  C   UNL     1       0.020  -2.231  -3.647  0.00  0.00    +0.010 A 
ATOM     28  C   UNL     1       0.025  -2.970  -4.813  0.00  0.00    +0.001 A 
ATOM     29  C   UNL     1       0.038  -4.352  -4.760  0.00  0.00    +0.000 A 
ATOM     30  C   UNL     1       0.047  -5.002  -3.539  0.00  0.00    +0.001 A 
ATOM     31  C   UNL     1       0.048  -4.274  -2.366  0.00  0.00    +0.010 A 
ENDBRANCH  22  26
ENDBRANCH  18  24
ENDBRANCH  17  18
ENDBRANCH   1  17
TORSDOF 6
