REMARK  Name = ZINC34665011
REMARK  7 active torsions:
REMARK  status: ('A' for Active; 'I' for Inactive)
REMARK    1  A    between atoms: C_1  and  C_2
REMARK    2  A    between atoms: C_2  and  C_3
REMARK    3  A    between atoms: C_3  and  N_4
REMARK    4  A    between atoms: N_4  and  C_5
REMARK    5  A    between atoms: C_5  and  C_6
REMARK    6  A    between atoms: C_11  and  O_12
REMARK    7  A    between atoms: O_12  and  C_13
REMARK                            x       y       z     vdW  Elec       q    Type
REMARK                         _______ _______ _______ _____ _____    ______ ____
ROOT
ATOM      1  C   UNL     1      -2.969  -3.966   0.054  0.00  0.00    -0.022 A 
ATOM      2  C   UNL     1      -3.476  -4.600  -1.064  0.00  0.00    +0.006 A 
ATOM      3  C   UNL     1      -3.859  -5.927  -0.993  0.00  0.00    +0.016 A 
ATOM      4  C   UNL     1      -3.735  -6.622   0.197  0.00  0.00    +0.021 A 
ATOM      5  C   UNL     1      -3.228  -5.992   1.317  0.00  0.00    +0.061 A 
ATOM      6  C   UNL     1      -2.839  -4.662   1.247  0.00  0.00    +0.131 A 
ATOM      7 BR   UNL     1      -4.260  -8.437   0.290  0.00  0.00    -0.050 Br
ENDROOT
BRANCH   1   8
ATOM      8  C   UNL     1      -2.553  -2.519  -0.024  0.00  0.00    -0.043 C 
BRANCH   8   9
ATOM      9  N   UNL     1      -1.094  -2.437  -0.179  0.00  0.00    +0.382 N 
ATOM     10  H   UNL     1      -0.819  -2.913  -1.025  0.00  0.00    -0.085 HD
ATOM     11  H   UNL     1      -0.647  -2.874   0.613  0.00  0.00    -0.085 HD
BRANCH   9  12
ATOM     12  C   UNL     1      -0.689  -1.028  -0.255  0.00  0.00    -0.082 C 
BRANCH  12  14
ATOM     13  C   UNL     1       1.253   0.526  -0.496  0.00  0.00    +0.002 C 
ATOM     14  C   UNL     1       0.831  -0.942  -0.416  0.00  0.00    -0.022 C 
ENDBRANCH  12  14
ENDBRANCH   9  12
ENDBRANCH   8   9
ENDBRANCH   1   8
BRANCH   6  15
ATOM     15  O   UNL     1      -2.336  -4.041   2.346  0.00  0.00    -0.456 OA
BRANCH  15  16
ATOM     16  C   UNL     1      -2.224  -4.763   3.491  0.00  0.00    +0.129 A 
ATOM     17  C   UNL     1      -1.058  -5.466   3.759  0.00  0.00    +0.047 A 
ATOM     18  C   UNL     1      -0.947  -6.199   4.925  0.00  0.00    +0.018 A 
ATOM     19  C   UNL     1      -1.996  -6.232   5.825  0.00  0.00    +0.014 A 
ATOM     20  C   UNL     1      -3.160  -5.532   5.560  0.00  0.00    +0.018 A 
ATOM     21  C   UNL     1      -3.273  -4.794   4.398  0.00  0.00    +0.047 A 
ATOM     22  I   UNL     1      -1.824  -7.345   7.592  0.00  0.00    -0.044 I 
ENDBRANCH  15  16
ENDBRANCH   6  15
TORSDOF 6
