REMARK  Name = ZINC12039841
REMARK  8 active torsions:
REMARK  status: ('A' for Active; 'I' for Inactive)
REMARK    1  A    between atoms: C_4  and  C_7
REMARK    2  A    between atoms: C_7  and  C_8
REMARK    3  A    between atoms: C_8  and  C_9
REMARK    4  A    between atoms: C_9  and  N_10
REMARK    5  A    between atoms: C_21  and  N_64
REMARK    6  A    between atoms: C_25  and  C_26
REMARK    7  A    between atoms: C_25  and  N_64
REMARK    8  A    between atoms: C_29  and  N_32
REMARK                            x       y       z     vdW  Elec       q    Type
REMARK                         _______ _______ _______ _____ _____    ______ ____
ROOT
ATOM      1  N   UNL     1      -0.949   3.663   0.033  0.00  0.00    -0.299 N 
ATOM      2  C   UNL     1       0.304   4.186   0.024  0.00  0.00    +0.203 A 
ATOM      3  N   UNL     1       1.358   3.414   0.009  0.00  0.00    -0.230 NA
ATOM      4  C   UNL     1       1.236   2.090   0.002  0.00  0.00    +0.116 A 
ATOM      5  C   UNL     1      -0.018   1.458   0.010  0.00  0.00    +0.076 A 
ATOM      6  C   UNL     1      -1.153   2.333   0.031  0.00  0.00    +0.262 A 
ATOM      7  O   UNL     1      -2.285   1.879   0.044  0.00  0.00    -0.267 OA
ATOM      8  C   UNL     1       0.002  -0.004   0.002  0.00  0.00    -0.023 A 
ATOM      9  C   UNL     1       1.213  -0.600  -0.013  0.00  0.00    -0.006 A 
ATOM     10  S   UNL     1       2.381   0.734  -0.017  0.00  0.00    -0.073 S 
ATOM     11  C   UNL     1       1.501  -2.070  -0.025  0.00  0.00    +0.027 C 
ATOM     12  C   UNL     1       0.209  -2.814  -0.389  0.00  0.00    -0.066 C 
ATOM     13  C   UNL     1      -0.936  -2.258   0.463  0.00  0.00    -0.011 C 
ATOM     14  C   UNL     1      -1.276  -0.838   0.012  0.00  0.00    +0.035 C 
ENDROOT
BRANCH  12  15
ATOM     15  N   UNL     1       0.370  -4.253  -0.109  0.00  0.00    +0.384 N 
ATOM     16  H   UNL     1      -0.551  -4.669   0.072  0.00  0.00    -0.085 HD
ATOM     17  H   UNL     1       0.967  -4.372   0.718  0.00  0.00    -0.085 HD
BRANCH  15  18
ATOM     18  C   UNL     1       0.993  -4.933  -1.261  0.00  0.00    -0.046 C 
BRANCH  18  19
ATOM     19  C   UNL     1       1.145  -6.399  -0.946  0.00  0.00    -0.064 A 
ATOM     20  C   UNL     1       2.302  -6.859  -0.346  0.00  0.00    +0.004 A 
ATOM     21  C   UNL     1       2.442  -8.202  -0.052  0.00  0.00    +0.028 A 
ATOM     22  C   UNL     1       1.424  -9.091  -0.370  0.00  0.00    +0.065 A 
ATOM     23  C   UNL     1       0.266  -8.626  -0.978  0.00  0.00    +0.028 A 
ATOM     24  C   UNL     1       0.129  -7.282  -1.264  0.00  0.00    +0.004 A 
BRANCH  22  25
ATOM     25  N   UNL     1       1.566 -10.454  -0.079  0.00  0.00    -0.240 N 
ATOM     26  C   UNL     1       2.639 -11.036   0.503  0.00  0.00    +0.114 A 
ATOM     27  C   UNL     1       2.381 -12.360   0.611  0.00  0.00    +0.041 A 
ATOM     28  C   UNL     1       1.113 -12.598   0.069  0.00  0.00    +0.135 A 
ATOM     29  N   UNL     1       0.624 -11.457  -0.344  0.00  0.00    -0.175 NA
ENDBRANCH  22  25
ENDBRANCH  18  19
ENDBRANCH  15  18
ENDBRANCH  12  15
BRANCH   1  30
ATOM     30  C   UNL     1      -2.103   4.566   0.050  0.00  0.00    +0.126 C 
BRANCH  30  31
ATOM     31  C   UNL     1      -2.518   4.889  -1.387  0.00  0.00    +0.026 C 
BRANCH  31  32
ATOM     32  C   UNL     1      -3.723   5.832  -1.369  0.00  0.00    +0.037 C 
BRANCH  32  36
ATOM     33  C   UNL     1      -4.883   6.734  -5.380  0.00  0.00    +0.000 A 
ATOM     34  C   UNL     1      -5.434   5.645  -4.730  0.00  0.00    +0.000 A 
ATOM     35  C   UNL     1      -5.058   5.353  -3.432  0.00  0.00    +0.003 A 
ATOM     36  C   UNL     1      -4.132   6.150  -2.784  0.00  0.00    -0.047 A 
ATOM     37  C   UNL     1      -3.586   7.242  -3.433  0.00  0.00    +0.003 A 
ATOM     38  C   UNL     1      -3.958   7.531  -4.733  0.00  0.00    +0.000 A 
ENDBRANCH  32  36
ENDBRANCH  31  32
ENDBRANCH  30  31
ENDBRANCH   1  30
TORSDOF 8
