REMARK  Name = ZINC03841460
REMARK  6 active torsions:
REMARK  status: ('A' for Active; 'I' for Inactive)
REMARK    1  A    between atoms: C_1  and  N_2
REMARK    2  A    between atoms: C_4  and  C_11
REMARK    3  A    between atoms: C_11  and  N_63
REMARK    4  A    between atoms: C_22  and  N_27
REMARK    5  A    between atoms: N_27  and  S_28
REMARK    6  A    between atoms: S_28  and  C_31
REMARK                            x       y       z     vdW  Elec       q    Type
REMARK                         _______ _______ _______ _____ _____    ______ ____
ROOT
ATOM      1  C   UNL     1      -0.430   6.816   0.078  0.00  0.00    -0.073 C 
ATOM      2  C   UNL     1      -0.181   6.364  -1.354  0.00  0.00    -0.007 C 
ATOM      3  C   UNL     1      -1.418   5.667  -1.926  0.00  0.00    +0.011 C 
ATOM      4  C   UNL     1      -1.761   4.496  -0.998  0.00  0.00    +0.020 C 
ATOM      5  C   UNL     1      -2.079   5.069   0.393  0.00  0.00    -0.069 C 
ATOM      6  C   UNL     1      -0.549   3.603  -0.856  0.00  0.00    +0.023 A 
ATOM      7  C   UNL     1      -0.767   2.293  -0.574  0.00  0.00    +0.023 A 
ATOM      8  C   UNL     1       0.305   1.429  -0.320  0.00  0.00    +0.031 A 
ATOM      9  C   UNL     1       1.578   1.928  -0.362  0.00  0.00    +0.112 A 
ATOM     10  C   UNL     1       1.770   3.287  -0.678  0.00  0.00    +0.274 A 
ATOM     11  O   UNL     1       2.899   3.752  -0.685  0.00  0.00    -0.266 OA
ATOM     12  N   UNL     1       0.714   4.083  -0.975  0.00  0.00    -0.310 N 
ATOM     13  C   UNL     1       1.016   5.433  -1.453  0.00  0.00    +0.127 C 
ATOM     14  N   UNL     1      -0.833   5.672   0.920  0.00  0.00    +0.383 N 
ATOM     15  H   UNL     1      -0.088   4.966   0.903  0.00  0.00    -0.081 HD
ENDROOT
BRANCH   9  16
ATOM     16  N   UNL     1       2.675   1.099  -0.094  0.00  0.00    -0.211 N 
ATOM     17  H   UNL     1       3.568   1.474  -0.056  0.00  0.00    +0.174 HD
BRANCH  16  18
ATOM     18  S   UNL     1       2.446  -0.522   0.156  0.00  0.00    +0.072 S 
ATOM     19  O   UNL     1       3.734  -1.088   0.355  0.00  0.00    -0.150 OA
ATOM     20  O   UNL     1       1.404  -0.641   1.115  0.00  0.00    -0.150 OA
BRANCH  18  21
ATOM     21  C   UNL     1       1.825  -1.199  -1.348  0.00  0.00    +0.109 A 
ATOM     22  C   UNL     1       0.464  -1.370  -1.518  0.00  0.00    +0.030 A 
ATOM     23  C   UNL     1      -0.023  -1.896  -2.700  0.00  0.00    +0.022 A 
ATOM     24  C   UNL     1       0.852  -2.261  -3.708  0.00  0.00    +0.041 A 
ATOM     25  C   UNL     1       2.214  -2.095  -3.534  0.00  0.00    +0.022 A 
ATOM     26  C   UNL     1       2.700  -1.564  -2.354  0.00  0.00    +0.030 A 
ATOM     27 CL   UNL     1       0.240  -2.928  -5.189  0.00  0.00    -0.084 Cl
ENDBRANCH  18  21
ENDBRANCH  16  18
ENDBRANCH   9  16
BRANCH  14  28
ATOM     28  C   UNL     1      -1.038   6.119   2.313  0.00  0.00    -0.041 C 
BRANCH  28  32
ATOM     29  C   UNL     1      -4.549   3.375   4.639  0.00  0.00    +0.149 C 
ATOM     30  N   UNL     1      -3.242   3.791   4.124  0.00  0.00    -0.349 N 
ATOM     31  C   UNL     1      -3.005   4.935   3.412  0.00  0.00    +0.088 A 
ATOM     32  C   UNL     1      -1.704   5.014   3.092  0.00  0.00    -0.039 A 
ATOM     33  C   UNL     1      -1.055   3.820   3.640  0.00  0.00    +0.001 A 
ATOM     34  C   UNL     1      -2.069   3.088   4.284  0.00  0.00    +0.049 A 
ATOM     35  C   UNL     1      -1.750   1.888   4.910  0.00  0.00    +0.026 A 
ATOM     36  C   UNL     1      -0.448   1.434   4.898  0.00  0.00    +0.002 A 
ATOM     37  C   UNL     1       0.549   2.164   4.266  0.00  0.00    +0.001 A 
ATOM     38  C   UNL     1       0.258   3.345   3.645  0.00  0.00    +0.010 A 
ENDBRANCH  28  32
ENDBRANCH  14  28
TORSDOF 5
