REMARK  Name = ZINC10232950
REMARK  8 active torsions:
REMARK  status: ('A' for Active; 'I' for Inactive)
REMARK    1  A    between atoms: C_1  and  C_2
REMARK    2  A    between atoms: C_2  and  C_3
REMARK    3  A    between atoms: C_2  and  C_4
REMARK    4  A    between atoms: C_7  and  C_10
REMARK    5  A    between atoms: N_14  and  C_18
REMARK    6  A    between atoms: C_18  and  C_19
REMARK    7  A    between atoms: C_19  and  C_20
REMARK    8  A    between atoms: N_22  and  C_23
REMARK                            x       y       z     vdW  Elec       q    Type
REMARK                         _______ _______ _______ _____ _____    ______ ____
ROOT
ATOM      1  C   UNL     1       4.825   5.929  -2.101  0.00  0.00    +0.028 C 
ATOM      2  C   UNL     1       3.871   5.736  -1.156  0.00  0.00    +0.077 C 
ATOM      3  C   UNL     1       2.549   5.084  -1.271  0.00  0.00    +0.258 C 
ATOM      4  O   UNL     1       2.156   4.615  -2.324  0.00  0.00    -0.269 OA
ATOM      5  N   UNL     1       1.815   5.037  -0.172  0.00  0.00    -0.255 N 
ATOM      6  C   UNL     1       2.252   5.562   0.990  0.00  0.00    +0.121 C 
ATOM      7  S   UNL     1       1.453   5.606   2.504  0.00  0.00    -0.027 S 
ATOM      8  S   UNL     1       3.866   6.201   0.570  0.00  0.00    -0.061 S 
ENDROOT
BRANCH   1  12
ATOM      9  C   UNL     1       8.220   8.315  -1.228  0.00  0.00    -0.045 A 
ATOM     10  C   UNL     1       8.171   7.594  -2.409  0.00  0.00    +0.004 A 
ATOM     11  C   UNL     1       7.071   6.816  -2.700  0.00  0.00    +0.008 A 
ATOM     12  C   UNL     1       6.002   6.756  -1.798  0.00  0.00    -0.024 A 
ATOM     13  C   UNL     1       6.058   7.492  -0.609  0.00  0.00    +0.008 A 
ATOM     14  C   UNL     1       7.168   8.261  -0.331  0.00  0.00    +0.004 A 
BRANCH   9  16
ATOM     15  C   UNL     1       8.998  10.622  -0.760  0.00  0.00    +0.012 C 
ATOM     16  C   UNL     1       9.427   9.162  -0.917  0.00  0.00    +0.013 C 
ATOM     17  C   UNL     1      10.070   8.676   0.383  0.00  0.00    +0.012 C 
ENDBRANCH   9  16
ENDBRANCH   1  12
BRANCH   5  18
ATOM     18  C   UNL     1       0.495   4.403  -0.220  0.00  0.00    +0.124 C 
BRANCH  18  19
ATOM     19  C   UNL     1       0.631   2.915   0.106  0.00  0.00    +0.115 C 
BRANCH  19  20
ATOM     20  C   UNL     1      -0.727   2.263   0.057  0.00  0.00    +0.215 C 
ATOM     21  O   UNL     1      -1.706   2.924  -0.217  0.00  0.00    -0.276 OA
ATOM     22  N   UNL     1      -0.852   0.946   0.313  0.00  0.00    -0.307 N 
ATOM     23  H   UNL     1      -0.068   0.417   0.528  0.00  0.00    +0.149 HD
BRANCH  22  24
ATOM     24  C   UNL     1      -2.172   0.313   0.265  0.00  0.00    +0.119 C 
ATOM     25  C   UNL     1      -2.005  -1.194  -0.068  0.00  0.00    +0.197 C 
ATOM     26  S   UNL     1      -3.367  -1.865   0.974  0.00  0.00    -0.008 S 
ATOM     27  O   UNL     1      -2.921  -2.971   1.746  0.00  0.00    -0.170 OA
ATOM     28  O   UNL     1      -4.591  -1.908   0.253  0.00  0.00    -0.170 OA
ATOM     29  C   UNL     1      -3.521  -0.503   2.115  0.00  0.00    +0.132 C 
ATOM     30  C   UNL     1      -2.850   0.487   1.586  0.00  0.00    +0.015 C 
ENDBRANCH  22  24
ENDBRANCH  19  20
ENDBRANCH  18  19
ENDBRANCH   5  18
TORSDOF 6
