REMARK  Name = ZINC15709072
REMARK  6 active torsions:
REMARK  status: ('A' for Active; 'I' for Inactive)
REMARK    1  A    between atoms: C_1  and  C_2
REMARK    2  A    between atoms: C_11  and  C_32
REMARK    3  A    between atoms: C_14  and  O_31
REMARK    4  A    between atoms: C_16  and  C_20
REMARK    5  A    between atoms: C_20  and  C_22
REMARK    6  A    between atoms: C_20  and  C_23
REMARK                            x       y       z     vdW  Elec       q    Type
REMARK                         _______ _______ _______ _____ _____    ______ ____
ROOT
ATOM      1  C   UNL     1      -4.980   1.363  -1.335  0.00  0.00    +0.014 C 
ATOM      2  C   UNL     1      -4.161   0.773  -0.185  0.00  0.00    +0.042 C 
ATOM      3  C   UNL     1      -4.969   0.845   1.101  0.00  0.00    +0.057 A 
ATOM      4  C   UNL     1      -4.367   1.202   2.264  0.00  0.00    +0.015 A 
ATOM      5  S   UNL     1      -5.700   1.131   3.431  0.00  0.00    -0.057 S 
ATOM      6  C   UNL     1      -6.937   0.644   2.311  0.00  0.00    +0.156 A 
ATOM      7  N   UNL     1      -6.271   0.574   1.177  0.00  0.00    -0.230 NA
ATOM      8  N   UNL     1      -8.279   0.394   2.550  0.00  0.00    -0.338 N 
ATOM      9  C   UNL     1      -2.938   1.558   2.477  0.00  0.00    +0.051 C 
ATOM     10  C   UNL     1      -2.119   1.135   1.243  0.00  0.00    -0.022 C 
ATOM     11  C   UNL     1      -2.861   1.572  -0.022  0.00  0.00    +0.033 C 
ATOM     12  C   UNL     1      -1.998   1.304  -1.259  0.00  0.00    +0.123 C 
ATOM     13  C   UNL     1      -0.660   2.031  -1.142  0.00  0.00    +0.029 C 
ATOM     14  C   UNL     1       0.078   1.511   0.095  0.00  0.00    +0.007 C 
ATOM     15  C   UNL     1      -0.758   1.821   1.335  0.00  0.00    +0.008 C 
ATOM     16  C   UNL     1      -1.937  -0.384   1.243  0.00  0.00    +0.012 C 
ATOM     17  H   UNL     1      -8.637   0.486   3.447  0.00  0.00    +0.144 HD
ATOM     18  H   UNL     1      -8.860   0.127   1.821  0.00  0.00    +0.144 HD
ENDROOT
BRANCH  13  19
ATOM     19  C   UNL     1       0.180   1.763  -2.392  0.00  0.00    +0.078 C 
ATOM     20  C   UNL     1       0.517   0.273  -2.469  0.00  0.00    +0.017 C 
BRANCH  19  21
ATOM     21  C   UNL     1       1.456   2.563  -2.321  0.00  0.00    +0.219 C 
ATOM     22  O   UNL     1       2.471   2.050  -1.900  0.00  0.00    -0.275 OA
ATOM     23  N   UNL     1       1.468   3.849  -2.725  0.00  0.00    -0.297 N 
ATOM     24  C   UNL     1       0.281   4.459  -3.344  0.00  0.00    +0.136 C 
ATOM     25  C   UNL     1      -0.012   5.782  -2.619  0.00  0.00    +0.179 C 
ATOM     26  O   UNL     1       1.175   6.579  -2.600  0.00  0.00    -0.377 OA
ATOM     27  C   UNL     1       2.263   5.993  -1.881  0.00  0.00    +0.179 C 
ATOM     28  C   UNL     1       2.670   4.682  -2.564  0.00  0.00    +0.136 C 
ENDBRANCH  19  21
ENDBRANCH  13  19
BRANCH  12  29
ATOM     29  O   UNL     1      -2.686   1.763  -2.424  0.00  0.00    -0.391 OA
ATOM     30  H   UNL     1      -2.245   1.539  -3.255  0.00  0.00    +0.210 HD
ENDBRANCH  12  29
TORSDOF 3
