REMARK  Name = ZINC35031505
REMARK  13 active torsions:
REMARK  status: ('A' for Active; 'I' for Inactive)
REMARK    1  A    between atoms: C_1  and  C_2
REMARK    2  A    between atoms: C_6  and  C_36
REMARK    3  A    between atoms: C_8  and  O_11
REMARK    4  A    between atoms: O_11  and  C_12
REMARK    5  A    between atoms: C_12  and  C_13
REMARK    6  A    between atoms: C_13  and  C_15
REMARK    7  A    between atoms: C_13  and  O_35
REMARK    8  A    between atoms: C_15  and  N_16
REMARK    9  A    between atoms: N_19  and  C_22
REMARK   10  A    between atoms: C_22  and  C_23
REMARK   11  A    between atoms: C_22  and  C_29
REMARK   12  A    between atoms: C_36  and  C_37
REMARK   13  A    between atoms: C_36  and  C_38
REMARK                            x       y       z     vdW  Elec       q    Type
REMARK                         _______ _______ _______ _____ _____    ______ ____
ROOT
ATOM      1  N   UNL     1      -4.444  -4.118   3.733  0.00  0.00    -0.303 NA
ATOM      2  C   UNL     1      -5.136  -4.038   5.027  0.00  0.00    +0.066 C 
ATOM      3  C   UNL     1      -6.579  -4.518   4.861  0.00  0.00    -0.062 C 
ATOM      4  N   UNL     1      -6.582  -5.902   4.370  0.00  0.00    +0.389 N 
ATOM      5  C   UNL     1      -5.910  -5.961   3.065  0.00  0.00    -0.062 C 
ATOM      6  C   UNL     1      -4.461  -5.494   3.216  0.00  0.00    +0.066 C 
ATOM      7  H   UNL     1      -6.095  -6.493   5.026  0.00  0.00    -0.080 HD
ENDROOT
BRANCH   1   8
ATOM      8  C   UNL     1      -3.069  -3.611   3.838  0.00  0.00    +0.117 C 
BRANCH   8   9
ATOM      9  C   UNL     1      -2.550  -3.251   2.445  0.00  0.00    +0.154 C 
BRANCH   9  10
ATOM     10  O   UNL     1      -3.378  -2.234   1.877  0.00  0.00    -0.388 OA
ATOM     11  H   UNL     1      -3.406  -1.416   2.392  0.00  0.00    +0.210 HD
ENDBRANCH   9  10
BRANCH   9  12
ATOM     12  C   UNL     1      -1.113  -2.736   2.553  0.00  0.00    +0.192 C 
BRANCH  12  13
ATOM     13  O   UNL     1      -0.589  -2.510   1.244  0.00  0.00    -0.374 OA
BRANCH  13  19
ATOM     14  C   UNL     1      -0.007   1.568   0.077  0.00  0.00    +0.007 C 
ATOM     15  C   UNL     1       0.002   0.038   0.042  0.00  0.00    -0.012 C 
ATOM     16  C   UNL     1       0.705  -0.438  -1.230  0.00  0.00    +0.004 C 
ATOM     17  C   UNL     1       0.714  -1.968  -1.265  0.00  0.00    +0.006 C 
ATOM     18  C   UNL     1       1.459  -2.502  -0.040  0.00  0.00    +0.020 C 
ATOM     19  C   UNL     1       0.756  -2.025   1.232  0.00  0.00    +0.122 C 
ATOM     20  C   UNL     1       0.747  -0.495   1.267  0.00  0.00    +0.035 C 
BRANCH  18  21
ATOM     21  C   UNL     1       1.468  -4.032  -0.075  0.00  0.00    -0.012 C 
ATOM     22  C   UNL     1       2.171  -4.508  -1.348  0.00  0.00    +0.007 C 
ATOM     23  C   UNL     1       2.213  -4.566   1.150  0.00  0.00    +0.007 C 
ENDBRANCH  18  21
ENDBRANCH  13  19
ENDBRANCH  12  13
ENDBRANCH   9  12
ENDBRANCH   8   9
ENDBRANCH   1   8
BRANCH   4  24
ATOM     24  C   UNL     1      -7.968  -6.368   4.228  0.00  0.00    -0.007 C 
BRANCH  24  25
ATOM     25  C   UNL     1      -7.971  -7.788   3.724  0.00  0.00    -0.057 A 
ATOM     26  C   UNL     1      -7.047  -8.695   4.207  0.00  0.00    +0.002 A 
ATOM     27  C   UNL     1      -7.050  -9.998   3.744  0.00  0.00    +0.000 A 
ATOM     28  C   UNL     1      -7.977 -10.393   2.799  0.00  0.00    +0.000 A 
ATOM     29  C   UNL     1      -8.902  -9.486   2.316  0.00  0.00    +0.000 A 
ATOM     30  C   UNL     1      -8.902  -8.185   2.782  0.00  0.00    +0.002 A 
ENDBRANCH  24  25
BRANCH  24  31
ATOM     31  C   UNL     1      -8.658  -6.309   5.567  0.00  0.00    -0.057 A 
ATOM     32  C   UNL     1      -7.976  -6.675   6.712  0.00  0.00    +0.002 A 
ATOM     33  C   UNL     1      -8.608  -6.621   7.940  0.00  0.00    +0.000 A 
ATOM     34  C   UNL     1      -9.922  -6.200   8.023  0.00  0.00    +0.000 A 
ATOM     35  C   UNL     1     -10.604  -5.833   6.877  0.00  0.00    +0.000 A 
ATOM     36  C   UNL     1      -9.970  -5.883   5.650  0.00  0.00    +0.002 A 
ENDBRANCH  24  31
ENDBRANCH   4  24
TORSDOF 10
