REMARK  Name = ZINC35671601
REMARK  12 active torsions:
REMARK  status: ('A' for Active; 'I' for Inactive)
REMARK    1  A    between atoms: C_1  and  C_2
REMARK    2  A    between atoms: C_2  and  C_3
REMARK    3  A    between atoms: C_2  and  C_4
REMARK    4  A    between atoms: C_7  and  C_10
REMARK    5  A    between atoms: C_10  and  C_12
REMARK    6  A    between atoms: C_10  and  N_30
REMARK    7  A    between atoms: C_12  and  N_13
REMARK    8  A    between atoms: N_13  and  C_14
REMARK    9  A    between atoms: C_15  and  C_28
REMARK   10  A    between atoms: C_17  and  C_19
REMARK   11  A    between atoms: C_19  and  O_20
REMARK   12  A    between atoms: O_20  and  C_21
REMARK                            x       y       z     vdW  Elec       q    Type
REMARK                         _______ _______ _______ _____ _____    ______ ____
ROOT
ATOM      1  C   UNL     1      -6.144  -1.102  -0.936  0.00  0.00    +0.094 C 
ENDROOT
BRANCH   1   2
ATOM      2  N   UNL     1      -6.333   0.222  -0.338  0.00  0.00    -0.314 N 
ATOM      3  H   UNL     1      -5.953   0.419   0.533  0.00  0.00    +0.149 HD
BRANCH   2   4
ATOM      4  C   UNL     1      -7.050   1.188  -1.012  0.00  0.00    +0.225 A 
ATOM      5  C   UNL     1      -7.308   2.478  -0.582  0.00  0.00    +0.201 A 
ATOM      6  N   UNL     1      -8.048   3.077  -1.558  0.00  0.00    -0.198 NA
ATOM      7  C   UNL     1      -8.234   2.225  -2.519  0.00  0.00    +0.237 A 
ATOM      8  O   UNL     1      -7.632   1.062  -2.219  0.00  0.00    -0.421 OA
BRANCH   5   9
ATOM      9  C   UNL     1      -6.882   3.070   0.650  0.00  0.00    +0.124 C 
ATOM     10  N   UNL     1      -6.543   3.539   1.628  0.00  0.00    -0.189 NA
ENDBRANCH   5   9
BRANCH   7  11
ATOM     11  C   UNL     1      -9.005   2.500  -3.785  0.00  0.00    +0.324 C 
BRANCH  11  12
ATOM     12  O   UNL     1      -8.117   3.011  -4.781  0.00  0.00    -0.483 OA
BRANCH  12  13
ATOM     13  C   UNL     1      -8.656   3.313  -5.992  0.00  0.00    +0.121 A 
ATOM     14  C   UNL     1     -10.013   3.127  -6.214  0.00  0.00    +0.047 A 
ATOM     15  C   UNL     1     -10.559   3.435  -7.445  0.00  0.00    +0.023 A 
ATOM     16  C   UNL     1      -9.754   3.928  -8.456  0.00  0.00    +0.041 A 
ATOM     17  C   UNL     1      -8.400   4.114  -8.237  0.00  0.00    +0.023 A 
ATOM     18  C   UNL     1      -7.851   3.814  -7.005  0.00  0.00    +0.047 A 
ATOM     19 CL   UNL     1     -10.442   4.314 -10.002  0.00  0.00    -0.084 Cl
ENDBRANCH  12  13
ENDBRANCH  11  12
ENDBRANCH   7  11
ENDBRANCH   2   4
ENDBRANCH   1   2
BRANCH   1  20
ATOM     20  C   UNL     1      -5.210  -1.933  -0.054  0.00  0.00    -0.020 C 
BRANCH  20  21
ATOM     21  N   UNL     1      -5.084  -3.286  -0.612  0.00  0.00    +0.385 N 
ATOM     22  C   UNL     1      -6.399  -3.937  -0.614  0.00  0.00    -0.078 C 
ATOM     23  C   UNL     1      -6.289  -5.316  -1.268  0.00  0.00    -0.019 C 
ATOM     24  C   UNL     1      -5.295  -6.172  -0.478  0.00  0.00    -0.004 C 
ATOM     25  C   UNL     1      -3.947  -5.447  -0.419  0.00  0.00    -0.019 C 
ATOM     26  C   UNL     1      -4.144  -4.064   0.204  0.00  0.00    -0.078 C 
ATOM     27  H   UNL     1      -4.739  -3.227  -1.558  0.00  0.00    -0.081 HD
ENDBRANCH  20  21
BRANCH  20  31
ATOM     28  C   UNL     1      -1.361  -0.086   0.082  0.00  0.00    -0.045 A 
ATOM     29  C   UNL     1      -2.249   0.090   1.127  0.00  0.00    +0.004 A 
ATOM     30  C   UNL     1      -3.495  -0.507   1.082  0.00  0.00    +0.002 A 
ATOM     31  C   UNL     1      -3.852  -1.280  -0.006  0.00  0.00    -0.059 A 
ATOM     32  C   UNL     1      -2.964  -1.456  -1.051  0.00  0.00    +0.002 A 
ATOM     33  C   UNL     1      -1.720  -0.855  -1.009  0.00  0.00    +0.004 A 
BRANCH  28  35
ATOM     34  C   UNL     1      -0.168   2.083   0.230  0.00  0.00    +0.012 C 
ATOM     35  C   UNL     1      -0.002   0.565   0.131  0.00  0.00    +0.013 C 
ATOM     36  C   UNL     1       0.765   0.055   1.352  0.00  0.00    +0.012 C 
ENDBRANCH  28  35
ENDBRANCH  20  31
ENDBRANCH   1  20
TORSDOF 10
