REMARK  Name = ZINC35565226
REMARK  8 active torsions:
REMARK  status: ('A' for Active; 'I' for Inactive)
REMARK    1  A    between atoms: C_1  and  C_2
REMARK    2  A    between atoms: C_5  and  C_8
REMARK    3  A    between atoms: C_17  and  C_30
REMARK    4  A    between atoms: C_20  and  C_23
REMARK    5  A    between atoms: C_26  and  C_29
REMARK    6  A    between atoms: C_30  and  C_32
REMARK    7  A    between atoms: C_30  and  O_34
REMARK    8  A    between atoms: C_32  and  O_33
REMARK                            x       y       z     vdW  Elec       q    Type
REMARK                         _______ _______ _______ _____ _____    ______ ____
ROOT
ATOM      1  C   UNL     1       0.540  -4.009   1.031  0.00  0.00    +0.282 C 
ATOM      2  O   UNL     1      -0.480  -4.421   0.118  0.00  0.00    -0.345 OA
ATOM      3  C   UNL     1      -0.566  -5.840  -0.046  0.00  0.00    +0.197 C 
ATOM      4  C   UNL     1      -0.825  -6.486   1.318  0.00  0.00    +0.179 C 
ATOM      5  C   UNL     1       0.255  -6.021   2.303  0.00  0.00    +0.184 C 
ATOM      6  O   UNL     1       0.294  -4.592   2.313  0.00  0.00    -0.339 OA
ATOM      7  C   UNL     1      -0.097  -6.529   3.704  0.00  0.00    +0.184 C 
ATOM      8  O   UNL     1      -1.424  -6.108   4.033  0.00  0.00    -0.339 OA
ATOM      9  C   UNL     1      -2.416  -6.561   3.108  0.00  0.00    +0.283 C 
ATOM     10  O   UNL     1      -2.112  -6.086   1.794  0.00  0.00    -0.339 OA
ENDROOT
BRANCH   1  15
ATOM     11  C   UNL     1       0.500   1.751   1.492  0.00  0.00    +0.044 C 
ATOM     12  C   UNL     1       0.511   0.249   1.372  0.00  0.00    -0.050 A 
ATOM     13  C   UNL     1       0.737  -0.345   0.144  0.00  0.00    +0.004 A 
ATOM     14  C   UNL     1       0.747  -1.723   0.034  0.00  0.00    +0.009 A 
ATOM     15  C   UNL     1       0.531  -2.507   1.152  0.00  0.00    +0.008 A 
ATOM     16  C   UNL     1       0.305  -1.914   2.380  0.00  0.00    +0.009 A 
ATOM     17  C   UNL     1       0.299  -0.536   2.490  0.00  0.00    +0.004 A 
ENDBRANCH   1  15
BRANCH   9  18
ATOM     18  C   UNL     1      -2.436  -8.068   3.092  0.00  0.00    +0.008 A 
ATOM     19  C   UNL     1      -2.484  -8.772   4.280  0.00  0.00    +0.009 A 
ATOM     20  C   UNL     1      -2.502 -10.154   4.265  0.00  0.00    +0.004 A 
ATOM     21  C   UNL     1      -2.473 -10.832   3.061  0.00  0.00    -0.050 A 
ATOM     22  C   UNL     1      -2.425 -10.129   1.872  0.00  0.00    +0.004 A 
ATOM     23  C   UNL     1      -2.411  -8.746   1.887  0.00  0.00    +0.009 A 
ATOM     24  C   UNL     1      -2.491 -12.339   3.044  0.00  0.00    +0.044 C 
ENDBRANCH   9  18
BRANCH   7  25
ATOM     25  C   UNL     1      -0.021  -8.057   3.729  0.00  0.00    +0.171 C 
BRANCH  25  26
ATOM     26  O   UNL     1      -0.391  -8.530   5.026  0.00  0.00    -0.387 OA
ATOM     27  H   UNL     1       0.219  -8.267   5.729  0.00  0.00    +0.210 HD
ENDBRANCH  25  26
BRANCH  25  28
ATOM     28  C   UNL     1       1.407  -8.502   3.412  0.00  0.00    +0.189 C 
BRANCH  28  29
ATOM     29  O   UNL     1       1.453  -9.927   3.322  0.00  0.00    -0.392 OA
ATOM     30  H   UNL     1       2.343 -10.285   3.199  0.00  0.00    +0.210 HD
ENDBRANCH  28  29
ENDBRANCH  25  28
ENDBRANCH   7  25
TORSDOF 6
