REMARK  Name = ZINC31073699
REMARK  12 active torsions:
REMARK  status: ('A' for Active; 'I' for Inactive)
REMARK    1  A    between atoms: C_1  and  C_2
REMARK    2  A    between atoms: C_2  and  C_27
REMARK    3  A    between atoms: C_3  and  C_4
REMARK    4  A    between atoms: C_6  and  C_11
REMARK    5  A    between atoms: C_8  and  C_9
REMARK    6  A    between atoms: C_8  and  C_10
REMARK    7  A    between atoms: N_13  and  C_14
REMARK    8  A    between atoms: C_17  and  C_20
REMARK    9  A    between atoms: N_22  and  C_23
REMARK   10  A    between atoms: C_23  and  C_24
REMARK   11  A    between atoms: C_23  and  C_25
REMARK   12  A    between atoms: C_23  and  C_26
REMARK                            x       y       z     vdW  Elec       q    Type
REMARK                         _______ _______ _______ _____ _____    ______ ____
ROOT
ATOM      1  C   UNL     1      -6.016   1.943   2.087  0.00  0.00    +0.033 A 
ATOM      2  C   UNL     1      -5.998   0.825   2.914  0.00  0.00    +0.024 A 
ATOM      3  C   UNL     1      -7.109   0.499   3.659  0.00  0.00    +0.015 A 
ATOM      4  C   UNL     1      -8.260   1.288   3.575  0.00  0.00    +0.037 A 
ATOM      5  C   UNL     1      -8.276   2.408   2.739  0.00  0.00    +0.015 A 
ATOM      6  C   UNL     1      -7.160   2.731   2.001  0.00  0.00    +0.024 A 
ENDROOT
BRANCH   1   9
ATOM      7  C   UNL     1      -3.656   2.062   1.846  0.00  0.00    +0.221 C 
ATOM      8  O   UNL     1      -3.529   1.508   2.917  0.00  0.00    -0.275 OA
ATOM      9  N   UNL     1      -4.887   2.273   1.338  0.00  0.00    -0.285 N 
ATOM     10  H   UNL     1      -5.000   2.705   0.333  0.00  0.00    +0.155 HD
BRANCH   7  12
ATOM     11  C   UNL     1      -1.569   3.602   1.716  0.00  0.00    +0.030 C 
ATOM     12  C   UNL     1      -2.438   2.513   1.082  0.00  0.00    +0.089 C 
ATOM     13  C   UNL     1      -1.068   2.157   1.662  0.00  0.00    -0.016 C 
ATOM     14  C   UNL     1       0.056   1.836   0.674  0.00  0.00    +0.012 C 
ATOM     15  C   UNL     1      -1.039   1.370   2.973  0.00  0.00    +0.012 C 
BRANCH  11  18
ATOM     16  C   UNL     1       0.067   5.643   2.769  0.00  0.00    +0.038 C 
ATOM     17  C   UNL     1      -0.207   5.582   1.288  0.00  0.00    -0.079 C 
ATOM     18  C   UNL     1      -0.918   4.600   0.794  0.00  0.00    -0.023 C 
ATOM     19  C   UNL     1       0.337   6.652   0.377  0.00  0.00    +0.038 C 
ENDBRANCH  11  18
ENDBRANCH   7  12
ENDBRANCH   1   9
BRANCH   4  20
ATOM     20  C   UNL     1      -9.455   0.940   4.368  0.00  0.00    +0.244 C 
ATOM     21  O   UNL     1     -10.455   1.627   4.294  0.00  0.00    -0.270 OA
ATOM     22  N   UNL     1      -9.438  -0.141   5.173  0.00  0.00    -0.307 N 
ATOM     23  H   UNL     1      -8.533  -0.763   5.240  0.00  0.00    +0.150 HD
BRANCH  22  24
ATOM     24  C   UNL     1     -10.624  -0.487   5.960  0.00  0.00    +0.026 C 
ATOM     25  C   UNL     1     -11.802  -0.746   5.019  0.00  0.00    +0.031 C 
ATOM     26  C   UNL     1     -10.341  -1.746   6.782  0.00  0.00    +0.031 C 
ATOM     27  C   UNL     1     -10.967   0.670   6.901  0.00  0.00    +0.031 C 
ENDBRANCH  22  24
ENDBRANCH   4  20
TORSDOF 5
