REMARK  Name = ZINC61907925
REMARK  2 active torsions:
REMARK  status: ('A' for Active; 'I' for Inactive)
REMARK    1  A    between atoms: C_3  and  C_6
REMARK    2  A    between atoms: C_17  and  C_19
REMARK                            x       y       z     vdW  Elec       q    Type
REMARK                         _______ _______ _______ _____ _____    ______ ____
ROOT
ATOM      1  C   UNL     1       4.017   2.083  -0.251  0.00  0.00    +0.160 C 
ATOM      2  C   UNL     1       4.572   1.340  -1.480  0.00  0.00    +0.113 C 
ATOM      3  C   UNL     1       5.658   0.317  -1.189  0.00  0.00    +0.065 C 
ATOM      4  C   UNL     1       5.976  -0.632  -2.262  0.00  0.00    +0.040 A 
ATOM      5  C   UNL     1       7.157  -1.373  -2.255  0.00  0.00    +0.033 A 
ATOM      6  C   UNL     1       7.410  -2.261  -3.281  0.00  0.00    +0.042 A 
ATOM      7  C   UNL     1       6.495  -2.414  -4.311  0.00  0.00    +0.023 A 
ATOM      8  C   UNL     1       5.324  -1.681  -4.329  0.00  0.00    +0.048 A 
ATOM      9  C   UNL     1       5.050  -0.781  -3.311  0.00  0.00    +0.130 A 
ATOM     10  O   UNL     1       3.909  -0.051  -3.337  0.00  0.00    -0.483 OA
ATOM     11  C   UNL     1       3.436   0.552  -2.131  0.00  0.00    +0.215 C 
ATOM     12 CL   UNL     1       8.878  -3.188  -3.282  0.00  0.00    -0.084 Cl
ATOM     13  N   UNL     1       6.205   0.273  -0.020  0.00  0.00    -0.215 NA
ATOM     14  C   UNL     1       5.814   1.019   1.043  0.00  0.00    +0.249 A 
ATOM     15  N   UNL     1       4.764   1.873   0.999  0.00  0.00    -0.221 N 
ATOM     16  N   UNL     1       4.633   2.420   2.281  0.00  0.00    -0.156 NA
ATOM     17  C   UNL     1       5.595   1.913   3.009  0.00  0.00    +0.247 A 
ATOM     18  N   UNL     1       6.309   1.081   2.274  0.00  0.00    -0.198 NA
ENDROOT
BRANCH  11  19
ATOM     19  C   UNL     1       2.294   1.483  -2.448  0.00  0.00    -0.007 A 
ATOM     20  C   UNL     1       2.537   2.828  -2.655  0.00  0.00    +0.009 A 
ATOM     21  C   UNL     1       1.490   3.683  -2.946  0.00  0.00    +0.020 A 
ATOM     22  C   UNL     1       0.200   3.192  -3.030  0.00  0.00    +0.041 A 
ATOM     23  C   UNL     1      -0.043   1.845  -2.823  0.00  0.00    +0.020 A 
ATOM     24  C   UNL     1       1.005   0.991  -2.538  0.00  0.00    +0.009 A 
ATOM     25 CL   UNL     1      -1.115   4.265  -3.396  0.00  0.00    -0.084 Cl
ENDBRANCH  11  19
BRANCH   1  28
ATOM     26  C   UNL     1       0.245   1.744   0.164  0.00  0.00    +0.008 A 
ATOM     27  C   UNL     1       1.455   2.371  -0.071  0.00  0.00    +0.013 A 
ATOM     28  C   UNL     1       2.594   1.638  -0.032  0.00  0.00    +0.015 A 
ATOM     29  S   UNL     1       1.971   0.008   0.347  0.00  0.00    -0.099 S 
ATOM     30  C   UNL     1       0.235   0.414   0.426  0.00  0.00    +0.045 A 
ENDBRANCH   1  28
TORSDOF 2
