REMARK  Name = ZINC14129407
REMARK  8 active torsions:
REMARK  status: ('A' for Active; 'I' for Inactive)
REMARK    1  A    between atoms: C_1  and  C_2
REMARK    2  A    between atoms: C_4  and  C_26
REMARK    3  A    between atoms: C_6  and  S_8
REMARK    4  A    between atoms: S_8  and  C_9
REMARK    5  A    between atoms: C_9  and  C_11
REMARK    6  A    between atoms: C_9  and  C_12
REMARK    7  A    between atoms: N_14  and  C_15
REMARK    8  A    between atoms: C_16  and  C_23
REMARK                            x       y       z     vdW  Elec       q    Type
REMARK                         _______ _______ _______ _____ _____    ______ ____
ROOT
ATOM      1  C   UNL     1       4.353  -3.513   0.066  0.00  0.00    +0.231 C 
ATOM      2  O   UNL     1       5.474  -3.151  -0.223  0.00  0.00    -0.274 OA
ATOM      3  N   UNL     1       4.139  -4.776   0.482  0.00  0.00    -0.278 N 
ATOM      4  H   UNL     1       3.243  -5.066   0.712  0.00  0.00    +0.155 HD
ENDROOT
BRANCH   3   5
ATOM      5  C   UNL     1       5.201  -5.663   0.581  0.00  0.00    +0.084 A 
ATOM      6  C   UNL     1       5.183  -6.985   0.990  0.00  0.00    +0.068 A 
ATOM      7  C   UNL     1       6.454  -7.709   1.001  0.00  0.00    -0.023 A 
ATOM      8  C   UNL     1       7.523  -6.990   0.613  0.00  0.00    -0.004 A 
ATOM      9  S   UNL     1       6.872  -5.382   0.231  0.00  0.00    -0.077 S 
ATOM     10  C   UNL     1       8.790  -7.800   0.653  0.00  0.00    +0.043 C 
ATOM     11  C   UNL     1       8.313  -9.268   0.710  0.00  0.00    +0.010 C 
ATOM     12  C   UNL     1       6.921  -9.121   1.355  0.00  0.00    +0.037 C 
BRANCH   6  13
ATOM     13  C   UNL     1       3.933  -7.638   1.394  0.00  0.00    +0.244 C 
ATOM     14  O   UNL     1       3.253  -8.215   0.566  0.00  0.00    -0.270 OA
ATOM     15  N   UNL     1       3.539  -7.599   2.682  0.00  0.00    -0.325 N 
ATOM     16  H   UNL     1       4.081  -7.139   3.342  0.00  0.00    +0.145 HD
ATOM     17  H   UNL     1       2.712  -8.031   2.949  0.00  0.00    +0.145 HD
ENDBRANCH   6  13
ENDBRANCH   3   5
BRANCH   1  18
ATOM     18  C   UNL     1       3.199  -2.549  -0.042  0.00  0.00    +0.137 C 
ATOM     19  C   UNL     1       2.438  -2.809  -1.344  0.00  0.00    +0.029 C 
BRANCH  18  20
ATOM     20  S   UNL     1       3.828  -0.852  -0.039  0.00  0.00    -0.074 S 
BRANCH  20  26
ATOM     21  C   UNL     1      -1.288  -0.783   0.010  0.00  0.00    +0.066 C 
ATOM     22  C   UNL     1       0.002  -0.004   0.002  0.00  0.00    +0.043 A 
ATOM     23  C   UNL     1      -0.017   1.380   0.010  0.00  0.00    +0.051 A 
ATOM     24  C   UNL     1       1.202   2.062   0.002  0.00  0.00    +0.076 A 
ATOM     25  N   UNL     1       2.334   1.361  -0.013  0.00  0.00    -0.222 NA
ATOM     26  C   UNL     1       2.307   0.038  -0.020  0.00  0.00    +0.190 A 
ATOM     27  N   UNL     1       1.165  -0.636  -0.013  0.00  0.00    -0.227 NA
BRANCH  24  28
ATOM     28  C   UNL     1       1.235   3.545   0.009  0.00  0.00    +0.000 A 
ATOM     29  C   UNL     1       0.045   4.271   0.018  0.00  0.00    +0.010 A 
ATOM     30  C   UNL     1       0.082   5.651   0.030  0.00  0.00    +0.001 A 
ATOM     31  C   UNL     1       1.296   6.313   0.022  0.00  0.00    +0.000 A 
ATOM     32  C   UNL     1       2.480   5.598   0.007  0.00  0.00    +0.001 A 
ATOM     33  C   UNL     1       2.456   4.218   0.001  0.00  0.00    +0.010 A 
ENDBRANCH  24  28
ENDBRANCH  20  26
ENDBRANCH  18  20
ENDBRANCH   1  18
TORSDOF 6
