REMARK  Name = ZINC17177955
REMARK  7 active torsions:
REMARK  status: ('A' for Active; 'I' for Inactive)
REMARK    1  A    between atoms: C_5  and  N_7
REMARK    2  A    between atoms: C_8  and  C_10
REMARK    3  A    between atoms: C_10  and  S_11
REMARK    4  A    between atoms: S_11  and  C_12
REMARK    5  A    between atoms: C_15  and  S_19
REMARK    6  A    between atoms: C_16  and  N_18
REMARK    7  A    between atoms: S_19  and  C_22
REMARK                            x       y       z     vdW  Elec       q    Type
REMARK                         _______ _______ _______ _____ _____    ______ ____
ROOT
ATOM      1  C   UNL     1       1.451  -2.325  -0.057  0.00  0.00    +0.190 A 
ATOM      2  N   UNL     1       0.210  -2.789  -0.046  0.00  0.00    -0.228 NA
ATOM      3  C   UNL     1      -0.030  -4.092  -0.066  0.00  0.00    +0.144 A 
ATOM      4  C   UNL     1       1.033  -4.974  -0.087  0.00  0.00    +0.152 A 
ATOM      5  C   UNL     1       2.330  -4.456  -0.093  0.00  0.00    +0.146 A 
ATOM      6  N   UNL     1       2.497  -3.138  -0.077  0.00  0.00    -0.205 NA
ENDROOT
BRANCH   5   7
ATOM      7  N   UNL     1       3.425  -5.304  -0.114  0.00  0.00    -0.342 N 
ATOM      8  H   UNL     1       4.323  -4.936  -0.118  0.00  0.00    +0.144 HD
ATOM      9  H   UNL     1       3.295  -6.265  -0.125  0.00  0.00    +0.144 HD
ENDBRANCH   5   7
BRANCH   4  10
ATOM     10  S   UNL     1       0.758  -6.715  -0.106  0.00  0.00    +0.036 S 
ATOM     11  O   UNL     1       1.589  -7.268   0.905  0.00  0.00    -0.164 OA
ATOM     12  O   UNL     1      -0.650  -6.904  -0.122  0.00  0.00    -0.164 OA
BRANCH  10  13
ATOM     13  C   UNL     1       1.365  -7.321  -1.645  0.00  0.00    +0.132 A 
ATOM     14  C   UNL     1       2.607  -7.764  -1.957  0.00  0.00    +0.036 A 
ATOM     15  C   UNL     1       2.859  -8.203  -3.244  0.00  0.00    +0.029 A 
ATOM     16  C   UNL     1       1.858  -8.166  -4.159  0.00  0.00    +0.080 A 
ATOM     17  S   UNL     1       0.506  -7.505  -3.199  0.00  0.00    -0.058 S 
ATOM     18 CL   UNL     1       1.884  -8.641  -5.828  0.00  0.00    -0.076 Cl
ENDBRANCH  10  13
ENDBRANCH   4  10
BRANCH   1  19
ATOM     19  S   UNL     1       1.717  -0.583  -0.037  0.00  0.00    -0.077 S 
BRANCH  19  20
ATOM     20  C   UNL     1       0.003  -0.004  -0.014  0.00  0.00    +0.173 C 
BRANCH  20  22
ATOM     21  N   UNL     1      -1.195   2.161   0.019  0.00  0.00    -0.283 N 
ATOM     22  C   UNL     1      -0.018   1.503   0.005  0.00  0.00    +0.228 C 
ATOM     23  O   UNL     1       1.024   2.124   0.004  0.00  0.00    -0.275 OA
ATOM     24  H   UNL     1      -2.027   1.667  -0.049  0.00  0.00    +0.155 HD
BRANCH  21  29
ATOM     25  C   UNL     1      -0.243   5.694  -0.350  0.00  0.00    +0.002 A 
ATOM     26  C   UNL     1      -1.256   6.315   0.357  0.00  0.00    +0.003 A 
ATOM     27  C   UNL     1      -2.250   5.561   0.953  0.00  0.00    +0.040 A 
ATOM     28  C   UNL     1      -2.233   4.183   0.843  0.00  0.00    +0.144 A 
ATOM     29  C   UNL     1      -1.215   3.556   0.133  0.00  0.00    +0.069 A 
ATOM     30  C   UNL     1      -0.216   4.317  -0.459  0.00  0.00    +0.026 A 
ATOM     31  F   UNL     1      -3.204   3.446   1.426  0.00  0.00    -0.204 F 
ENDBRANCH  21  29
ENDBRANCH  20  22
ENDBRANCH  19  20
ENDBRANCH   1  19
TORSDOF 7
