REMARK  Name = ZINC08658579
REMARK  6 active torsions:
REMARK  status: ('A' for Active; 'I' for Inactive)
REMARK    1  A    between atoms: C_1  and  C_2
REMARK    2  A    between atoms: C_4  and  C_15
REMARK    3  A    between atoms: C_5  and  C_14
REMARK    4  A    between atoms: N_6  and  C_7
REMARK    5  A    between atoms: C_15  and  C_17
REMARK    6  A    between atoms: C_17  and  N_18
REMARK                            x       y       z     vdW  Elec       q    Type
REMARK                         _______ _______ _______ _____ _____    ______ ____
ROOT
ATOM      1  C   UNL     1      -0.459  -1.762  -4.152  0.00  0.00    +0.183 C 
ATOM      2  O   UNL     1      -0.320  -2.169  -3.017  0.00  0.00    -0.290 OA
ENDROOT
BRANCH   1   6
ATOM      3  C   UNL     1      -0.024  -3.592  -8.887  0.00  0.00    +0.064 C 
ATOM      4  C   UNL     1      -0.036  -3.451  -7.387  0.00  0.00    +0.022 A 
ATOM      5  C   UNL     1      -0.344  -2.330  -6.713  0.00  0.00    +0.034 A 
ATOM      6  C   UNL     1      -0.224  -2.658  -5.285  0.00  0.00    +0.040 A 
ATOM      7  C   UNL     1       0.163  -3.985  -5.232  0.00  0.00    +0.031 A 
ATOM      8  N   UNL     1       0.264  -4.443  -6.495  0.00  0.00    -0.317 N 
ATOM      9  C   UNL     1       0.421  -4.781  -3.979  0.00  0.00    +0.064 C 
BRANCH   8  10
ATOM     10  C   UNL     1       0.631  -5.750  -6.845  0.00  0.00    +0.047 A 
ATOM     11  C   UNL     1      -0.187  -6.817  -6.502  0.00  0.00    +0.027 A 
ATOM     12  C   UNL     1       0.175  -8.103  -6.852  0.00  0.00    +0.017 A 
ATOM     13  C   UNL     1       1.357  -8.329  -7.535  0.00  0.00    +0.018 A 
ATOM     14  C   UNL     1       2.176  -7.267  -7.874  0.00  0.00    +0.017 A 
ATOM     15  C   UNL     1       1.817  -5.979  -7.530  0.00  0.00    +0.027 A 
ATOM     16 BR   UNL     1       1.852 -10.092  -8.007  0.00  0.00    -0.050 Br
ENDBRANCH   8  10
ENDBRANCH   1   6
BRANCH   1  17
ATOM     17  C   UNL     1      -0.872  -0.333  -4.394  0.00  0.00    +0.197 C 
BRANCH  17  18
ATOM     18  N   UNL     1      -1.043   0.350  -3.110  0.00  0.00    -0.217 N 
ATOM     19  C   UNL     1      -0.060   1.009  -2.467  0.00  0.00    +0.247 C 
ATOM     20  O   UNL     1       1.090   1.141  -2.829  0.00  0.00    -0.273 OA
ATOM     21  C   UNL     1      -0.688   1.554  -1.196  0.00  0.00    +0.113 C 
ATOM     22  C   UNL     1      -0.013   1.086   0.008  0.00  0.00    +0.035 C 
ATOM     23  C   UNL     1      -0.703   1.567   1.299  0.00  0.00    +0.003 C 
ATOM     24  C   UNL     1      -0.274   2.986   1.567  0.00  0.00    +0.000 C 
ATOM     25  C   UNL     1      -1.269   4.013   0.996  0.00  0.00    +0.000 C 
ATOM     26  C   UNL     1      -1.786   3.631  -0.405  0.00  0.00    +0.003 C 
ATOM     27  C   UNL     1      -0.701   3.096  -1.297  0.00  0.00    +0.035 C 
ATOM     28  N   UNL     1      -2.086   1.085  -1.282  0.00  0.00    -0.285 N 
ATOM     29  C   UNL     1      -2.194   0.397  -2.431  0.00  0.00    +0.310 C 
ATOM     30  O   UNL     1      -3.223  -0.127  -2.811  0.00  0.00    -0.252 OA
ATOM     31  H   UNL     1      -2.790   1.243  -0.633  0.00  0.00    +0.151 HD
ENDBRANCH  17  18
ENDBRANCH   1  17
TORSDOF 4
