REMARK  Name = ZINC30874435
REMARK  3 active torsions:
REMARK  status: ('A' for Active; 'I' for Inactive)
REMARK    1  A    between atoms: C_6  and  C_7
REMARK    2  A    between atoms: C_17  and  N_21
REMARK    3  A    between atoms: C_18  and  C_19
REMARK                            x       y       z     vdW  Elec       q    Type
REMARK                         _______ _______ _______ _____ _____    ______ ____
ROOT
ATOM      1  C   UNL     1      -1.293  -0.775   0.011  0.00  0.00    +0.101 C 
ATOM      2  C   UNL     1      -1.374  -1.616  -1.230  0.00  0.00    +0.071 A 
ATOM      3  C   UNL     1      -1.667  -1.035  -2.458  0.00  0.00    +0.281 A 
ATOM      4  O   UNL     1      -1.887   0.299  -2.553  0.00  0.00    -0.265 OA
ATOM      5  N   UNL     1      -1.729  -1.809  -3.538  0.00  0.00    -0.175 NA
ATOM      6  C   UNL     1      -1.514  -3.113  -3.453  0.00  0.00    +0.223 A 
ATOM      7  N   UNL     1      -1.233  -3.700  -2.299  0.00  0.00    -0.199 NA
ATOM      8  C   UNL     1      -1.158  -2.987  -1.179  0.00  0.00    +0.137 A 
ATOM      9  N   UNL     1      -0.873  -3.601   0.031  0.00  0.00    -0.288 N 
ATOM     10  C   UNL     1      -1.142  -2.952   1.208  0.00  0.00    +0.085 C 
ATOM     11  C   UNL     1      -1.350  -1.629   1.243  0.00  0.00    +0.075 C 
ATOM     12  N   UNL     1      -1.586  -3.883  -4.601  0.00  0.00    -0.300 N 
ATOM     13  C   UNL     1      -1.360  -5.334  -4.544  0.00  0.00    +0.108 C 
ATOM     14  C   UNL     1      -2.555  -6.045  -5.188  0.00  0.00    +0.019 C 
ATOM     15  C   UNL     1      -2.768  -5.497  -6.601  0.00  0.00    +0.003 C 
ATOM     16  C   UNL     1      -3.078  -4.000  -6.528  0.00  0.00    +0.019 C 
ATOM     17  C   UNL     1      -1.896  -3.267  -5.898  0.00  0.00    +0.108 C 
ATOM     18  H   UNL     1      -0.483  -4.489   0.044  0.00  0.00    +0.155 HD
ENDROOT
BRANCH   1  24
ATOM     19  C   UNL     1      -0.017   1.378   0.010  0.00  0.00    +0.006 A 
ATOM     20  C   UNL     1       1.171   2.086   0.002  0.00  0.00    +0.020 A 
ATOM     21  C   UNL     1       2.378   1.410  -0.013  0.00  0.00    +0.041 A 
ATOM     22  C   UNL     1       2.396   0.027  -0.021  0.00  0.00    +0.020 A 
ATOM     23  C   UNL     1       1.208  -0.679  -0.013  0.00  0.00    +0.006 A 
ATOM     24  C   UNL     1       0.002  -0.004   0.002  0.00  0.00    -0.034 A 
ATOM     25 CL   UNL     1       3.870   2.298  -0.023  0.00  0.00    -0.084 Cl
ENDBRANCH   1  24
BRANCH  10  26
ATOM     26  N   UNL     1      -1.201  -3.687   2.397  0.00  0.00    -0.405 NA
ATOM     27  H   UNL     1      -1.023  -4.660   2.199  0.00  0.00    +0.122 HD
ATOM     28  H   UNL     1      -0.504  -3.341   3.040  0.00  0.00    +0.122 HD
ATOM     29  H   UNL     1      -2.117  -3.588   2.808  0.00  0.00    +0.122 HD
ENDBRANCH  10  26
BRANCH  11  30
ATOM     30  C   UNL     1      -1.636  -1.009   2.502  0.00  0.00    +0.099 C 
ATOM     31  N   UNL     1      -1.863  -0.517   3.500  0.00  0.00    -0.191 NA
ENDBRANCH  11  30
TORSDOF 3
