REMARK  Name = ZINC63623047
REMARK  14 active torsions:
REMARK  status: ('A' for Active; 'I' for Inactive)
REMARK    1  A    between atoms: C_1  and  C_2
REMARK    2  A    between atoms: C_5  and  C_8
REMARK    3  A    between atoms: C_8  and  C_10
REMARK    4  A    between atoms: C_10  and  O_11
REMARK    5  A    between atoms: O_11  and  C_12
REMARK    6  A    between atoms: C_12  and  C_14
REMARK    7  A    between atoms: C_14  and  C_16
REMARK    8  A    between atoms: C_14  and  N_26
REMARK    9  A    between atoms: C_16  and  C_17
REMARK   10  A    between atoms: C_27  and  C_29
REMARK   11  A    between atoms: C_32  and  C_35
REMARK   12  A    between atoms: C_35  and  C_36
REMARK   13  A    between atoms: C_35  and  C_37
REMARK   14  A    between atoms: C_35  and  C_38
REMARK                            x       y       z     vdW  Elec       q    Type
REMARK                         _______ _______ _______ _____ _____    ______ ____
ROOT
ATOM      1  C   UNL     1       0.126  -8.726   1.865  0.00  0.00    +0.186 C 
ENDROOT
BRANCH   1   2
ATOM      2  N   UNL     1       0.141  -9.398   3.167  0.00  0.00    -0.298 N 
ATOM      3  C   UNL     1       0.651 -10.640   3.277  0.00  0.00    +0.245 C 
ATOM      4  O   UNL     1       1.098 -11.203   2.297  0.00  0.00    -0.270 OA
ATOM      5  H   UNL     1      -0.216  -8.948   3.949  0.00  0.00    +0.150 HD
BRANCH   3   6
ATOM      6  C   UNL     1       0.666 -11.319   4.591  0.00  0.00    +0.037 A 
ATOM      7  C   UNL     1       0.149 -10.677   5.717  0.00  0.00    +0.013 A 
ATOM      8  C   UNL     1       0.166 -11.316   6.940  0.00  0.00    +0.005 A 
ATOM      9  C   UNL     1       0.695 -12.589   7.051  0.00  0.00    -0.042 A 
ATOM     10  C   UNL     1       1.210 -13.230   5.939  0.00  0.00    +0.005 A 
ATOM     11  C   UNL     1       1.194 -12.605   4.709  0.00  0.00    +0.013 A 
BRANCH   9  12
ATOM     12  C   UNL     1       0.711 -13.281   8.390  0.00  0.00    -0.013 C 
ATOM     13  C   UNL     1      -0.722 -13.428   8.905  0.00  0.00    +0.015 C 
ATOM     14  C   UNL     1       1.344 -14.665   8.242  0.00  0.00    +0.015 C 
ATOM     15  C   UNL     1       1.527 -12.451   9.383  0.00  0.00    +0.015 C 
ENDBRANCH   9  12
ENDBRANCH   3   6
ENDBRANCH   1   2
BRANCH   1  16
ATOM     16  C   UNL     1       0.107  -7.233   2.071  0.00  0.00    +0.328 C 
ATOM     17  O   UNL     1       0.107  -6.777   3.190  0.00  0.00    -0.249 OA
BRANCH  16  18
ATOM     18  O   UNL     1       0.091  -6.409   1.011  0.00  0.00    -0.455 OA
BRANCH  18  19
ATOM     19  C   UNL     1       0.075  -5.006   1.280  0.00  0.00    +0.311 C 
BRANCH  19  20
ATOM     20  C   UNL     1       0.058  -4.245  -0.021  0.00  0.00    +0.200 C 
ATOM     21  O   UNL     1       0.060  -4.846  -1.075  0.00  0.00    -0.288 OA
BRANCH  20  26
ATOM     22  C   UNL     1      -0.018   1.503   0.010  0.00  0.00    +0.044 C 
ATOM     23  C   UNL     1       0.002  -0.004   0.002  0.00  0.00    -0.050 A 
ATOM     24  C   UNL     1       0.006  -0.686  -1.202  0.00  0.00    +0.004 A 
ATOM     25  C   UNL     1       0.024  -2.064  -1.218  0.00  0.00    +0.012 A 
ATOM     26  C   UNL     1       0.039  -2.774  -0.013  0.00  0.00    +0.021 A 
ATOM     27  C   UNL     1       0.036  -2.078   1.200  0.00  0.00    +0.012 A 
ATOM     28  C   UNL     1       0.023  -0.699   1.199  0.00  0.00    +0.004 A 
ENDBRANCH  20  26
ENDBRANCH  19  20
ENDBRANCH  18  19
ENDBRANCH  16  18
ENDBRANCH   1  16
BRANCH   1  29
ATOM     29  C   UNL     1      -1.122  -9.148   1.087  0.00  0.00    +0.067 C 
BRANCH  29  30
ATOM     30  C   UNL     1      -1.044 -10.621   0.775  0.00  0.00    -0.039 C 
ATOM     31  C   UNL     1      -1.592 -11.633   1.486  0.00  0.00    -0.001 A 
ATOM     32  C   UNL     1      -2.392 -11.665   2.716  0.00  0.00    +0.010 A 
ATOM     33  C   UNL     1      -2.806 -12.859   3.198  0.00  0.00    +0.001 A 
ATOM     34  C   UNL     1      -2.490 -14.063   2.555  0.00  0.00    +0.002 A 
ATOM     35  C   UNL     1      -1.760 -14.114   1.421  0.00  0.00    +0.026 A 
ATOM     36  C   UNL     1      -1.272 -12.918   0.825  0.00  0.00    +0.043 A 
ATOM     37  N   UNL     1      -0.556 -12.709  -0.253  0.00  0.00    -0.380 N 
ATOM     38  C   UNL     1      -0.344 -11.265  -0.400  0.00  0.00    +0.144 C 
ATOM     39  H   UNL     1      -0.224 -13.394  -0.854  0.00  0.00    +0.160 HD
ENDBRANCH  29  30
ENDBRANCH   1  29
TORSDOF 10
