REMARK  Name = ZINC12397138
REMARK  10 active torsions:
REMARK  status: ('A' for Active; 'I' for Inactive)
REMARK    1  A    between atoms: C_1  and  C_2
REMARK    2  A    between atoms: C_4  and  C_7
REMARK    3  A    between atoms: C_10  and  C_12
REMARK    4  A    between atoms: C_12  and  C_13
REMARK    5  A    between atoms: C_13  and  N_14
REMARK    6  A    between atoms: C_15  and  C_17
REMARK    7  A    between atoms: C_19  and  S_25
REMARK    8  A    between atoms: C_22  and  O_23
REMARK    9  A    between atoms: O_23  and  C_24
REMARK   10  A    between atoms: S_25  and  N_28
REMARK                            x       y       z     vdW  Elec       q    Type
REMARK                         _______ _______ _______ _____ _____    ______ ____
ROOT
ATOM      1  N   UNL     1       0.002  -0.004   0.002  0.00  0.00    -0.311 N 
ATOM      2  C   UNL     1      -1.156  -0.694   0.009  0.00  0.00    +0.248 C 
ATOM      3  O   UNL     1      -2.217  -0.100   0.023  0.00  0.00    -0.270 OA
ATOM      4  H   UNL     1       0.849  -0.478  -0.009  0.00  0.00    +0.149 HD
ENDROOT
BRANCH   2   5
ATOM      5  C   UNL     1      -1.136  -2.169   0.001  0.00  0.00    +0.080 A 
ATOM      6  C   UNL     1       0.081  -2.855  -0.014  0.00  0.00    +0.045 A 
ATOM      7  C   UNL     1       0.093  -4.233  -0.021  0.00  0.00    +0.106 A 
ATOM      8  C   UNL     1      -1.097  -4.942  -0.013  0.00  0.00    +0.032 A 
ATOM      9  C   UNL     1      -2.307  -4.277   0.002  0.00  0.00    +0.048 A 
ATOM     10  C   UNL     1      -2.337  -2.890   0.015  0.00  0.00    +0.132 A 
BRANCH   7  11
ATOM     11  S   UNL     1       1.629  -5.096  -0.041  0.00  0.00    +0.056 S 
ATOM     12  O   UNL     1       1.367  -6.378  -0.596  0.00  0.00    -0.153 OA
ATOM     13  O   UNL     1       2.587  -4.207  -0.597  0.00  0.00    -0.153 OA
BRANCH  11  14
ATOM     14  N   UNL     1       2.071  -5.345   1.535  0.00  0.00    -0.204 NA
ATOM     15  H   UNL     1       1.504  -5.025   2.254  0.00  0.00    +0.144 HD
ATOM     16  H   UNL     1       2.898  -5.809   1.740  0.00  0.00    +0.144 HD
ENDBRANCH  11  14
ENDBRANCH   7  11
BRANCH  10  17
ATOM     17  O   UNL     1      -3.525  -2.235   0.035  0.00  0.00    -0.494 OA
ATOM     18  C   UNL     1      -4.708  -3.037   0.048  0.00  0.00    +0.277 C 
ENDBRANCH  10  17
ENDBRANCH   2   5
BRANCH   1  19
ATOM     19  C   UNL     1      -0.018   1.461   0.010  0.00  0.00    +0.109 C 
BRANCH  19  20
ATOM     20  C   UNL     1       1.418   1.990  -0.001  0.00  0.00    +0.061 C 
BRANCH  20  24
ATOM     21  C   UNL     1       1.356   6.155  -0.452  0.00  0.00    +0.038 A 
ATOM     22  C   UNL     1       1.375   5.704   0.840  0.00  0.00    +0.018 A 
ATOM     23  C   UNL     1       1.390   4.344   1.067  0.00  0.00    +0.012 A 
ATOM     24  C   UNL     1       1.397   3.497   0.007  0.00  0.00    -0.008 A 
ATOM     25  S   UNL     1       1.368   4.627  -1.375  0.00  0.00    -0.092 S 
BRANCH  21  29
ATOM     26  C   UNL     1       1.296  11.091   0.240  0.00  0.00    +0.073 C 
ATOM     27  C   UNL     1       1.306   9.810  -0.554  0.00  0.00    +0.076 A 
ATOM     28  N   UNL     1       1.327   8.575  -0.118  0.00  0.00    -0.244 NA
ATOM     29  C   UNL     1       1.333   7.546  -0.954  0.00  0.00    +0.085 A 
ATOM     30  C   UNL     1       1.321   7.814  -2.298  0.00  0.00    +0.075 A 
ATOM     31  S   UNL     1       1.292   9.600  -2.278  0.00  0.00    -0.080 S 
ENDBRANCH  21  29
ENDBRANCH  20  24
ENDBRANCH  19  20
ENDBRANCH   1  19
TORSDOF 8
