REMARK  Name = ZINC19672914
REMARK  6 active torsions:
REMARK  status: ('A' for Active; 'I' for Inactive)
REMARK    1  A    between atoms: C_1  and  C_2
REMARK    2  A    between atoms: C_9  and  C_14
REMARK    3  A    between atoms: C_14  and  S_15
REMARK    4  A    between atoms: S_15  and  C_16
REMARK    5  A    between atoms: N_17  and  C_18
REMARK    6  A    between atoms: C_18  and  C_19
REMARK                            x       y       z     vdW  Elec       q    Type
REMARK                         _______ _______ _______ _____ _____    ______ ____
ROOT
ATOM      1  C   UNL     1       1.568   4.395   4.082  0.00  0.00    +0.113 C 
ENDROOT
BRANCH   1  10
ATOM      2  C   UNL     1       1.966   1.066   9.834  0.00  0.00    +0.045 C 
ATOM      3  C   UNL     1       1.840   2.052   8.702  0.00  0.00    -0.029 A 
ATOM      4  C   UNL     1       1.659   3.391   8.980  0.00  0.00    +0.051 A 
ATOM      5  C   UNL     1       1.537   4.305   7.942  0.00  0.00    +0.140 A 
ATOM      6  C   UNL     1       1.611   3.855   6.612  0.00  0.00    +0.023 A 
ATOM      7  C   UNL     1       1.808   2.497   6.344  0.00  0.00    +0.032 A 
ATOM      8  C   UNL     1       1.920   1.606   7.389  0.00  0.00    +0.045 A 
ATOM      9 CL   UNL     1       2.164  -0.082   7.064  0.00  0.00    -0.083 Cl
ATOM     10  C   UNL     1       1.488   4.829   5.523  0.00  0.00    -0.020 A 
ATOM     11  C   UNL     1       1.293   6.132   5.848  0.00  0.00    +0.097 A 
ATOM     12  C   UNL     1       1.221   6.513   7.206  0.00  0.00    +0.338 A 
ATOM     13  O   UNL     1       1.046   7.686   7.485  0.00  0.00    -0.245 OA
ATOM     14  O   UNL     1       1.341   5.617   8.197  0.00  0.00    -0.422 OA
ENDBRANCH   1  10
BRANCH   1  15
ATOM     15  S   UNL     1       3.289   4.468   3.525  0.00  0.00    -0.088 S 
BRANCH  15  16
ATOM     16  C   UNL     1       3.095   3.925   1.861  0.00  0.00    +0.126 C 
ATOM     17  N   UNL     1       1.911   3.616   1.409  0.00  0.00    -0.361 N 
ATOM     18  N   UNL     1       4.192   3.827   1.037  0.00  0.00    -0.339 N 
ATOM     19  H   UNL     1       4.071   3.488  -0.003  0.00  0.00    +0.144 HD
ATOM     20  H   UNL     1       5.191   4.087   1.417  0.00  0.00    +0.144 HD
ATOM     21  H   UNL     1       1.021   3.792   2.032  0.00  0.00    +0.162 HD
BRANCH  17  22
ATOM     22  C   UNL     1       1.765   3.034   0.072  0.00  0.00    +0.189 C 
BRANCH  22  23
ATOM     23  C   UNL     1       1.196   1.644   0.188  0.00  0.00    +0.124 A 
ATOM     24  C   UNL     1      -0.111   1.326   0.181  0.00  0.00    +0.046 A 
ATOM     25  C   UNL     1      -0.192  -0.079   0.312  0.00  0.00    +0.041 A 
ATOM     26  C   UNL     1       1.071  -0.536   0.391  0.00  0.00    +0.195 A 
ATOM     27  O   UNL     1       1.907   0.512   0.316  0.00  0.00    -0.466 OA
ENDBRANCH  22  23
ENDBRANCH  17  22
ENDBRANCH  15  16
ENDBRANCH   1  15
TORSDOF 5
