REMARK  Name = ZINC38653400
REMARK  5 active torsions:
REMARK  status: ('A' for Active; 'I' for Inactive)
REMARK    1  A    between atoms: C_1  and  C_2
REMARK    2  A    between atoms: C_2  and  O_4
REMARK    3  A    between atoms: O_4  and  C_5
REMARK    4  A    between atoms: C_11  and  C_28
REMARK    5  A    between atoms: C_26  and  C_27
REMARK                            x       y       z     vdW  Elec       q    Type
REMARK                         _______ _______ _______ _____ _____    ______ ____
ROOT
ATOM      1  C   UNL     1       0.020  -2.096  -1.097  0.00  0.00    +0.183 C 
ATOM      2  C   UNL     1       1.471  -2.625  -1.176  0.00  0.00    +0.045 C 
ATOM      3  C   UNL     1       1.731  -2.977  -2.653  0.00  0.00    +0.008 C 
ATOM      4  C   UNL     1       0.435  -2.605  -3.424  0.00  0.00    +0.002 C 
ATOM      5  C   UNL     1      -0.655  -2.707  -2.339  0.00  0.00    +0.008 C 
ATOM      6  C   UNL     1      -1.940  -2.004  -2.707  0.00  0.00    +0.011 C 
ATOM      7  C   UNL     1      -1.679  -0.557  -3.117  0.00  0.00    +0.005 C 
ATOM      8  C   UNL     1      -0.733  -0.554  -4.326  0.00  0.00    +0.006 C 
ATOM      9  C   UNL     1       0.621  -1.168  -3.921  0.00  0.00    -0.003 C 
ATOM     10  C   UNL     1       1.599  -1.188  -5.100  0.00  0.00    +0.008 C 
ATOM     11  C   UNL     1       1.900   0.244  -5.551  0.00  0.00    +0.032 C 
ATOM     12  C   UNL     1       0.580   0.923  -5.864  0.00  0.00    -0.056 C 
ATOM     13  C   UNL     1       0.424   1.518  -7.037  0.00  0.00    +0.051 C 
ATOM     14  C   UNL     1      -0.850   2.168  -7.382  0.00  0.00    +0.179 C 
ATOM     15  O   UNL     1      -0.985   2.751  -8.441  0.00  0.00    -0.288 OA
ATOM     16  C   UNL     1      -1.959   2.097  -6.415  0.00  0.00    +0.047 C 
ATOM     17  C   UNL     1      -1.777   1.503  -5.246  0.00  0.00    -0.012 C 
ATOM     18  C   UNL     1      -0.525   0.898  -4.769  0.00  0.00    +0.011 C 
ATOM     19  C   UNL     1      -0.032   1.687  -3.554  0.00  0.00    +0.020 C 
ATOM     20  C   UNL     1      -0.961  -4.182  -2.070  0.00  0.00    +0.015 C 
ENDROOT
BRANCH   1  21
ATOM     21  O   UNL     1       0.000  -0.669  -1.164  0.00  0.00    -0.461 OA
BRANCH  21  23
ATOM     22  C   UNL     1      -0.018   1.503   0.010  0.00  0.00    +0.136 C 
ATOM     23  C   UNL     1       0.002  -0.004   0.002  0.00  0.00    +0.304 C 
ATOM     24  O   UNL     1       0.020  -0.614   1.045  0.00  0.00    -0.251 OA
ENDBRANCH  21  23
ENDBRANCH   1  21
TORSDOF 2
