REMARK  Name = ZINC23630322
REMARK  9 active torsions:
REMARK  status: ('A' for Active; 'I' for Inactive)
REMARK    1  A    between atoms: C_1  and  C_2
REMARK    2  A    between atoms: C_2  and  C_4
REMARK    3  A    between atoms: C_2  and  O_16
REMARK    4  A    between atoms: O_16  and  C_17
REMARK    5  A    between atoms: C_17  and  C_19
REMARK    6  A    between atoms: C_22  and  S_25
REMARK    7  A    between atoms: S_25  and  N_28
REMARK    8  A    between atoms: N_28  and  C_29
REMARK    9  A    between atoms: N_28  and  C_30
REMARK                            x       y       z     vdW  Elec       q    Type
REMARK                         _______ _______ _______ _____ _____    ______ ____
ROOT
ATOM      1  C   UNL     1       8.072   2.840   3.531  0.00  0.00    +0.340 C 
ATOM      2  O   UNL     1       9.000   2.273   4.074  0.00  0.00    -0.245 OA
ENDROOT
BRANCH   1   3
ATOM      3  C   UNL     1       7.303   2.151   2.475  0.00  0.00    +0.059 A 
ATOM      4  C   UNL     1       7.638   0.848   2.099  0.00  0.00    +0.017 A 
ATOM      5  C   UNL     1       6.915   0.211   1.113  0.00  0.00    +0.029 A 
ATOM      6  C   UNL     1       5.859   0.859   0.496  0.00  0.00    +0.109 A 
ATOM      7  C   UNL     1       5.525   2.151   0.860  0.00  0.00    +0.029 A 
ATOM      8  C   UNL     1       6.236   2.799   1.849  0.00  0.00    +0.017 A 
BRANCH   6   9
ATOM      9  S   UNL     1       4.941   0.036  -0.763  0.00  0.00    +0.074 S 
ATOM     10  O   UNL     1       5.843  -0.851  -1.410  0.00  0.00    -0.150 OA
ATOM     11  O   UNL     1       4.226   1.043  -1.466  0.00  0.00    -0.150 OA
BRANCH   9  12
ATOM     12  N   UNL     1       3.809  -0.907  -0.006  0.00  0.00    -0.206 N 
ATOM     13  C   UNL     1       4.144  -2.277   0.389  0.00  0.00    +0.157 C 
BRANCH  12  14
ATOM     14  C   UNL     1       2.535  -0.397   0.254  0.00  0.00    +0.051 A 
ATOM     15  C   UNL     1       1.450  -1.256   0.363  0.00  0.00    +0.025 A 
ATOM     16  C   UNL     1       0.192  -0.748   0.620  0.00  0.00    +0.002 A 
ATOM     17  C   UNL     1       0.012   0.615   0.769  0.00  0.00    +0.000 A 
ATOM     18  C   UNL     1       1.091   1.474   0.662  0.00  0.00    +0.002 A 
ATOM     19  C   UNL     1       2.352   0.972   0.404  0.00  0.00    +0.025 A 
ENDBRANCH  12  14
ENDBRANCH   9  12
ENDBRANCH   6   9
ENDBRANCH   1   3
BRANCH   1  20
ATOM     20  O   UNL     1       7.746   4.096   3.891  0.00  0.00    -0.450 OA
BRANCH  20  22
ATOM     21  C   UNL     1       7.924   4.407   6.300  0.00  0.00    +0.060 C 
ATOM     22  C   UNL     1       8.546   4.711   4.936  0.00  0.00    +0.239 C 
BRANCH  22  23
ATOM     23  C   UNL     1       8.588   6.202   4.724  0.00  0.00    +0.151 A 
ATOM     24  N   UNL     1       9.377   6.691   3.732  0.00  0.00    -0.307 N 
ATOM     25  H   UNL     1       9.969   6.003   3.111  0.00  0.00    +0.170 HD
ATOM     26  C   UNL     1       9.445   8.022   3.498  0.00  0.00    +0.259 A 
ATOM     27  O   UNL     1      10.144   8.473   2.609  0.00  0.00    -0.267 OA
ATOM     28  C   UNL     1       8.645   8.903   4.362  0.00  0.00    +0.065 A 
ATOM     29  C   UNL     1       8.649  10.288   4.208  0.00  0.00    +0.015 A 
ATOM     30  C   UNL     1       7.881  11.066   5.046  0.00  0.00    +0.001 A 
ATOM     31  C   UNL     1       7.106  10.482   6.040  0.00  0.00    +0.002 A 
ATOM     32  C   UNL     1       7.089   9.116   6.208  0.00  0.00    +0.028 A 
ATOM     33  C   UNL     1       7.859   8.305   5.371  0.00  0.00    +0.078 A 
ATOM     34  N   UNL     1       7.871   6.955   5.502  0.00  0.00    -0.230 NA
ENDBRANCH  22  23
ENDBRANCH  20  22
ENDBRANCH   1  20
TORSDOF 7
