REMARK  Name = ZINC48784872
REMARK  9 active torsions:
REMARK  status: ('A' for Active; 'I' for Inactive)
REMARK    1  A    between atoms: C_1  and  C_2
REMARK    2  A    between atoms: C_7  and  C_23
REMARK    3  A    between atoms: N_12  and  C_16
REMARK    4  A    between atoms: C_16  and  C_17
REMARK    5  A    between atoms: C_17  and  C_18
REMARK    6  A    between atoms: C_18  and  N_19
REMARK    7  A    between atoms: N_19  and  C_20
REMARK    8  A    between atoms: C_20  and  C_21
REMARK    9  A    between atoms: C_20  and  C_22
REMARK                            x       y       z     vdW  Elec       q    Type
REMARK                         _______ _______ _______ _____ _____    ______ ____
ROOT
ATOM      1  C   UNL     1      -0.019   1.526   0.010  0.00  0.00    +0.010 C 
ATOM      2  C   UNL     1       0.002  -0.004   0.002  0.00  0.00    +0.019 C 
ATOM      3  C   UNL     1      -1.434  -0.534   0.012  0.00  0.00    +0.006 C 
ATOM      4  C   UNL     1      -2.143  -0.057   1.282  0.00  0.00    +0.001 C 
ATOM      5  C   UNL     1      -1.404  -0.588   2.512  0.00  0.00    +0.006 C 
ATOM      6  C   UNL     1       0.033  -0.059   2.510  0.00  0.00    +0.019 C 
ATOM      7  C   UNL     1       0.740  -0.509   1.237  0.00  0.00    +0.118 C 
ATOM      8  C   UNL     1       2.172  -0.026   1.230  0.00  0.00    +0.247 C 
ATOM      9  O   UNL     1       2.560   1.122   1.252  0.00  0.00    -0.273 OA
ATOM     10  N   UNL     1       2.929  -1.143   1.197  0.00  0.00    -0.224 N 
ATOM     11  C   UNL     1       2.175  -2.249   1.182  0.00  0.00    +0.309 C 
ATOM     12  O   UNL     1       2.628  -3.376   1.152  0.00  0.00    -0.252 OA
ATOM     13  N   UNL     1       0.857  -1.972   1.204  0.00  0.00    -0.284 N 
ATOM     14  C   UNL     1       0.779  -0.606   3.729  0.00  0.00    +0.010 C 
ATOM     15  H   UNL     1       0.128  -2.613   1.199  0.00  0.00    +0.151 HD
ENDROOT
BRANCH  10  16
ATOM     16  C   UNL     1       4.393  -1.145   1.179  0.00  0.00    +0.116 C 
BRANCH  16  17
ATOM     17  C   UNL     1       4.921  -1.177   2.615  0.00  0.00    +0.000 C 
BRANCH  17  18
ATOM     18  C   UNL     1       6.451  -1.179   2.596  0.00  0.00    -0.081 C 
BRANCH  18  19
ATOM     19  N   UNL     1       6.958  -1.210   3.974  0.00  0.00    +0.381 N 
ATOM     20  H   UNL     1       6.629  -0.396   4.472  0.00  0.00    -0.086 HD
ATOM     21  H   UNL     1       6.626  -2.043   4.436  0.00  0.00    -0.086 HD
BRANCH  19  22
ATOM     22  C   UNL     1       8.427  -1.212   3.956  0.00  0.00    -0.078 C 
ATOM     23  C   UNL     1       8.931   0.108   3.369  0.00  0.00    -0.014 C 
ATOM     24  C   UNL     1       8.954  -1.369   5.384  0.00  0.00    -0.014 C 
ENDBRANCH  19  22
ENDBRANCH  18  19
ENDBRANCH  17  18
ENDBRANCH  16  17
ENDBRANCH  10  16
TORSDOF 5
