REMARK  Name = ZINC63743241
REMARK  11 active torsions:
REMARK  status: ('A' for Active; 'I' for Inactive)
REMARK    1  A    between atoms: C_1  and  O_2
REMARK    2  A    between atoms: O_2  and  C_3
REMARK    3  A    between atoms: C_5  and  N_13
REMARK    4  A    between atoms: C_7  and  O_11
REMARK    5  A    between atoms: C_8  and  O_9
REMARK    6  A    between atoms: O_9  and  C_10
REMARK    7  A    between atoms: O_11  and  C_12
REMARK    8  A    between atoms: C_14  and  C_16
REMARK    9  A    between atoms: C_16  and  C_17
REMARK   10  A    between atoms: C_25  and  S_27
REMARK   11  A    between atoms: S_27  and  C_28
REMARK                            x       y       z     vdW  Elec       q    Type
REMARK                         _______ _______ _______ _____ _____    ______ ____
ROOT
ATOM      1  C   UNL     1       4.358  -0.350  -6.996  0.00  0.00    -0.019 C 
ATOM      2  C   UNL     1       3.613  -0.612  -8.094  0.00  0.00    +0.000 A 
ATOM      3  C   UNL     1       2.225  -0.295  -8.453  0.00  0.00    +0.010 A 
ATOM      4  C   UNL     1       1.749  -0.701  -9.652  0.00  0.00    +0.001 A 
ATOM      5  C   UNL     1       2.544  -1.415 -10.558  0.00  0.00    +0.002 A 
ATOM      6  C   UNL     1       3.828  -1.744 -10.300  0.00  0.00    +0.026 A 
ATOM      7  C   UNL     1       4.433  -1.367  -9.069  0.00  0.00    +0.044 A 
ATOM      8  N   UNL     1       5.638  -1.564  -8.592  0.00  0.00    -0.369 N 
ATOM      9  C   UNL     1       5.721  -0.950  -7.262  0.00  0.00    +0.170 C 
ATOM     10  H   UNL     1       6.356  -2.034  -9.045  0.00  0.00    +0.161 HD
ENDROOT
BRANCH   1  11
ATOM     11  C   UNL     1       3.921   0.395  -5.761  0.00  0.00    +0.130 C 
BRANCH  11  13
ATOM     12  N   UNL     1       3.239  -0.153  -3.448  0.00  0.00    -0.285 N 
ATOM     13  C   UNL     1       3.732  -0.580  -4.628  0.00  0.00    +0.221 C 
ATOM     14  O   UNL     1       4.025  -1.747  -4.776  0.00  0.00    -0.275 OA
ATOM     15  H   UNL     1       2.937   0.763  -3.351  0.00  0.00    +0.155 HD
BRANCH  12  18
ATOM     16  C   UNL     1       3.220  -1.424   0.009  0.00  0.00    +0.167 A 
ATOM     17  C   UNL     1       3.297  -0.553  -1.067  0.00  0.00    +0.073 A 
ATOM     18  C   UNL     1       3.161  -1.035  -2.362  0.00  0.00    +0.041 A 
ATOM     19  C   UNL     1       2.949  -2.389  -2.581  0.00  0.00    +0.073 A 
ATOM     20  C   UNL     1       2.872  -3.261  -1.507  0.00  0.00    +0.167 A 
ATOM     21  C   UNL     1       3.012  -2.781  -0.210  0.00  0.00    +0.204 A 
BRANCH  16  23
ATOM     22  C   UNL     1       3.564   0.453   1.427  0.00  0.00    +0.277 C 
ATOM     23  O   UNL     1       3.353  -0.952   1.277  0.00  0.00    -0.491 OA
ENDBRANCH  16  23
BRANCH  21  24
ATOM     24  O   UNL     1       2.942  -3.638   0.845  0.00  0.00    -0.488 OA
ATOM     25  C   UNL     1       1.650  -3.865   1.413  0.00  0.00    +0.277 C 
ENDBRANCH  21  24
BRANCH  20  26
ATOM     26  O   UNL     1       2.663  -4.588  -1.722  0.00  0.00    -0.491 OA
ATOM     27  C   UNL     1       2.533  -5.013  -3.080  0.00  0.00    +0.277 C 
ENDBRANCH  20  26
ENDBRANCH  12  18
ENDBRANCH  11  13
ENDBRANCH   1  11
BRANCH   9  28
ATOM     28  S   UNL     1       6.989   0.346  -7.246  0.00  0.00    -0.096 S 
BRANCH  28  29
ATOM     29  C   UNL     1       8.225  -0.280  -6.157  0.00  0.00    +0.010 A 
ATOM     30  C   UNL     1       9.321  -0.964  -6.668  0.00  0.00    +0.016 A 
ATOM     31  C   UNL     1      10.288  -1.454  -5.811  0.00  0.00    +0.021 A 
ATOM     32  C   UNL     1      10.166  -1.263  -4.446  0.00  0.00    +0.041 A 
ATOM     33  C   UNL     1       9.075  -0.582  -3.934  0.00  0.00    +0.021 A 
ATOM     34  C   UNL     1       8.108  -0.085  -4.786  0.00  0.00    +0.016 A 
ATOM     35 CL   UNL     1      11.383  -1.880  -3.373  0.00  0.00    -0.084 Cl
ENDBRANCH  28  29
ENDBRANCH   9  28
TORSDOF 8
