REMARK  Name = ZINC35727749
REMARK  15 active torsions:
REMARK  status: ('A' for Active; 'I' for Inactive)
REMARK    1  A    between atoms: C_1  and  C_2
REMARK    2  A    between atoms: C_2  and  N_3
REMARK    3  A    between atoms: N_3  and  C_4
REMARK    4  A    between atoms: N_3  and  C_6
REMARK    5  A    between atoms: C_4  and  C_5
REMARK    6  A    between atoms: C_6  and  C_7
REMARK    7  A    between atoms: C_7  and  C_8
REMARK    8  A    between atoms: C_8  and  C_9
REMARK    9  A    between atoms: C_9  and  C_11
REMARK   10  A    between atoms: C_9  and  N_12
REMARK   11  A    between atoms: C_13  and  C_15
REMARK   12  A    between atoms: C_15  and  S_16
REMARK   13  A    between atoms: S_16  and  C_17
REMARK   14  A    between atoms: C_28  and  C_31
REMARK   15  A    between atoms: C_32  and  C_34
REMARK                            x       y       z     vdW  Elec       q    Type
REMARK                         _______ _______ _______ _____ _____    ______ ____
ROOT
ATOM      1  C   UNL     1      -2.018  -1.327   9.858  0.00  0.00    +0.192 A 
ATOM      2  N   UNL     1      -1.638  -0.946  11.069  0.00  0.00    -0.207 NA
ATOM      3  C   UNL     1      -2.502  -0.375  11.902  0.00  0.00    +0.127 A 
ATOM      4  C   UNL     1      -3.820  -0.180  11.483  0.00  0.00    +0.083 A 
ATOM      5  C   UNL     1      -4.175  -0.592  10.211  0.00  0.00    +0.135 A 
ATOM      6  N   UNL     1      -3.260  -1.151   9.431  0.00  0.00    -0.210 NA
ATOM      7 CL   UNL     1      -5.800  -0.373   9.640  0.00  0.00    -0.062 Cl
ATOM      8  N   UNL     1      -2.102   0.022  13.168  0.00  0.00    -0.312 N 
ATOM      9  C   UNL     1      -0.677   0.042  13.529  0.00  0.00    +0.125 C 
ATOM     10  C   UNL     1      -0.479  -0.811  14.788  0.00  0.00    +0.127 C 
ATOM     11  N   UNL     1      -1.471  -0.403  15.793  0.00  0.00    -0.295 N 
ATOM     12  C   UNL     1      -2.895  -0.424  15.431  0.00  0.00    +0.090 C 
ATOM     13  C   UNL     1      -3.093   0.435  14.171  0.00  0.00    +0.128 C 
ATOM     14  C   UNL     1      -3.334  -1.863  15.155  0.00  0.00    +0.029 C 
ATOM     15  C   UNL     1      -1.081  -0.018  17.024  0.00  0.00    +0.219 C 
ATOM     16  O   UNL     1      -1.909   0.317  17.845  0.00  0.00    -0.275 OA
ENDROOT
BRANCH  15  17
ATOM     17  C   UNL     1       0.383  -0.002  17.381  0.00  0.00    +0.075 C 
ATOM     18  C   UNL     1       0.872  -1.030  18.403  0.00  0.00    +0.013 C 
ATOM     19  C   UNL     1       0.761   0.446  18.794  0.00  0.00    +0.013 C 
ENDBRANCH  15  17
BRANCH   1  20
ATOM     20  S   UNL     1      -0.840  -2.081   8.786  0.00  0.00    -0.077 S 
BRANCH  20  21
ATOM     21  C   UNL     1      -1.779  -2.420   7.271  0.00  0.00    +0.173 C 
BRANCH  21  23
ATOM     22  N   UNL     1      -1.361  -3.418   5.047  0.00  0.00    -0.312 N 
ATOM     23  C   UNL     1      -0.877  -3.074   6.257  0.00  0.00    +0.224 C 
ATOM     24  O   UNL     1       0.285  -3.289   6.529  0.00  0.00    -0.275 OA
ATOM     25  H   UNL     1      -2.291  -3.246   4.830  0.00  0.00    +0.149 HD
BRANCH  22  26
ATOM     26  C   UNL     1      -0.484  -4.054   4.061  0.00  0.00    +0.070 C 
ATOM     27  C   UNL     1      -0.443  -5.563   4.312  0.00  0.00    +0.028 C 
BRANCH  26  28
ATOM     28  C   UNL     1      -1.021  -3.785   2.653  0.00  0.00    +0.020 C 
BRANCH  28  29
ATOM     29  C   UNL     1      -0.945  -2.287   2.356  0.00  0.00    -0.017 C 
BRANCH  29  30
ATOM     30  C   UNL     1      -1.482  -2.018   0.949  0.00  0.00    -0.079 C 
BRANCH  30  31
ATOM     31  N   UNL     1      -1.409  -0.579   0.663  0.00  0.00    +0.379 N 
ATOM     32  H   UNL     1      -1.896  -0.068   1.384  0.00  0.00    -0.082 HD
BRANCH  31  34
ATOM     33  C   UNL     1       0.070   1.364   0.475  0.00  0.00    -0.017 C 
ATOM     34  C   UNL     1      -0.002  -0.157   0.630  0.00  0.00    -0.082 C 
ENDBRANCH  31  34
BRANCH  31  35
ATOM     35  C   UNL     1      -2.033  -0.306  -0.638  0.00  0.00    -0.082 C 
ATOM     36  C   UNL     1      -3.530  -0.610  -0.560  0.00  0.00    -0.017 C 
ENDBRANCH  31  35
ENDBRANCH  30  31
ENDBRANCH  29  30
ENDBRANCH  28  29
ENDBRANCH  26  28
ENDBRANCH  22  26
ENDBRANCH  21  23
ENDBRANCH  20  21
ENDBRANCH   1  20
TORSDOF 11
