REMARK  Name = ZINC64701518
REMARK  11 active torsions:
REMARK  status: ('A' for Active; 'I' for Inactive)
REMARK    1  A    between atoms: C_1  and  C_2
REMARK    2  A    between atoms: C_4  and  C_36
REMARK    3  A    between atoms: C_6  and  N_8
REMARK    4  A    between atoms: C_9  and  C_11
REMARK    5  A    between atoms: C_11  and  S_12
REMARK    6  A    between atoms: S_12  and  C_13
REMARK    7  A    between atoms: C_23  and  C_26
REMARK    8  A    between atoms: C_29  and  O_34
REMARK    9  A    between atoms: C_30  and  O_32
REMARK   10  A    between atoms: O_32  and  C_33
REMARK   11  A    between atoms: O_34  and  C_35
REMARK                            x       y       z     vdW  Elec       q    Type
REMARK                         _______ _______ _______ _____ _____    ______ ____
ROOT
ATOM      1  C   UNL     1       0.541  -2.801   7.699  0.00  0.00    +0.269 C 
ATOM      2  N   UNL     1       1.732  -3.657   7.574  0.00  0.00    -0.163 NA
ATOM      3  N   UNL     1       1.786  -4.814   7.997  0.00  0.00    -0.081 NA
ATOM      4  C   UNL     1       0.767  -5.423   8.653  0.00  0.00    +0.272 C 
ATOM      5  O   UNL     1       0.819  -6.589   8.964  0.00  0.00    -0.270 OA
ATOM      6  C   UNL     1      -0.427  -4.574   8.972  0.00  0.00    +0.167 C 
ATOM      7  N   UNL     1      -0.612  -3.678   7.791  0.00  0.00    -0.196 NA
ATOM      8  N   UNL     1      -1.930  -3.118   7.994  0.00  0.00    -0.243 NA
ATOM      9  C   UNL     1      -2.761  -4.289   8.403  0.00  0.00    +0.102 C 
ATOM     10  C   UNL     1      -1.765  -5.314   9.037  0.00  0.00    +0.054 C 
ATOM     11  H   UNL     1      -1.916  -2.414   8.717  0.00  0.00    +0.142 HD
ENDROOT
BRANCH   9  12
ATOM     12  C   UNL     1      -3.787  -3.869   9.424  0.00  0.00    -0.025 A 
ATOM     13  C   UNL     1      -3.453  -2.945  10.397  0.00  0.00    +0.009 A 
ATOM     14  C   UNL     1      -4.390  -2.556  11.336  0.00  0.00    +0.050 A 
ATOM     15  C   UNL     1      -5.667  -3.092  11.304  0.00  0.00    +0.162 A 
ATOM     16  C   UNL     1      -6.003  -4.022  10.324  0.00  0.00    +0.162 A 
ATOM     17  C   UNL     1      -5.061  -4.404   9.383  0.00  0.00    +0.054 A 
BRANCH  16  18
ATOM     18  O   UNL     1      -7.255  -4.551  10.288  0.00  0.00    -0.491 OA
ATOM     19  C   UNL     1      -7.530  -5.499   9.255  0.00  0.00    +0.277 C 
ENDBRANCH  16  18
BRANCH  15  20
ATOM     20  O   UNL     1      -6.590  -2.711  12.227  0.00  0.00    -0.491 OA
ATOM     21  C   UNL     1      -6.174  -1.753  13.203  0.00  0.00    +0.277 C 
ENDBRANCH  15  20
ENDBRANCH   9  12
BRANCH   1  22
ATOM     22  S   UNL     1       0.391  -1.734   6.239  0.00  0.00    -0.107 S 
BRANCH  22  23
ATOM     23  C   UNL     1       0.280  -2.900   4.854  0.00  0.00    +0.168 C 
BRANCH  23  25
ATOM     24  N   UNL     1       0.052  -2.797   2.393  0.00  0.00    -0.285 N 
ATOM     25  C   UNL     1       0.150  -2.134   3.562  0.00  0.00    +0.227 C 
ATOM     26  O   UNL     1       0.134  -0.922   3.575  0.00  0.00    -0.275 OA
ATOM     27  H   UNL     1      -0.012  -3.765   2.388  0.00  0.00    +0.155 HD
BRANCH  24  33
ATOM     28  C   UNL     1      -1.512  -2.365  -2.248  0.00  0.00    +0.044 C 
ATOM     29  C   UNL     1      -0.707  -1.857  -1.080  0.00  0.00    -0.048 A 
ATOM     30  C   UNL     1       0.025  -0.690  -1.201  0.00  0.00    +0.006 A 
ATOM     31  C   UNL     1       0.765  -0.220  -0.131  0.00  0.00    -0.048 A 
ATOM     32  C   UNL     1       0.776  -0.917   1.061  0.00  0.00    +0.026 A 
ATOM     33  C   UNL     1       0.043  -2.089   1.186  0.00  0.00    +0.034 A 
ATOM     34  C   UNL     1      -0.704  -2.555   0.112  0.00  0.00    +0.026 A 
ATOM     35  C   UNL     1       1.561   1.052  -0.268  0.00  0.00    +0.044 C 
ENDBRANCH  24  33
ENDBRANCH  23  25
ENDBRANCH  22  23
ENDBRANCH   1  22
TORSDOF 7
