REMARK  Name = ZINC02886929
REMARK  6 active torsions:
REMARK  status: ('A' for Active; 'I' for Inactive)
REMARK    1  A    between atoms: C_1  and  C_2
REMARK    2  A    between atoms: C_4  and  C_13
REMARK    3  A    between atoms: N_17  and  C_21
REMARK    4  A    between atoms: C_21  and  C_22
REMARK    5  A    between atoms: C_25  and  O_28
REMARK    6  A    between atoms: O_28  and  C_29
REMARK                            x       y       z     vdW  Elec       q    Type
REMARK                         _______ _______ _______ _____ _____    ______ ____
ROOT
ATOM      1  C   UNL     1      -4.928   2.785  -4.177  0.00  0.00    +0.027 C 
ATOM      2  C   UNL     1      -4.182   3.526  -3.306  0.00  0.00    +0.077 C 
ATOM      3  C   UNL     1      -3.570   3.134  -2.025  0.00  0.00    +0.259 C 
ATOM      4  O   UNL     1      -3.683   2.006  -1.581  0.00  0.00    -0.269 OA
ATOM      5  N   UNL     1      -2.891   4.068  -1.380  0.00  0.00    -0.251 N 
ATOM      6  C   UNL     1      -2.772   5.318  -1.872  0.00  0.00    +0.121 C 
ATOM      7  S   UNL     1      -1.948   6.655  -1.191  0.00  0.00    -0.027 S 
ATOM      8  S   UNL     1      -3.679   5.238  -3.408  0.00  0.00    -0.061 S 
ENDROOT
BRANCH   1  11
ATOM      9  C   UNL     1      -5.694   5.762  -5.436  0.00  0.00    +0.057 C 
ATOM     10  C   UNL     1      -4.735   4.651  -5.869  0.00  0.00    +0.201 C 
ATOM     11  C   UNL     1      -5.285   3.319  -5.429  0.00  0.00    -0.006 C 
ATOM     12  C   UNL     1      -6.134   2.638  -6.247  0.00  0.00    +0.018 C 
ATOM     13  C   UNL     1      -6.456   3.234  -7.551  0.00  0.00    +0.017 A 
ATOM     14  C   UNL     1      -7.546   2.795  -8.303  0.00  0.00    +0.011 A 
ATOM     15  C   UNL     1      -7.813   3.385  -9.522  0.00  0.00    +0.001 A 
ATOM     16  C   UNL     1      -7.005   4.405  -9.997  0.00  0.00    +0.004 A 
ATOM     17  C   UNL     1      -5.921   4.848  -9.260  0.00  0.00    +0.046 A 
ATOM     18  C   UNL     1      -5.638   4.269  -8.037  0.00  0.00    +0.128 A 
ATOM     19  O   UNL     1      -4.582   4.680  -7.291  0.00  0.00    -0.484 OA
ENDBRANCH   1  11
BRANCH   5  20
ATOM     20  C   UNL     1      -2.260   3.739  -0.099  0.00  0.00    +0.150 C 
BRANCH  20  21
ATOM     21  C   UNL     1      -0.859   3.238  -0.344  0.00  0.00    -0.029 A 
ATOM     22  C   UNL     1      -0.635   1.888  -0.545  0.00  0.00    +0.009 A 
ATOM     23  C   UNL     1       0.648   1.426  -0.763  0.00  0.00    +0.046 A 
ATOM     24  C   UNL     1       1.711   2.317  -0.793  0.00  0.00    +0.120 A 
ATOM     25  C   UNL     1       1.482   3.672  -0.597  0.00  0.00    +0.046 A 
ATOM     26  C   UNL     1       0.197   4.129  -0.373  0.00  0.00    +0.009 A 
BRANCH  24  27
ATOM     27  O   UNL     1       2.973   1.865  -1.013  0.00  0.00    -0.495 OA
ATOM     28  C   UNL     1       4.018   2.841  -1.029  0.00  0.00    +0.277 C 
ENDBRANCH  24  27
ENDBRANCH  20  21
ENDBRANCH   5  20
TORSDOF 4
