REMARK  Name = ZINC20561187
REMARK  12 active torsions:
REMARK  status: ('A' for Active; 'I' for Inactive)
REMARK    1  A    between atoms: C_1  and  C_2
REMARK    2  A    between atoms: C_7  and  C_25
REMARK    3  A    between atoms: C_9  and  C_13
REMARK    4  A    between atoms: C_10  and  C_12
REMARK    5  A    between atoms: C_13  and  O_15
REMARK    6  A    between atoms: O_15  and  C_16
REMARK    7  A    between atoms: C_16  and  C_17
REMARK    8  A    between atoms: C_17  and  O_18
REMARK    9  A    between atoms: O_18  and  C_19
REMARK   10  A    between atoms: C_32  and  C_34
REMARK   11  A    between atoms: C_34  and  O_36
REMARK   12  A    between atoms: O_36  and  C_37
REMARK                            x       y       z     vdW  Elec       q    Type
REMARK                         _______ _______ _______ _____ _____    ______ ____
ROOT
ATOM      1  C   UNL     1      -1.901  -0.541  -1.686  0.00  0.00    +0.009 C 
ATOM      2  C   UNL     1      -1.267  -0.827  -0.323  0.00  0.00    +0.013 C 
ATOM      3  C   UNL     1      -1.229  -2.337  -0.075  0.00  0.00    +0.055 C 
ATOM      4  C   UNL     1      -0.560  -2.616   1.248  0.00  0.00    +0.016 C 
ATOM      5  C   UNL     1       0.402  -1.798   1.727  0.00  0.00    +0.025 C 
ATOM      6  C   UNL     1       1.067  -2.083   3.050  0.00  0.00    +0.099 C 
ATOM      7  C   UNL     1       0.840  -3.506   3.471  0.00  0.00    +0.066 C 
ATOM      8  C   UNL     1      -0.137  -4.249   2.923  0.00  0.00    +0.016 C 
ATOM      9  N   UNL     1      -0.946  -3.723   1.955  0.00  0.00    -0.321 N 
ATOM     10  C   UNL     1      -0.340  -5.671   3.377  0.00  0.00    +0.061 C 
ATOM     11  C   UNL     1       0.807  -0.658   1.012  0.00  0.00    +0.176 C 
ATOM     12  O   UNL     1       1.688   0.048   1.462  0.00  0.00    -0.291 OA
ATOM     13  C   UNL     1       0.170  -0.295  -0.302  0.00  0.00    +0.171 C 
ATOM     14  H   UNL     1      -1.917  -4.197   1.747  0.00  0.00    +0.152 HD
ENDROOT
BRANCH   6  15
ATOM     15  C   UNL     1       0.499  -1.161   4.098  0.00  0.00    +0.002 A 
ATOM     16  C   UNL     1       1.138  -0.241   4.862  0.00  0.00    +0.012 A 
ATOM     17  C   UNL     1       0.407   0.502   5.769  0.00  0.00    +0.008 A 
ATOM     18  C   UNL     1      -0.928   0.289   5.868  0.00  0.00    +0.045 A 
ATOM     19  S   UNL     1      -1.190  -0.991   4.651  0.00  0.00    -0.101 S 
ENDBRANCH   6  15
BRANCH   7  20
ATOM     20  C   UNL     1       1.670  -4.076   4.464  0.00  0.00    +0.338 C 
ATOM     21  O   UNL     1       2.814  -4.391   4.194  0.00  0.00    -0.245 OA
BRANCH  20  22
ATOM     22  O   UNL     1       1.194  -4.270   5.712  0.00  0.00    -0.458 OA
BRANCH  22  23
ATOM     23  C   UNL     1       2.087  -4.850   6.665  0.00  0.00    +0.273 C 
BRANCH  23  24
ATOM     24  C   UNL     1       1.375  -4.992   8.011  0.00  0.00    +0.270 C 
BRANCH  24  25
ATOM     25  O   UNL     1       0.299  -5.924   7.885  0.00  0.00    -0.489 OA
BRANCH  25  26
ATOM     26  C   UNL     1      -0.441  -6.166   8.999  0.00  0.00    +0.121 A 
ATOM     27  C   UNL     1      -0.135  -5.524  10.190  0.00  0.00    +0.045 A 
ATOM     28  C   UNL     1      -0.892  -5.768  11.319  0.00  0.00    +0.004 A 
ATOM     29  C   UNL     1      -1.948  -6.659  11.266  0.00  0.00    +0.000 A 
ATOM     30  C   UNL     1      -2.251  -7.305  10.082  0.00  0.00    +0.004 A 
ATOM     31  C   UNL     1      -1.500  -7.060   8.948  0.00  0.00    +0.045 A 
ENDBRANCH  25  26
ENDBRANCH  24  25
ENDBRANCH  23  24
ENDBRANCH  22  23
ENDBRANCH  20  22
ENDBRANCH   7  20
BRANCH  13  32
ATOM     32  C   UNL     1       0.155   1.204  -0.459  0.00  0.00    +0.318 C 
ATOM     33  O   UNL     1      -0.895   1.788  -0.581  0.00  0.00    -0.250 OA
BRANCH  32  34
ATOM     34  O   UNL     1       1.309   1.889  -0.469  0.00  0.00    -0.467 OA
ATOM     35  C   UNL     1       1.219   3.330  -0.624  0.00  0.00    +0.280 C 
ENDBRANCH  32  34
ENDBRANCH  13  32
TORSDOF 9
