REMARK  Name = ZINC02102015
REMARK  10 active torsions:
REMARK  status: ('A' for Active; 'I' for Inactive)
REMARK    1  A    between atoms: C_10  and  C_12
REMARK    2  A    between atoms: C_12  and  N_60
REMARK    3  A    between atoms: C_13  and  C_14
REMARK    4  A    between atoms: C_13  and  N_60
REMARK    5  A    between atoms: C_14  and  C_15
REMARK    6  A    between atoms: C_15  and  C_16
REMARK    7  A    between atoms: C_16  and  C_17
REMARK    8  A    between atoms: C_17  and  N_63
REMARK    9  A    between atoms: C_18  and  C_19
REMARK   10  A    between atoms: C_18  and  N_63
REMARK                            x       y       z     vdW  Elec       q    Type
REMARK                         _______ _______ _______ _____ _____    ______ ____
ROOT
ATOM      1  C   UNL     1      -8.083   3.277  -2.778  0.00  0.00    -0.004 C 
ENDROOT
BRANCH   1   2
ATOM      2  C   UNL     1      -7.105   3.935  -1.802  0.00  0.00    -0.019 C 
BRANCH   2   3
ATOM      3  C   UNL     1      -5.764   3.200  -1.851  0.00  0.00    -0.082 C 
BRANCH   3   4
ATOM      4  N   UNL     1      -4.828   3.841  -0.907  0.00  0.00    +0.381 N 
ATOM      5  H   UNL     1      -4.697   4.824  -1.175  0.00  0.00    -0.086 HD
ATOM      6  H   UNL     1      -5.218   3.793   0.041  0.00  0.00    -0.086 HD
BRANCH   4   7
ATOM      7  C   UNL     1      -3.524   3.152  -0.933  0.00  0.00    -0.046 C 
BRANCH   7  17
ATOM      8  C   UNL     1       1.175   1.784   0.000  0.00  0.00    +0.000 A 
ATOM      9  C   UNL     1      -0.013   1.076   0.008  0.00  0.00    +0.000 A 
ATOM     10  C   UNL     1      -1.217   1.751   0.017  0.00  0.00    +0.006 A 
ATOM     11  C   UNL     1      -1.242   3.137   0.030  0.00  0.00    -0.017 A 
ATOM     12  C   UNL     1      -0.057   3.843   0.019  0.00  0.00    -0.040 A 
ATOM     13  C   UNL     1       1.151   3.165   0.006  0.00  0.00    +0.004 A 
ATOM     14  C   UNL     1      -0.043   5.351   0.013  0.00  0.00    +0.063 C 
ATOM     15  C   UNL     1      -1.411   5.883   0.444  0.00  0.00    +0.165 C 
ATOM     16  O   UNL     1      -2.421   5.207  -0.314  0.00  0.00    -0.374 OA
ATOM     17  C   UNL     1      -2.575   3.837   0.053  0.00  0.00    +0.132 C 
ENDBRANCH   7  17
ENDBRANCH   4   7
ENDBRANCH   3   4
ENDBRANCH   2   3
ENDBRANCH   1   2
BRANCH   1  18
ATOM     18  C   UNL     1      -9.424   4.011  -2.729  0.00  0.00    -0.019 C 
BRANCH  18  19
ATOM     19  C   UNL     1     -10.402   3.353  -3.705  0.00  0.00    -0.082 C 
BRANCH  19  20
ATOM     20  N   UNL     1     -11.691   4.066  -3.652  0.00  0.00    +0.381 N 
ATOM     21  H   UNL     1     -11.546   5.049  -3.914  0.00  0.00    -0.086 HD
ATOM     22  H   UNL     1     -12.066   4.018  -2.698  0.00  0.00    -0.086 HD
BRANCH  20  23
ATOM     23  C   UNL     1     -12.655   3.452  -4.585  0.00  0.00    -0.046 C 
BRANCH  23  24
ATOM     24  C   UNL     1     -13.981   4.212  -4.509  0.00  0.00    +0.132 C 
ATOM     25  C   UNL     1     -14.963   3.600  -5.474  0.00  0.00    -0.017 A 
ATOM     26  C   UNL     1     -14.526   3.268  -6.747  0.00  0.00    +0.006 A 
ATOM     27  C   UNL     1     -15.399   2.710  -7.660  0.00  0.00    +0.000 A 
ATOM     28  C   UNL     1     -16.715   2.481  -7.303  0.00  0.00    +0.000 A 
ATOM     29  C   UNL     1     -17.151   2.809  -6.035  0.00  0.00    +0.004 A 
ATOM     30  C   UNL     1     -16.275   3.368  -5.118  0.00  0.00    -0.040 A 
ATOM     31  C   UNL     1     -16.786   3.710  -3.741  0.00  0.00    +0.063 C 
ATOM     32  C   UNL     1     -15.815   4.670  -3.053  0.00  0.00    +0.165 C 
ATOM     33  O   UNL     1     -14.489   4.142  -3.177  0.00  0.00    -0.374 OA
ENDBRANCH  23  24
ENDBRANCH  20  23
ENDBRANCH  19  20
ENDBRANCH  18  19
ENDBRANCH   1  18
TORSDOF 10
