REMARK  Name = ZINC59146629
REMARK  11 active torsions:
REMARK  status: ('A' for Active; 'I' for Inactive)
REMARK    1  A    between atoms: C_1  and  C_2
REMARK    2  A    between atoms: C_5  and  N_8
REMARK    3  A    between atoms: C_9  and  C_11
REMARK    4  A    between atoms: C_11  and  N_12
REMARK    5  A    between atoms: N_20  and  N_21
REMARK    6  A    between atoms: C_22  and  C_24
REMARK    7  A    between atoms: C_24  and  C_26
REMARK    8  A    between atoms: C_24  and  N_30
REMARK    9  A    between atoms: C_26  and  C_27
REMARK   10  A    between atoms: C_27  and  C_28
REMARK   11  A    between atoms: C_27  and  C_29
REMARK                            x       y       z     vdW  Elec       q    Type
REMARK                         _______ _______ _______ _____ _____    ______ ____
ROOT
ATOM      1  N   UNL     1       0.420  -6.845   2.495  0.00  0.00    -0.257 N 
ATOM      2  C   UNL     1       1.622  -7.002   3.177  0.00  0.00    +0.047 A 
ATOM      3  C   UNL     1       2.938  -6.763   2.796  0.00  0.00    +0.024 A 
ATOM      4  C   UNL     1       3.970  -7.008   3.678  0.00  0.00    +0.002 A 
ATOM      5  C   UNL     1       3.711  -7.493   4.949  0.00  0.00    +0.001 A 
ATOM      6  C   UNL     1       2.412  -7.737   5.345  0.00  0.00    +0.012 A 
ATOM      7  C   UNL     1       1.365  -7.494   4.463  0.00  0.00    +0.028 A 
ATOM      8  C   UNL     1      -0.105  -7.645   4.567  0.00  0.00    +0.153 C 
ATOM      9  N   UNL     1      -0.793  -8.074   5.597  0.00  0.00    -0.175 NA
ATOM     10  C   UNL     1      -0.628  -7.199   3.259  0.00  0.00    +0.272 C 
ATOM     11  O   UNL     1      -1.799  -7.162   2.930  0.00  0.00    -0.268 OA
ENDROOT
BRANCH   9  12
ATOM     12  N   UNL     1      -2.190  -8.155   5.523  0.00  0.00    -0.208 N 
ATOM     13  C   UNL     1      -2.897  -8.596   6.582  0.00  0.00    +0.218 C 
ATOM     14  O   UNL     1      -2.324  -8.925   7.599  0.00  0.00    -0.276 OA
ATOM     15  H   UNL     1      -2.648  -7.892   4.709  0.00  0.00    +0.177 HD
BRANCH  13  16
ATOM     16  C   UNL     1      -4.399  -8.682   6.502  0.00  0.00    +0.015 C 
BRANCH  16  17
ATOM     17  N   UNL     1      -4.892  -9.604   7.534  0.00  0.00    +0.386 N 
ATOM     18  H   UNL     1      -4.623  -9.264   8.445  0.00  0.00    -0.089 HD
ATOM     19  H   UNL     1      -5.898  -9.662   7.481  0.00  0.00    -0.089 HD
ATOM     20  H   UNL     1      -4.494 -10.519   7.386  0.00  0.00    -0.089 HD
ENDBRANCH  16  17
BRANCH  16  21
ATOM     21  C   UNL     1      -5.002  -7.295   6.727  0.00  0.00    -0.004 C 
BRANCH  21  22
ATOM     22  C   UNL     1      -6.517  -7.357   6.523  0.00  0.00    -0.018 C 
ATOM     23  C   UNL     1      -7.135  -6.001   6.869  0.00  0.00    +0.007 C 
ATOM     24  C   UNL     1      -6.821  -7.699   5.063  0.00  0.00    +0.007 C 
ENDBRANCH  21  22
ENDBRANCH  16  21
ENDBRANCH  13  16
ENDBRANCH   9  12
BRANCH   1  25
ATOM     25  C   UNL     1       0.309  -6.349   1.121  0.00  0.00    +0.210 C 
BRANCH  25  27
ATOM     26  N   UNL     1       0.059  -4.170  -0.021  0.00  0.00    -0.284 N 
ATOM     27  C   UNL     1       0.175  -4.848   1.138  0.00  0.00    +0.235 C 
ATOM     28  O   UNL     1       0.173  -4.251   2.193  0.00  0.00    -0.274 OA
ATOM     29  H   UNL     1      -0.017  -4.651  -0.860  0.00  0.00    +0.155 HD
BRANCH  26  34
ATOM     30  C   UNL     1       0.008   1.503   0.007  0.00  0.00    +0.044 C 
ATOM     31  C   UNL     1       0.022  -0.004  -0.001  0.00  0.00    -0.050 A 
ATOM     32  C   UNL     1       0.777  -0.692   0.931  0.00  0.00    +0.005 A 
ATOM     33  C   UNL     1       0.791  -2.073   0.927  0.00  0.00    +0.023 A 
ATOM     34  C   UNL     1       0.046  -2.771  -0.014  0.00  0.00    +0.033 A 
ATOM     35  C   UNL     1      -0.712  -2.077  -0.948  0.00  0.00    +0.023 A 
ATOM     36  C   UNL     1      -0.726  -0.696  -0.936  0.00  0.00    +0.005 A 
ENDBRANCH  26  34
ENDBRANCH  25  27
ENDBRANCH   1  25
TORSDOF 8
