REMARK  Name = ZINC04106552
REMARK  7 active torsions:
REMARK  status: ('A' for Active; 'I' for Inactive)
REMARK    1  A    between atoms: C_1  and  C_2
REMARK    2  A    between atoms: C_8  and  N_10
REMARK    3  A    between atoms: C_11  and  C_13
REMARK    4  A    between atoms: C_13  and  C_31
REMARK    5  A    between atoms: C_14  and  C_15
REMARK    6  A    between atoms: N_17  and  C_24
REMARK    7  A    between atoms: C_24  and  C_25
REMARK                            x       y       z     vdW  Elec       q    Type
REMARK                         _______ _______ _______ _____ _____    ______ ____
ROOT
ATOM      1  C   UNL     1       1.298   1.567  -0.187  0.00  0.00    +0.002 A 
ATOM      2  C   UNL     1       1.682   2.597  -1.026  0.00  0.00    +0.095 A 
ATOM      3  N   UNL     1       3.014   2.777  -0.937  0.00  0.00    -0.342 N 
ATOM      4  C   UNL     1       3.571   1.877  -0.051  0.00  0.00    +0.050 A 
ATOM      5  C   UNL     1       2.533   1.081   0.458  0.00  0.00    +0.007 A 
ATOM      6  C   UNL     1       2.810   0.079   1.383  0.00  0.00    +0.010 A 
ATOM      7  C   UNL     1       4.109  -0.129   1.796  0.00  0.00    +0.001 A 
ATOM      8  C   UNL     1       5.136   0.655   1.293  0.00  0.00    +0.002 A 
ATOM      9  C   UNL     1       4.875   1.651   0.377  0.00  0.00    +0.026 A 
ENDROOT
BRANCH   1  11
ATOM     10  C   UNL     1      -1.102   1.835  -0.383  0.00  0.00    +0.114 C 
ATOM     11  C   UNL     1      -0.013   1.076   0.008  0.00  0.00    +0.034 C 
BRANCH  10  13
ATOM     12  N   UNL     1      -3.514   2.001  -0.710  0.00  0.00    -0.308 N 
ATOM     13  C   UNL     1      -2.453   1.262  -0.330  0.00  0.00    +0.255 C 
ATOM     14  O   UNL     1      -2.615   0.120   0.057  0.00  0.00    -0.269 OA
ATOM     15  H   UNL     1      -3.385   2.912  -1.019  0.00  0.00    +0.149 HD
BRANCH  12  22
ATOM     16  C   UNL     1      -5.189   1.980  -3.072  0.00  0.00    +0.009 C 
ATOM     17  C   UNL     1      -5.761   2.150  -1.663  0.00  0.00    +0.006 C 
ATOM     18  C   UNL     1      -5.824   3.639  -1.316  0.00  0.00    +0.005 C 
ATOM     19  C   UNL     1      -6.396   3.810   0.093  0.00  0.00    +0.000 C 
ATOM     20  C   UNL     1      -5.497   3.089   1.099  0.00  0.00    +0.002 C 
ATOM     21  C   UNL     1      -5.433   1.600   0.752  0.00  0.00    +0.022 C 
ATOM     22  C   UNL     1      -4.862   1.429  -0.657  0.00  0.00    +0.076 C 
ENDBRANCH  12  22
ENDBRANCH  10  13
BRANCH  10  23
ATOM     23  C   UNL     1      -0.912   3.179  -0.838  0.00  0.00    +0.104 C 
ATOM     24  N   UNL     1      -0.761   4.245  -1.200  0.00  0.00    -0.191 NA
ENDBRANCH  10  23
ENDBRANCH   1  11
BRANCH   3  25
ATOM     25  C   UNL     1       3.769   3.786  -1.684  0.00  0.00    +0.157 C 
BRANCH  25  26
ATOM     26  C   UNL     1       4.321   3.170  -2.944  0.00  0.00    -0.028 A 
ATOM     27  C   UNL     1       5.573   2.583  -2.934  0.00  0.00    +0.005 A 
ATOM     28  C   UNL     1       6.077   2.013  -4.088  0.00  0.00    +0.000 A 
ATOM     29  C   UNL     1       5.335   2.040  -5.254  0.00  0.00    +0.000 A 
ATOM     30  C   UNL     1       4.086   2.632  -5.265  0.00  0.00    +0.000 A 
ATOM     31  C   UNL     1       3.579   3.197  -4.109  0.00  0.00    +0.005 A 
ENDBRANCH  25  26
ENDBRANCH   3  25
TORSDOF 6
