REMARK  Name = ZINC63830578
REMARK  7 active torsions:
REMARK  status: ('A' for Active; 'I' for Inactive)
REMARK    1  A    between atoms: C_1  and  C_2
REMARK    2  A    between atoms: C_2  and  C_4
REMARK    3  A    between atoms: C_2  and  N_11
REMARK    4  A    between atoms: N_11  and  C_12
REMARK    5  A    between atoms: C_12  and  C_13
REMARK    6  A    between atoms: C_13  and  C_15
REMARK    7  A    between atoms: C_13  and  C_22
REMARK                            x       y       z     vdW  Elec       q    Type
REMARK                         _______ _______ _______ _____ _____    ______ ____
ROOT
ATOM      1  C   UNL     1      -3.392  -1.054  -1.214  0.00  0.00    +0.032 C 
ENDROOT
BRANCH   1   2
ATOM      2  C   UNL     1      -4.122  -0.747  -2.496  0.00  0.00    -0.036 C 
ATOM      3  C   UNL     1      -4.524  -1.634  -3.435  0.00  0.00    -0.001 A 
ATOM      4  C   UNL     1      -4.406  -3.093  -3.540  0.00  0.00    +0.010 A 
ATOM      5  C   UNL     1      -4.919  -3.716  -4.626  0.00  0.00    +0.001 A 
ATOM      6  C   UNL     1      -5.558  -3.005  -5.651  0.00  0.00    +0.002 A 
ATOM      7  C   UNL     1      -5.704  -1.663  -5.625  0.00  0.00    +0.026 A 
ATOM      8  C   UNL     1      -5.204  -0.906  -4.531  0.00  0.00    +0.043 A 
ATOM      9  N   UNL     1      -5.221   0.381  -4.279  0.00  0.00    -0.380 N 
ATOM     10  C   UNL     1      -4.558   0.614  -2.991  0.00  0.00    +0.145 C 
ATOM     11  H   UNL     1      -5.609   1.064  -4.847  0.00  0.00    +0.160 HD
ENDBRANCH   1   2
BRANCH   1  12
ATOM     12  C   UNL     1      -4.223  -0.599  -0.042  0.00  0.00    -0.024 A 
ATOM     13  C   UNL     1      -4.576   0.732   0.080  0.00  0.00    +0.005 A 
ATOM     14  C   UNL     1      -5.338   1.149   1.155  0.00  0.00    +0.000 A 
ATOM     15  C   UNL     1      -5.747   0.236   2.109  0.00  0.00    +0.001 A 
ATOM     16  C   UNL     1      -5.395  -1.095   1.988  0.00  0.00    +0.020 A 
ATOM     17  C   UNL     1      -4.637  -1.514   0.909  0.00  0.00    +0.045 A 
ATOM     18 CL   UNL     1      -4.199  -3.187   0.753  0.00  0.00    -0.083 Cl
ENDBRANCH   1  12
BRANCH   1  19
ATOM     19  C   UNL     1      -2.050  -0.320  -1.203  0.00  0.00    -0.069 C 
BRANCH  19  20
ATOM     20  N   UNL     1      -1.287  -0.713  -0.011  0.00  0.00    +0.387 N 
ATOM     21  H   UNL     1      -1.125  -1.709  -0.027  0.00  0.00    -0.085 HD
ATOM     22  H   UNL     1      -1.809  -0.470   0.818  0.00  0.00    -0.085 HD
BRANCH  20  24
ATOM     23  C   UNL     1      -0.239   1.495   0.151  0.00  0.00    -0.004 C 
ATOM     24  C   UNL     1       0.002  -0.008   0.000  0.00  0.00    +0.013 C 
BRANCH  24  25
ATOM     25  C   UNL     1       0.835  -0.501   1.155  0.00  0.00    +0.201 C 
ATOM     26  O   UNL     1       0.295  -0.969   2.136  0.00  0.00    -0.277 OA
ATOM     27  N   UNL     1       2.179  -0.423   1.099  0.00  0.00    -0.303 N 
ATOM     28  C   UNL     1       2.956   0.221   0.030  0.00  0.00    +0.108 C 
ATOM     29  C   UNL     1       4.449   0.042   0.377  0.00  0.00    +0.020 C 
ATOM     30  C   UNL     1       4.440  -1.183   1.329  0.00  0.00    +0.020 C 
ATOM     31  C   UNL     1       3.114  -0.963   2.103  0.00  0.00    +0.108 C 
ENDBRANCH  24  25
ENDBRANCH  20  24
ENDBRANCH  19  20
ENDBRANCH   1  19
TORSDOF 6
