REMARK  Name = ZINC36178015
REMARK  6 active torsions:
REMARK  status: ('A' for Active; 'I' for Inactive)
REMARK    1  A    between atoms: C_1  and  N_2
REMARK    2  A    between atoms: C_13  and  N_17
REMARK    3  A    between atoms: C_18  and  C_20
REMARK    4  A    between atoms: C_20  and  N_21
REMARK    5  A    between atoms: C_35  and  O_37
REMARK    6  A    between atoms: O_37  and  C_38
REMARK                            x       y       z     vdW  Elec       q    Type
REMARK                         _______ _______ _______ _____ _____    ______ ____
ROOT
ATOM      1  N   UNL     1       1.684   2.666   6.026  0.00  0.00    -0.284 N 
ATOM      2  C   UNL     1       0.946   3.478   6.808  0.00  0.00    +0.237 C 
ATOM      3  O   UNL     1      -0.262   3.371   6.824  0.00  0.00    -0.274 OA
ATOM      4  H   UNL     1       2.653   2.700   6.069  0.00  0.00    +0.155 HD
ENDROOT
BRANCH   1  17
ATOM      5  C   UNL     1       1.823  -0.395   0.683  0.00  0.00    +0.134 C 
ATOM      6  N   UNL     1       1.264  -1.691   1.077  0.00  0.00    -0.273 N 
ATOM      7  C   UNL     1       1.295  -2.838   0.366  0.00  0.00    +0.309 C 
ATOM      8  O   UNL     1       1.810  -2.941  -0.730  0.00  0.00    -0.252 OA
ATOM      9  N   UNL     1       0.693  -3.850   1.006  0.00  0.00    -0.238 N 
ATOM     10  C   UNL     1       0.206  -3.460   2.205  0.00  0.00    +0.245 C 
ATOM     11  O   UNL     1      -0.389  -4.139   3.015  0.00  0.00    -0.273 OA
ATOM     12  C   UNL     1       0.567  -2.006   2.320  0.00  0.00    +0.123 C 
ATOM     13  C   UNL     1      -0.668  -1.125   2.529  0.00  0.00    +0.071 C 
ATOM     14  C   UNL     1      -0.194   0.004   3.423  0.00  0.00    -0.041 A 
ATOM     15  C   UNL     1      -0.772   1.234   3.696  0.00  0.00    +0.006 A 
ATOM     16  C   UNL     1      -0.153   2.118   4.557  0.00  0.00    +0.023 A 
ATOM     17  C   UNL     1       1.054   1.774   5.152  0.00  0.00    +0.034 A 
ATOM     18  C   UNL     1       1.632   0.543   4.877  0.00  0.00    +0.027 A 
ATOM     19  C   UNL     1       1.009  -0.340   4.013  0.00  0.00    -0.040 A 
ATOM     20  C   UNL     1       1.429  -1.722   3.553  0.00  0.00    +0.071 C 
ATOM     21  H   UNL     1       0.617  -4.750   0.652  0.00  0.00    +0.159 HD
ENDBRANCH   1  17
BRANCH   2  22
ATOM     22  C   UNL     1       1.621   4.520   7.663  0.00  0.00    +0.223 C 
BRANCH  22  23
ATOM     23  N   UNL     1       0.609   5.267   8.413  0.00  0.00    -0.283 N 
ATOM     24  C   UNL     1      -0.036   6.424   7.982  0.00  0.00    +0.071 A 
ATOM     25  C   UNL     1       0.048   7.185   6.826  0.00  0.00    +0.028 A 
ATOM     26  C   UNL     1      -0.741   8.311   6.685  0.00  0.00    +0.002 A 
ATOM     27  C   UNL     1      -1.613   8.683   7.694  0.00  0.00    +0.002 A 
ATOM     28  C   UNL     1      -1.702   7.931   8.849  0.00  0.00    +0.028 A 
ATOM     29  C   UNL     1      -0.916   6.799   8.999  0.00  0.00    +0.076 A 
ATOM     30  N   UNL     1      -0.778   5.857  10.018  0.00  0.00    -0.244 N 
ATOM     31  C   UNL     1       0.139   4.949   9.634  0.00  0.00    +0.336 A 
ATOM     32  O   UNL     1       0.491   3.988  10.292  0.00  0.00    -0.246 OA
ATOM     33  C   UNL     1      -1.476   5.853  11.226  0.00  0.00    +0.146 A 
ATOM     34  C   UNL     1      -0.948   6.515  12.327  0.00  0.00    +0.047 A 
ATOM     35  C   UNL     1      -1.648   6.505  13.522  0.00  0.00    +0.009 A 
ATOM     36  C   UNL     1      -2.858   5.831  13.576  0.00  0.00    +0.067 A 
ATOM     37  C   UNL     1      -3.328   5.190  12.439  0.00  0.00    +0.216 A 
ATOM     38  N   UNL     1      -2.637   5.223  11.310  0.00  0.00    -0.195 NA
BRANCH  37  39
ATOM     39  O   UNL     1      -4.511   4.527  12.482  0.00  0.00    -0.480 OA
ATOM     40  C   UNL     1      -4.941   3.888  11.279  0.00  0.00    +0.279 C 
ENDBRANCH  37  39
ENDBRANCH  22  23
ENDBRANCH   2  22
TORSDOF 4
