REMARK  Name = ZINC36147161
REMARK  12 active torsions:
REMARK  status: ('A' for Active; 'I' for Inactive)
REMARK    1  A    between atoms: C_4  and  C_7
REMARK    2  A    between atoms: C_10  and  C_13
REMARK    3  A    between atoms: C_13  and  N_14
REMARK    4  A    between atoms: N_14  and  C_15
REMARK    5  A    between atoms: N_14  and  C_23
REMARK    6  A    between atoms: C_15  and  C_16
REMARK    7  A    between atoms: C_23  and  C_24
REMARK    8  A    between atoms: C_24  and  C_26
REMARK    9  A    between atoms: C_24  and  O_34
REMARK   10  A    between atoms: C_26  and  O_27
REMARK   11  A    between atoms: O_27  and  C_28
REMARK   12  A    between atoms: C_28  and  C_29
REMARK                            x       y       z     vdW  Elec       q    Type
REMARK                         _______ _______ _______ _____ _____    ______ ____
ROOT
ATOM      1  N   UNL     1       7.537  -3.547   0.005  0.00  0.00    +0.387 N 
ATOM      2  H   UNL     1       7.431  -3.477  -0.996  0.00  0.00    -0.081 HD
ENDROOT
BRANCH   1   3
ATOM      3  C   UNL     1       6.228  -3.375   0.649  0.00  0.00    -0.030 C 
BRANCH   3   7
ATOM      4  C   UNL     1       4.151  -0.369   0.980  0.00  0.00    +0.091 C 
ATOM      5  N   UNL     1       5.349   0.088   0.831  0.00  0.00    -0.089 NA
ATOM      6  O   UNL     1       6.295  -0.928   0.560  0.00  0.00    -0.392 OA
ATOM      7  C   UNL     1       5.567  -2.097   0.130  0.00  0.00    +0.194 C 
ATOM      8  C   UNL     1       4.191  -1.875   0.803  0.00  0.00    +0.104 C 
BRANCH   4  12
ATOM      9  C   UNL     1       0.696   1.947   1.835  0.00  0.00    +0.000 A 
ATOM     10  C   UNL     1       1.924   2.568   1.694  0.00  0.00    +0.001 A 
ATOM     11  C   UNL     1       3.051   1.822   1.417  0.00  0.00    +0.010 A 
ATOM     12  C   UNL     1       2.950   0.436   1.278  0.00  0.00    -0.000 A 
ATOM     13  C   UNL     1       1.708  -0.184   1.421  0.00  0.00    +0.010 A 
ATOM     14  C   UNL     1       0.589   0.574   1.698  0.00  0.00    +0.001 A 
ENDBRANCH   4  12
ENDBRANCH   3   7
ENDBRANCH   1   3
BRANCH   1  15
ATOM     15  C   UNL     1       8.455  -2.499   0.474  0.00  0.00    -0.043 C 
BRANCH  15  16
ATOM     16  C   UNL     1       8.675  -2.652   1.957  0.00  0.00    -0.063 A 
ATOM     17  C   UNL     1       7.799  -2.063   2.850  0.00  0.00    +0.002 A 
ATOM     18  C   UNL     1       8.001  -2.202   4.210  0.00  0.00    +0.002 A 
ATOM     19  C   UNL     1       9.079  -2.930   4.678  0.00  0.00    +0.020 A 
ATOM     20  C   UNL     1       9.956  -3.519   3.785  0.00  0.00    +0.041 A 
ATOM     21  C   UNL     1       9.750  -3.384   2.424  0.00  0.00    +0.021 A 
ATOM     22 CL   UNL     1      11.310  -4.433   4.373  0.00  0.00    -0.084 Cl
ENDBRANCH  15  16
ENDBRANCH   1  15
BRANCH   1  23
ATOM     23  C   UNL     1       8.084  -4.866   0.349  0.00  0.00    -0.044 C 
BRANCH  23  24
ATOM     24  C   UNL     1       9.371  -5.107  -0.442  0.00  0.00    +0.124 C 
BRANCH  24  25
ATOM     25  O   UNL     1       9.084  -5.068  -1.841  0.00  0.00    -0.391 OA
ATOM     26  H   UNL     1       8.443  -5.732  -2.130  0.00  0.00    +0.210 HD
ENDBRANCH  24  25
BRANCH  24  27
ATOM     27  C   UNL     1       9.944  -6.478  -0.077  0.00  0.00    +0.189 C 
BRANCH  27  28
ATOM     28  O   UNL     1      11.205  -6.655  -0.727  0.00  0.00    -0.370 OA
BRANCH  28  29
ATOM     29  C   UNL     1      11.829  -7.910  -0.451  0.00  0.00    +0.234 C 
BRANCH  29  30
ATOM     30  C   UNL     1      13.145  -7.989  -1.183  0.00  0.00    +0.130 A 
ATOM     31  C   UNL     1      14.337  -7.594  -0.702  0.00  0.00    +0.047 A 
ATOM     32  C   UNL     1      15.291  -7.846  -1.714  0.00  0.00    +0.041 A 
ATOM     33  C   UNL     1      14.624  -8.380  -2.753  0.00  0.00    +0.195 A 
ATOM     34  O   UNL     1      13.326  -8.470  -2.423  0.00  0.00    -0.465 OA
ENDBRANCH  29  30
ENDBRANCH  28  29
ENDBRANCH  27  28
ENDBRANCH  24  27
ENDBRANCH  23  24
ENDBRANCH   1  23
TORSDOF 12
