REMARK  Name = ZINC45515183
REMARK  6 active torsions:
REMARK  status: ('A' for Active; 'I' for Inactive)
REMARK    1  A    between atoms: C_1  and  C_2
REMARK    2  A    between atoms: C_2  and  N_3
REMARK    3  A    between atoms: N_3  and  C_4
REMARK    4  A    between atoms: C_11  and  C_13
REMARK    5  A    between atoms: C_13  and  N_14
REMARK    6  A    between atoms: C_22  and  C_24
REMARK                            x       y       z     vdW  Elec       q    Type
REMARK                         _______ _______ _______ _____ _____    ______ ____
ROOT
ATOM      1  N   UNL     1      -2.130  -1.226  -3.466  0.00  0.00    -0.215 N 
ATOM      2  C   UNL     1      -2.207  -0.622  -4.670  0.00  0.00    +0.247 C 
ATOM      3  O   UNL     1      -1.815   0.488  -4.960  0.00  0.00    -0.273 OA
ATOM      4  C   UNL     1      -2.884  -1.621  -5.580  0.00  0.00    +0.115 C 
ATOM      5  C   UNL     1      -1.959  -2.004  -6.730  0.00  0.00    +0.035 C 
ATOM      6  C   UNL     1      -1.679  -0.771  -7.593  0.00  0.00    +0.003 C 
ATOM      7  C   UNL     1      -2.999  -0.223  -8.139  0.00  0.00    +0.000 C 
ATOM      8  C   UNL     1      -3.908   0.177  -6.975  0.00  0.00    +0.006 C 
ATOM      9  C   UNL     1      -4.196  -1.052  -6.109  0.00  0.00    +0.018 C 
ATOM     10  C   UNL     1      -5.089  -0.650  -4.934  0.00  0.00    +0.010 C 
ATOM     11  N   UNL     1      -3.136  -2.779  -4.713  0.00  0.00    -0.285 N 
ATOM     12  C   UNL     1      -2.656  -2.457  -3.497  0.00  0.00    +0.310 C 
ATOM     13  O   UNL     1      -2.698  -3.199  -2.535  0.00  0.00    -0.252 OA
ATOM     14  H   UNL     1      -3.562  -3.613  -4.968  0.00  0.00    +0.151 HD
ENDROOT
BRANCH   1  15
ATOM     15  C   UNL     1      -1.538  -0.614  -2.274  0.00  0.00    +0.214 C 
BRANCH  15  17
ATOM     16  N   UNL     1       0.688  -0.476  -1.203  0.00  0.00    -0.270 N 
ATOM     17  C   UNL     1      -0.067  -0.938  -2.220  0.00  0.00    +0.238 C 
ATOM     18  O   UNL     1       0.437  -1.613  -3.092  0.00  0.00    -0.274 OA
BRANCH  16  19
ATOM     19  C   UNL     1       2.071  -0.691  -1.205  0.00  0.00    +0.039 A 
ATOM     20  C   UNL     1       2.872  -0.055  -2.146  0.00  0.00    +0.024 A 
ATOM     21  C   UNL     1       4.236  -0.268  -2.146  0.00  0.00    +0.005 A 
ATOM     22  C   UNL     1       4.807  -1.112  -1.212  0.00  0.00    +0.038 A 
ATOM     23  C   UNL     1       4.012  -1.747  -0.272  0.00  0.00    +0.125 A 
ATOM     24  C   UNL     1       2.645  -1.534  -0.264  0.00  0.00    +0.061 A 
ATOM     25  F   UNL     1       4.572  -2.572   0.640  0.00  0.00    -0.205 F 
ENDBRANCH  16  19
BRANCH  16  27
ATOM     26  C   UNL     1       0.034   1.745  -0.416  0.00  0.00    +0.025 C 
ATOM     27  C   UNL     1       0.061   0.249  -0.096  0.00  0.00    +0.110 C 
ENDBRANCH  16  27
ENDBRANCH  15  17
ENDBRANCH   1  15
TORSDOF 4
