REMARK  Name = ZINC16162735
REMARK  10 active torsions:
REMARK  status: ('A' for Active; 'I' for Inactive)
REMARK    1  A    between atoms: C_1  and  C_2
REMARK    2  A    between atoms: C_2  and  N_3
REMARK    3  A    between atoms: C_4  and  C_28
REMARK    4  A    between atoms: C_6  and  O_27
REMARK    5  A    between atoms: C_7  and  C_10
REMARK    6  A    between atoms: C_10  and  C_16
REMARK    7  A    between atoms: C_17  and  O_26
REMARK    8  A    between atoms: C_19  and  C_25
REMARK    9  A    between atoms: N_20  and  C_23
REMARK   10  A    between atoms: C_23  and  C_24
REMARK                            x       y       z     vdW  Elec       q    Type
REMARK                         _______ _______ _______ _____ _____    ______ ____
ROOT
ATOM      1  C   UNL     1      -2.845   5.833  -0.123  0.00  0.00    +0.038 C 
ATOM      2  C   UNL     1      -2.997   5.854  -1.645  0.00  0.00    +0.017 C 
ATOM      3  C   UNL     1      -4.005   6.933  -2.043  0.00  0.00    +0.001 C 
ATOM      4  C   UNL     1      -3.509   8.297  -1.562  0.00  0.00    +0.000 C 
ATOM      5  C   UNL     1      -3.358   8.277  -0.039  0.00  0.00    +0.001 C 
ATOM      6  C   UNL     1      -2.349   7.198   0.359  0.00  0.00    +0.017 C 
ENDROOT
BRANCH   1  11
ATOM      7  N   UNL     1      -1.200   2.482   0.312  0.00  0.00    -0.312 N 
ATOM      8  C   UNL     1      -0.059   2.807   0.975  0.00  0.00    +0.022 A 
ATOM      9  C   UNL     1       0.217   4.091   1.290  0.00  0.00    +0.067 A 
ATOM     10  C   UNL     1      -0.691   5.109   0.939  0.00  0.00    +0.128 A 
ATOM     11  C   UNL     1      -1.852   4.770   0.269  0.00  0.00    +0.069 A 
ATOM     12  C   UNL     1      -2.092   3.426  -0.040  0.00  0.00    +0.259 A 
ATOM     13  O   UNL     1      -3.113   3.110  -0.631  0.00  0.00    -0.267 OA
ATOM     14  C   UNL     1       0.913   1.721   1.359  0.00  0.00    +0.064 C 
BRANCH   7  16
ATOM     15  C   UNL     1      -0.980   0.789  -1.439  0.00  0.00    +0.027 C 
ATOM     16  C   UNL     1      -1.467   1.080  -0.018  0.00  0.00    +0.122 C 
ENDBRANCH   7  16
BRANCH  10  17
ATOM     17  O   UNL     1      -0.430   6.401   1.252  0.00  0.00    -0.506 OA
ATOM     18  H   UNL     1       0.407   6.531   1.719  0.00  0.00    +0.292 HD
ENDBRANCH  10  17
ENDBRANCH   1  11
BRANCH   1  19
ATOM     19  C   UNL     1      -4.179   5.532   0.510  0.00  0.00    +0.069 A 
ATOM     20  C   UNL     1      -5.220   5.032  -0.252  0.00  0.00    +0.128 A 
ATOM     21  C   UNL     1      -6.454   4.762   0.372  0.00  0.00    +0.067 A 
ATOM     22  C   UNL     1      -6.603   4.992   1.694  0.00  0.00    +0.022 A 
ATOM     23  N   UNL     1      -5.575   5.482   2.437  0.00  0.00    -0.312 N 
ATOM     24  C   UNL     1      -4.380   5.748   1.879  0.00  0.00    +0.259 A 
ATOM     25  O   UNL     1      -3.470   6.184   2.567  0.00  0.00    -0.267 OA
ATOM     26  C   UNL     1      -7.925   4.700   2.356  0.00  0.00    +0.064 C 
BRANCH  23  27
ATOM     27  C   UNL     1      -5.771   5.719   3.869  0.00  0.00    +0.122 C 
ATOM     28  C   UNL     1      -5.400   4.456   4.650  0.00  0.00    +0.027 C 
ENDBRANCH  23  27
BRANCH  20  29
ATOM     29  O   UNL     1      -5.054   4.807  -1.577  0.00  0.00    -0.506 OA
ATOM     30  H   UNL     1      -5.841   4.458  -2.017  0.00  0.00    +0.292 HD
ENDBRANCH  20  29
ENDBRANCH   1  19
TORSDOF 6
