REMARK  Name = ZINC21239563
REMARK  7 active torsions:
REMARK  status: ('A' for Active; 'I' for Inactive)
REMARK    1  A    between atoms: C_1  and  C_2
REMARK    2  A    between atoms: C_2  and  C_3
REMARK    3  A    between atoms: C_2  and  C_4
REMARK    4  A    between atoms: C_4  and  O_5
REMARK    5  A    between atoms: O_5  and  C_6
REMARK    6  A    between atoms: C_9  and  C_12
REMARK    7  A    between atoms: C_17  and  C_23
REMARK                            x       y       z     vdW  Elec       q    Type
REMARK                         _______ _______ _______ _____ _____    ______ ____
ROOT
ATOM      1  C   UNL     1       2.490   1.045  -0.016  0.00  0.00    +0.032 C 
ATOM      2  C   UNL     1       3.288   1.446  -1.259  0.00  0.00    +0.059 C 
ATOM      3  C   UNL     1       4.624   0.745  -1.250  0.00  0.00    +0.018 C 
ATOM      4  C   UNL     1       5.234   0.435  -0.086  0.00  0.00    +0.020 C 
ATOM      5  C   UNL     1       6.577  -0.256  -0.102  0.00  0.00    +0.065 C 
ATOM      6  C   UNL     1       6.637  -1.222  -1.287  0.00  0.00    +0.109 C 
ATOM      7  C   UNL     1       6.169  -0.510  -2.529  0.00  0.00    +0.218 C 
ATOM      8  O   UNL     1       6.657  -0.785  -3.604  0.00  0.00    -0.275 OA
ATOM      9  N   UNL     1       5.211   0.430  -2.448  0.00  0.00    -0.289 N 
ATOM     10  C   UNL     1       4.647   0.742   1.152  0.00  0.00    +0.162 C 
ATOM     11  O   UNL     1       5.233   0.458   2.178  0.00  0.00    -0.292 OA
ATOM     12  C   UNL     1       3.303   1.416   1.228  0.00  0.00    +0.088 C 
ATOM     13  H   UNL     1       4.901   0.950  -3.367  0.00  0.00    +0.155 HD
ENDROOT
BRANCH   5  14
ATOM     14  C   UNL     1       7.671   0.772  -0.237  0.00  0.00    -0.003 A 
ATOM     15  C   UNL     1       7.709   1.600  -1.343  0.00  0.00    +0.022 A 
ATOM     16  C   UNL     1       8.712   2.545  -1.466  0.00  0.00    +0.018 A 
ATOM     17  C   UNL     1       9.678   2.661  -0.482  0.00  0.00    +0.018 A 
ATOM     18  C   UNL     1       9.641   1.834   0.624  0.00  0.00    +0.040 A 
ATOM     19  C   UNL     1       8.634   0.892   0.750  0.00  0.00    +0.127 A 
ATOM     20  F   UNL     1       8.594   0.087   1.834  0.00  0.00    -0.205 F 
ATOM     21 BR   UNL     1       8.763   3.677  -2.980  0.00  0.00    -0.050 Br
ENDBRANCH   5  14
BRANCH   1  25
ATOM     22  C   UNL     1      -1.237   3.137   0.031  0.00  0.00    +0.121 A 
ATOM     23  C   UNL     1      -1.218   1.750   0.017  0.00  0.00    +0.046 A 
ATOM     24  C   UNL     1      -0.013   1.076   0.008  0.00  0.00    +0.007 A 
ATOM     25  C   UNL     1       1.176   1.783   0.000  0.00  0.00    -0.043 A 
ATOM     26  C   UNL     1       1.160   3.165   0.008  0.00  0.00    +0.007 A 
ATOM     27  C   UNL     1      -0.043   3.844   0.024  0.00  0.00    +0.046 A 
BRANCH  22  28
ATOM     28  O   UNL     1      -2.422   3.802   0.045  0.00  0.00    -0.492 OA
BRANCH  28  29
ATOM     29  C   UNL     1      -3.611   3.009   0.052  0.00  0.00    +0.232 C 
BRANCH  29  31
ATOM     30  C   UNL     1      -6.106   3.083  -0.051  0.00  0.00    +0.010 C 
ATOM     31  C   UNL     1      -4.835   3.926   0.068  0.00  0.00    +0.020 C 
ATOM     32  C   UNL     1      -4.866   4.713   1.380  0.00  0.00    +0.010 C 
ENDBRANCH  29  31
ENDBRANCH  28  29
ENDBRANCH  22  28
ENDBRANCH   1  25
TORSDOF 5
