REMARK  Name = ZINC38685143
REMARK  12 active torsions:
REMARK  status: ('A' for Active; 'I' for Inactive)
REMARK    1  A    between atoms: C_1  and  C_2
REMARK    2  A    between atoms: C_2  and  C_3
REMARK    3  A    between atoms: C_3  and  C_4
REMARK    4  A    between atoms: C_4  and  O_5
REMARK    5  A    between atoms: O_5  and  C_6
REMARK    6  A    between atoms: C_10  and  C_12
REMARK    7  A    between atoms: C_17  and  O_26
REMARK    8  A    between atoms: C_21  and  N_25
REMARK    9  A    between atoms: C_22  and  C_23
REMARK   10  A    between atoms: O_26  and  C_27
REMARK   11  A    between atoms: C_27  and  C_29
REMARK   12  A    between atoms: C_34  and  N_35
REMARK                            x       y       z     vdW  Elec       q    Type
REMARK                         _______ _______ _______ _____ _____    ______ ____
ROOT
ATOM      1  C   UNL     1      -5.458  -6.457   0.017  0.00  0.00    +0.098 C 
ATOM      2  C   UNL     1      -5.683  -7.292  -1.216  0.00  0.00    +0.008 A 
ATOM      3  C   UNL     1      -5.979  -6.668  -2.415  0.00  0.00    +0.012 A 
ATOM      4  C   UNL     1      -6.188  -7.417  -3.556  0.00  0.00    +0.047 A 
ATOM      5  C   UNL     1      -6.103  -8.802  -3.502  0.00  0.00    +0.135 A 
ATOM      6  C   UNL     1      -5.808  -9.429  -2.303  0.00  0.00    +0.093 A 
ATOM      7  C   UNL     1      -5.596  -8.674  -1.156  0.00  0.00    +0.138 A 
ATOM      8  O   UNL     1      -5.307  -9.303   0.009  0.00  0.00    -0.441 OA
ATOM      9  C   UNL     1      -5.480  -8.662   1.177  0.00  0.00    +0.199 C 
ATOM     10  C   UNL     1      -5.558  -7.315   1.247  0.00  0.00    +0.098 C 
ENDROOT
BRANCH   1  15
ATOM     11  C   UNL     1      -2.692  -3.885  -0.096  0.00  0.00    +0.121 A 
ATOM     12  C   UNL     1      -1.567  -4.694  -0.162  0.00  0.00    +0.045 A 
ATOM     13  C   UNL     1      -1.706  -6.068  -0.169  0.00  0.00    +0.004 A 
ATOM     14  C   UNL     1      -2.965  -6.638  -0.111  0.00  0.00    +0.005 A 
ATOM     15  C   UNL     1      -4.088  -5.833  -0.046  0.00  0.00    -0.031 A 
ATOM     16  C   UNL     1      -3.954  -4.458  -0.033  0.00  0.00    +0.050 A 
BRANCH  11  17
ATOM     17  O   UNL     1      -2.559  -2.532  -0.089  0.00  0.00    -0.492 OA
BRANCH  17  18
ATOM     18  C   UNL     1      -1.230  -2.011  -0.157  0.00  0.00    +0.229 C 
BRANCH  18  19
ATOM     19  C   UNL     1      -1.279  -0.482  -0.137  0.00  0.00    +0.041 C 
BRANCH  19  21
ATOM     20  C   UNL     1       0.094   1.604  -0.191  0.00  0.00    +0.004 C 
ATOM     21  C   UNL     1       0.143   0.075  -0.210  0.00  0.00    -0.000 C 
ENDBRANCH  19  21
ENDBRANCH  18  19
ENDBRANCH  17  18
ENDBRANCH  11  17
ENDBRANCH   1  15
BRANCH   9  22
ATOM     22  N   UNL     1      -5.578  -9.398   2.332  0.00  0.00    -0.328 N 
ATOM     23  H   UNL     1      -5.523 -10.365   2.297  0.00  0.00    +0.145 HD
ATOM     24  H   UNL     1      -5.702  -8.949   3.184  0.00  0.00    +0.145 HD
ENDBRANCH   9  22
BRANCH  10  25
ATOM     25  C   UNL     1      -5.741  -6.693   2.524  0.00  0.00    +0.101 C 
ATOM     26  N   UNL     1      -5.886  -6.199   3.537  0.00  0.00    -0.191 NA
ENDBRANCH  10  25
BRANCH   5  27
ATOM     27  O   UNL     1      -6.309  -9.540  -4.624  0.00  0.00    -0.422 OA
BRANCH  27  28
ATOM     28  C   UNL     1      -5.419  -9.427  -5.629  0.00  0.00    +0.347 C 
ATOM     29  O   UNL     1      -4.418  -8.755  -5.480  0.00  0.00    -0.244 OA
BRANCH  28  30
ATOM     30  C   UNL     1      -5.660 -10.120  -6.911  0.00  0.00    +0.089 A 
ATOM     31  C   UNL     1      -5.883 -11.498  -6.932  0.00  0.00    +0.017 A 
ATOM     32  C   UNL     1      -6.107 -12.139  -8.132  0.00  0.00    +0.001 A 
ATOM     33  C   UNL     1      -6.112 -11.420  -9.314  0.00  0.00    +0.002 A 
ATOM     34  C   UNL     1      -5.892 -10.054  -9.301  0.00  0.00    +0.033 A 
ATOM     35  C   UNL     1      -5.672  -9.399  -8.106  0.00  0.00    +0.140 A 
BRANCH  35  36
ATOM     36  N   UNL     1      -5.443  -7.937  -8.093  0.00  0.00    +0.057 N 
ATOM     37  O   UNL     1      -5.327  -7.334  -9.134  0.00  0.00    -0.126 OA
ATOM     38  O   UNL     1      -5.372  -7.346  -7.041  0.00  0.00    -0.126 OA
ENDBRANCH  35  36
ENDBRANCH  28  30
ENDBRANCH  27  28
ENDBRANCH   5  27
TORSDOF 11
