REMARK  Name = ZINC32972007
REMARK  15 active torsions:
REMARK  status: ('A' for Active; 'I' for Inactive)
REMARK    1  A    between atoms: C_1  and  C_2
REMARK    2  A    between atoms: C_2  and  C_3
REMARK    3  A    between atoms: C_2  and  C_4
REMARK    4  A    between atoms: C_4  and  N_5
REMARK    5  A    between atoms: C_6  and  N_35
REMARK    6  A    between atoms: C_7  and  N_14
REMARK    7  A    between atoms: N_14  and  C_15
REMARK    8  A    between atoms: C_15  and  C_16
REMARK    9  A    between atoms: C_16  and  C_17
REMARK   10  A    between atoms: C_16  and  C_18
REMARK   11  A    between atoms: C_19  and  C_21
REMARK   12  A    between atoms: C_21  and  N_22
REMARK   13  A    between atoms: N_22  and  C_23
REMARK   14  A    between atoms: C_24  and  C_26
REMARK   15  A    between atoms: C_26  and  C_27
REMARK                            x       y       z     vdW  Elec       q    Type
REMARK                         _______ _______ _______ _____ _____    ______ ____
ROOT
ATOM      1  N   UNL     1      -0.348   1.806  -0.138  0.00  0.00    -0.263 N 
ATOM      2  C   UNL     1      -0.027   0.535  -0.462  0.00  0.00    +0.237 C 
ATOM      3  O   UNL     1       1.035   0.295  -0.997  0.00  0.00    -0.274 OA
ENDROOT
BRANCH   1   6
ATOM      4  N   UNL     1       2.696   3.846   0.125  0.00  0.00    -0.280 N 
ATOM      5  C   UNL     1       1.802   2.822   0.333  0.00  0.00    +0.127 A 
ATOM      6  C   UNL     1       0.591   2.841  -0.330  0.00  0.00    +0.140 A 
ATOM      7  C   UNL     1       0.312   3.908  -1.205  0.00  0.00    +0.277 A 
ATOM      8  O   UNL     1      -0.748   3.947  -1.807  0.00  0.00    -0.266 OA
ATOM      9  N   UNL     1       1.221   4.888  -1.368  0.00  0.00    -0.273 N 
ATOM     10  H   UNL     1       1.007   5.730  -2.043  0.00  0.00    +0.173 HD
ATOM     11  C   UNL     1       2.396   4.854  -0.714  0.00  0.00    +0.331 A 
ATOM     12  O   UNL     1       3.201   5.749  -0.884  0.00  0.00    -0.246 OA
BRANCH   5  13
ATOM     13  N   UNL     1       2.109   1.793   1.190  0.00  0.00    -0.343 N 
ATOM     14  H   UNL     1       1.388   0.978   1.351  0.00  0.00    +0.144 HD
ATOM     15  H   UNL     1       3.075   1.785   1.715  0.00  0.00    +0.144 HD
ENDBRANCH   5  13
BRANCH   4  16
ATOM     16  C   UNL     1       3.985   3.839   0.822  0.00  0.00    +0.131 C 
BRANCH  16  18
ATOM     17  C   UNL     1       5.265   3.880  -1.323  0.00  0.00    +0.009 C 
ATOM     18  C   UNL     1       5.021   3.101  -0.029  0.00  0.00    +0.003 C 
ATOM     19  C   UNL     1       6.332   2.985   0.751  0.00  0.00    +0.009 C 
ENDBRANCH  16  18
ENDBRANCH   4  16
ENDBRANCH   1   6
BRANCH   1  20
ATOM     20  C   UNL     1      -1.673   2.110   0.406  0.00  0.00    +0.117 C 
BRANCH  20  21
ATOM     21  C   UNL     1      -1.663   1.897   1.921  0.00  0.00    +0.001 C 
ATOM     22  C   UNL     1      -0.736   2.924   2.575  0.00  0.00    +0.009 C 
ATOM     23  C   UNL     1      -3.081   2.069   2.470  0.00  0.00    +0.009 C 
ENDBRANCH  20  21
ENDBRANCH   1  20
BRANCH   2  24
ATOM     24  C   UNL     1      -0.988  -0.585  -0.159  0.00  0.00    +0.203 C 
BRANCH  24  25
ATOM     25  N   UNL     1      -0.412  -1.856  -0.603  0.00  0.00    -0.295 N 
ATOM     26  C   UNL     1      -0.663  -2.338  -1.964  0.00  0.00    +0.132 C 
ATOM     27  C   UNL     1       0.349  -2.583   0.239  0.00  0.00    +0.220 C 
ATOM     28  O   UNL     1       0.556  -2.184   1.366  0.00  0.00    -0.275 OA
BRANCH  27  29
ATOM     29  C   UNL     1       0.941  -3.891  -0.218  0.00  0.00    +0.132 C 
BRANCH  29  30
ATOM     30  C   UNL     1       1.742  -4.499   0.904  0.00  0.00    -0.020 A 
ATOM     31  C   UNL     1       1.196  -5.508   1.675  0.00  0.00    +0.007 A 
ATOM     32  C   UNL     1       1.930  -6.067   2.704  0.00  0.00    +0.020 A 
ATOM     33  C   UNL     1       3.212  -5.617   2.963  0.00  0.00    +0.042 A 
ATOM     34  C   UNL     1       3.760  -4.607   2.192  0.00  0.00    +0.040 A 
ATOM     35  C   UNL     1       3.026  -4.052   1.159  0.00  0.00    +0.046 A 
ATOM     36 CL   UNL     1       3.715  -2.790   0.186  0.00  0.00    -0.083 Cl
ATOM     37 CL   UNL     1       4.134  -6.318   4.256  0.00  0.00    -0.083 Cl
ENDBRANCH  29  30
ENDBRANCH  27  29
ENDBRANCH  24  25
ENDBRANCH   2  24
TORSDOF 10
