REMARK  Name = ZINC40911212
REMARK  12 active torsions:
REMARK  status: ('A' for Active; 'I' for Inactive)
REMARK    1  A    between atoms: C_1  and  C_2
REMARK    2  A    between atoms: C_2  and  C_3
REMARK    3  A    between atoms: C_2  and  C_4
REMARK    4  A    between atoms: C_2  and  C_5
REMARK    5  A    between atoms: C_10  and  O_11
REMARK    6  A    between atoms: O_11  and  C_12
REMARK    7  A    between atoms: C_12  and  C_13
REMARK    8  A    between atoms: N_15  and  N_16
REMARK    9  A    between atoms: C_17  and  C_18
REMARK   10  A    between atoms: C_21  and  O_25
REMARK   11  A    between atoms: C_22  and  O_24
REMARK   12  A    between atoms: O_25  and  C_26
REMARK                            x       y       z     vdW  Elec       q    Type
REMARK                         _______ _______ _______ _____ _____    ______ ____
ROOT
ATOM      1  C   UNL     1      -0.071  -4.968   0.222  0.00  0.00    +0.270 C 
ATOM      2  O   UNL     1      -0.611  -4.431   1.166  0.00  0.00    -0.270 OA
ATOM      3  N   UNL     1      -0.018  -6.313   0.151  0.00  0.00    -0.204 N 
ATOM      4  H   UNL     1       0.414  -6.743  -0.604  0.00  0.00    +0.177 HD
ENDROOT
BRANCH   3   5
ATOM      5  N   UNL     1      -0.585  -7.091   1.169  0.00  0.00    -0.188 NA
ATOM      6  C   UNL     1      -0.533  -8.386   1.101  0.00  0.00    +0.138 C 
BRANCH   6   7
ATOM      7  C   UNL     1      -1.130  -9.205   2.173  0.00  0.00    -0.002 A 
ATOM      8  C   UNL     1      -1.757  -8.588   3.258  0.00  0.00    +0.013 A 
ATOM      9  C   UNL     1      -2.315  -9.355   4.259  0.00  0.00    +0.050 A 
ATOM     10  C   UNL     1      -2.255 -10.740   4.191  0.00  0.00    +0.161 A 
ATOM     11  C   UNL     1      -1.631 -11.361   3.112  0.00  0.00    +0.159 A 
ATOM     12  C   UNL     1      -1.075 -10.599   2.102  0.00  0.00    +0.058 A 
BRANCH  11  13
ATOM     13  O   UNL     1      -1.574 -12.719   3.049  0.00  0.00    -0.503 OA
ATOM     14  H   UNL     1      -2.326 -13.123   2.594  0.00  0.00    +0.292 HD
ENDBRANCH  11  13
BRANCH  10  15
ATOM     15  O   UNL     1      -2.805 -11.492   5.181  0.00  0.00    -0.491 OA
ATOM     16  C   UNL     1      -3.429 -10.790   6.259  0.00  0.00    +0.277 C 
ENDBRANCH  10  15
ENDBRANCH   6   7
ENDBRANCH   3   5
BRANCH   1  17
ATOM     17  C   UNL     1       0.539  -4.132  -0.873  0.00  0.00    +0.326 C 
BRANCH  17  18
ATOM     18  O   UNL     1       0.355  -2.747  -0.573  0.00  0.00    -0.482 OA
BRANCH  18  24
ATOM     19  C   UNL     1       0.707  -0.490  -1.238  0.00  0.00    +0.001 A 
ATOM     20  C   UNL     1       1.217   0.419  -2.145  0.00  0.00    +0.023 A 
ATOM     21  C   UNL     1       1.864  -0.026  -3.283  0.00  0.00    +0.018 A 
ATOM     22  C   UNL     1       2.003  -1.383  -3.516  0.00  0.00    +0.019 A 
ATOM     23  C   UNL     1       1.496  -2.296  -2.611  0.00  0.00    +0.047 A 
ATOM     24  C   UNL     1       0.851  -1.851  -1.466  0.00  0.00    +0.125 A 
ATOM     25 BR   UNL     1       2.560   1.221  -4.523  0.00  0.00    -0.050 Br
BRANCH  19  27
ATOM     26  C   UNL     1      -0.019   1.526   0.010  0.00  0.00    +0.015 C 
ATOM     27  C   UNL     1       0.002  -0.004   0.002  0.00  0.00    -0.009 C 
ATOM     28  C   UNL     1       0.742  -0.511   1.242  0.00  0.00    +0.015 C 
ATOM     29  C   UNL     1      -1.433  -0.534   0.013  0.00  0.00    +0.015 C 
ENDBRANCH  19  27
ENDBRANCH  18  24
ENDBRANCH  17  18
ENDBRANCH   1  17
TORSDOF 8
