REMARK  Name = ZINC14457553
REMARK  8 active torsions:
REMARK  status: ('A' for Active; 'I' for Inactive)
REMARK    1  A    between atoms: C_1  and  O_2
REMARK    2  A    between atoms: O_2  and  C_3
REMARK    3  A    between atoms: C_6  and  C_10
REMARK    4  A    between atoms: C_8  and  O_9
REMARK    5  A    between atoms: C_21  and  N_26
REMARK    6  A    between atoms: C_27  and  C_29
REMARK    7  A    between atoms: C_29  and  C_30
REMARK    8  A    between atoms: C_30  and  C_31
REMARK                            x       y       z     vdW  Elec       q    Type
REMARK                         _______ _______ _______ _____ _____    ______ ____
ROOT
ATOM      1  C   UNL     1      -0.865   1.621  -0.976  0.00  0.00    +0.105 C 
ATOM      2  C   UNL     1      -0.125   1.234   0.291  0.00  0.00    +0.029 C 
ATOM      3  C   UNL     1      -0.719   1.942   1.532  0.00  0.00    +0.033 C 
ATOM      4  C   UNL     1       0.469   2.027   2.474  0.00  0.00    -0.030 C 
ATOM      5  C   UNL     1       1.591   1.938   1.805  0.00  0.00    -0.023 C 
ATOM      6  C   UNL     1       1.312   1.784   0.316  0.00  0.00    +0.049 C 
ATOM      7  C   UNL     1       1.414   3.151  -0.305  0.00  0.00    -0.018 A 
ATOM      8  C   UNL     1       2.623   3.825  -0.200  0.00  0.00    +0.029 A 
ATOM      9  C   UNL     1       2.773   5.089  -0.749  0.00  0.00    +0.034 A 
ATOM     10  C   UNL     1       1.711   5.691  -1.411  0.00  0.00    +0.025 A 
ATOM     11  C   UNL     1       0.508   5.024  -1.521  0.00  0.00    +0.025 A 
ATOM     12  C   UNL     1       0.362   3.756  -0.970  0.00  0.00    +0.031 A 
ATOM     13  N   UNL     1      -0.866   3.093  -1.101  0.00  0.00    -0.336 N 
ATOM     14  H   UNL     1      -1.685   3.583  -1.273  0.00  0.00    +0.147 HD
ENDROOT
BRANCH   1  18
ATOM     15  C   UNL     1       1.100  -0.110  -4.357  0.00  0.00    +0.161 A 
ATOM     16  C   UNL     1       1.597   1.048  -3.781  0.00  0.00    +0.050 A 
ATOM     17  C   UNL     1       0.960   1.605  -2.688  0.00  0.00    +0.009 A 
ATOM     18  C   UNL     1      -0.174   1.009  -2.168  0.00  0.00    -0.023 A 
ATOM     19  C   UNL     1      -0.672  -0.149  -2.734  0.00  0.00    +0.054 A 
ATOM     20  C   UNL     1      -0.041  -0.710  -3.833  0.00  0.00    +0.159 A 
BRANCH  15  22
ATOM     21  C   UNL     1       2.891   0.011  -5.917  0.00  0.00    +0.277 C 
ATOM     22  O   UNL     1       1.726  -0.659  -5.433  0.00  0.00    -0.491 OA
ENDBRANCH  15  22
BRANCH  20  23
ATOM     23  O   UNL     1      -0.532  -1.847  -4.395  0.00  0.00    -0.503 OA
ATOM     24  H   UNL     1      -0.171  -2.660  -4.017  0.00  0.00    +0.292 HD
ENDBRANCH  20  23
ENDBRANCH   1  18
BRANCH   9  25
ATOM     25  N   UNL     1       3.998   5.760  -0.637  0.00  0.00    -0.285 N 
ATOM     26  C   UNL     1       4.023   7.102  -0.522  0.00  0.00    +0.218 C 
ATOM     27  O   UNL     1       2.985   7.722  -0.421  0.00  0.00    -0.275 OA
ATOM     28  H   UNL     1       4.828   5.258  -0.641  0.00  0.00    +0.155 HD
BRANCH  26  29
ATOM     29  C   UNL     1       5.341   7.834  -0.521  0.00  0.00    +0.101 C 
BRANCH  29  30
ATOM     30  C   UNL     1       5.089   9.337  -0.380  0.00  0.00    +0.044 C 
BRANCH  30  31
ATOM     31  C   UNL     1       6.407  10.069  -0.379  0.00  0.00    -0.047 A 
ATOM     32  C   UNL     1       7.064  10.307   0.814  0.00  0.00    +0.003 A 
ATOM     33  C   UNL     1       8.275  10.974   0.814  0.00  0.00    +0.000 A 
ATOM     34  C   UNL     1       8.823  11.412  -0.377  0.00  0.00    +0.000 A 
ATOM     35  C   UNL     1       8.164  11.178  -1.569  0.00  0.00    +0.000 A 
ATOM     36  C   UNL     1       6.955  10.507  -1.570  0.00  0.00    +0.003 A 
ENDBRANCH  30  31
ENDBRANCH  29  30
ENDBRANCH  26  29
ENDBRANCH   9  25
TORSDOF 7
