REMARK  Name = ZINC09300178
REMARK  4 active torsions:
REMARK  status: ('A' for Active; 'I' for Inactive)
REMARK    1  A    between atoms: C_2  and  C_3
REMARK    2  A    between atoms: C_3  and  N_4
REMARK    3  A    between atoms: N_13  and  C_14
REMARK    4  A    between atoms: C_14  and  C_16
REMARK                            x       y       z     vdW  Elec       q    Type
REMARK                         _______ _______ _______ _____ _____    ______ ____
ROOT
ATOM      1  N   UNL     1      -0.705   1.590   1.197  0.00  0.00    -0.317 N 
ATOM      2  C   UNL     1       0.022   1.929   2.326  0.00  0.00    +0.062 A 
ATOM      3  C   UNL     1       1.415   1.863   2.497  0.00  0.00    +0.076 A 
ATOM      4  C   UNL     1       2.008   2.241   3.685  0.00  0.00    +0.164 A 
ATOM      5  C   UNL     1       1.237   2.708   4.746  0.00  0.00    +0.163 A 
ATOM      6  C   UNL     1      -0.140   2.787   4.600  0.00  0.00    +0.066 A 
ATOM      7  C   UNL     1      -0.722   2.407   3.414  0.00  0.00    +0.043 A 
ATOM      8  S   UNL     1      -2.397   2.351   2.824  0.00  0.00    -0.052 S 
ATOM      9  C   UNL     1      -2.062   1.718   1.189  0.00  0.00    +0.167 A 
ATOM     10  N   UNL     1      -2.918   1.440   0.212  0.00  0.00    -0.152 NA
ATOM     11  O   UNL     1       1.810   3.087   5.919  0.00  0.00    -0.485 OA
ATOM     12  C   UNL     1       3.152   2.645   6.151  0.00  0.00    +0.270 C 
ATOM     13  C   UNL     1       3.965   2.892   4.873  0.00  0.00    +0.270 C 
ATOM     14  O   UNL     1       3.364   2.151   3.807  0.00  0.00    -0.485 OA
ENDROOT
BRANCH  10  15
ATOM     15  C   UNL     1      -4.230   1.635   0.397  0.00  0.00    +0.271 C 
ATOM     16  O   UNL     1      -4.638   2.067   1.461  0.00  0.00    -0.268 OA
BRANCH  15  17
ATOM     17  C   UNL     1      -5.180   1.326  -0.688  0.00  0.00    +0.066 A 
ATOM     18  C   UNL     1      -4.732   0.815  -1.959  0.00  0.00    +0.042 A 
ATOM     19  C   UNL     1      -5.678   0.564  -2.887  0.00  0.00    +0.080 A 
ATOM     20  S   UNL     1      -7.187   1.016  -2.056  0.00  0.00    -0.064 S 
ATOM     21  C   UNL     1      -6.538   1.510  -0.529  0.00  0.00    +0.092 A 
ATOM     22 CL   UNL     1      -7.390   2.097   0.865  0.00  0.00    -0.075 Cl
ATOM     23 CL   UNL     1      -5.474  -0.050  -4.498  0.00  0.00    -0.076 Cl
ENDBRANCH  15  17
ENDBRANCH  10  15
BRANCH   1  24
ATOM     24  C   UNL     1      -0.013   1.086   0.008  0.00  0.00    +0.151 C 
BRANCH  24  26
ATOM     25  C   UNL     1      -0.039   2.361  -2.074  0.00  0.00    +0.005 C 
ATOM     26  C   UNL     1      -0.697   1.606  -1.230  0.00  0.00    -0.013 C 
ENDBRANCH  24  26
ENDBRANCH   1  24
TORSDOF 4
