REMARK  Name = ZINC16929989
REMARK  8 active torsions:
REMARK  status: ('A' for Active; 'I' for Inactive)
REMARK    1  A    between atoms: C_1  and  C_2
REMARK    2  A    between atoms: C_2  and  C_4
REMARK    3  A    between atoms: C_2  and  O_6
REMARK    4  A    between atoms: O_6  and  C_7
REMARK    5  A    between atoms: C_11  and  C_13
REMARK    6  A    between atoms: N_17  and  N_21
REMARK    7  A    between atoms: C_22  and  C_24
REMARK    8  A    between atoms: C_29  and  O_30
REMARK                            x       y       z     vdW  Elec       q    Type
REMARK                         _______ _______ _______ _____ _____    ______ ____
ROOT
ATOM      1  C   UNL     1      -0.134   5.070  -0.252  0.00  0.00    +0.028 C 
ATOM      2  C   UNL     1       0.933   5.792   0.172  0.00  0.00    +0.079 C 
ATOM      3  C   UNL     1       1.102   7.258   0.265  0.00  0.00    +0.275 C 
ATOM      4  O   UNL     1       0.216   8.026  -0.060  0.00  0.00    -0.267 OA
ATOM      5  N   UNL     1       2.264   7.691   0.725  0.00  0.00    -0.169 N 
ATOM      6  C   UNL     1       3.245   6.836   1.078  0.00  0.00    +0.138 C 
ATOM      7  S   UNL     1       4.806   7.200   1.681  0.00  0.00    -0.026 S 
ATOM      8  S   UNL     1       2.524   5.233   0.764  0.00  0.00    -0.059 S 
ENDROOT
BRANCH   1  13
ATOM      9  C   UNL     1       1.341   1.641  -0.643  0.00  0.00    +0.122 A 
ATOM     10  C   UNL     1       0.192   0.865  -0.720  0.00  0.00    +0.046 A 
ATOM     11  C   UNL     1      -1.056   1.455  -0.640  0.00  0.00    +0.004 A 
ATOM     12  C   UNL     1      -1.170   2.821  -0.488  0.00  0.00    +0.008 A 
ATOM     13  C   UNL     1      -0.019   3.614  -0.414  0.00  0.00    -0.020 A 
ATOM     14  C   UNL     1       1.242   3.013  -0.495  0.00  0.00    +0.053 A 
BRANCH   9  15
ATOM     15  O   UNL     1       2.564   1.053  -0.716  0.00  0.00    -0.478 OA
BRANCH  15  17
ATOM     16  C   UNL     1       2.411  -0.755  -2.312  0.00  0.00    +0.064 C 
ATOM     17  C   UNL     1       2.593  -0.370  -0.843  0.00  0.00    +0.282 C 
BRANCH  17  18
ATOM     18  C   UNL     1       3.917  -0.892  -0.347  0.00  0.00    +0.395 C 
ATOM     19  O   UNL     1       4.750  -0.124   0.071  0.00  0.00    -0.242 OA
ATOM     20  O   UNL     1       4.170  -2.210  -0.371  0.00  0.00    -0.242 OA
ENDBRANCH  17  18
ENDBRANCH  15  17
ENDBRANCH   9  15
ENDBRANCH   1  13
BRANCH   5  21
ATOM     21  N   UNL     1       2.482   9.070   0.843  0.00  0.00    -0.222 N 
ATOM     22  C   UNL     1       3.268   9.706  -0.050  0.00  0.00    +0.264 C 
ATOM     23  O   UNL     1       3.786   9.083  -0.956  0.00  0.00    -0.269 OA
ATOM     24  H   UNL     1       2.069   9.567   1.566  0.00  0.00    +0.174 HD
BRANCH  22  25
ATOM     25  C   UNL     1       3.498  11.158   0.074  0.00  0.00    +0.079 A 
ATOM     26  C   UNL     1       2.904  11.877   1.114  0.00  0.00    +0.017 A 
ATOM     27  C   UNL     1       3.123  13.233   1.224  0.00  0.00    +0.001 A 
ATOM     28  C   UNL     1       3.930  13.887   0.307  0.00  0.00    +0.004 A 
ATOM     29  C   UNL     1       4.523  13.188  -0.725  0.00  0.00    +0.046 A 
ATOM     30  C   UNL     1       4.318  11.822  -0.848  0.00  0.00    +0.129 A 
BRANCH  30  31
ATOM     31  O   UNL     1       4.905  11.133  -1.858  0.00  0.00    -0.506 OA
ATOM     32  H   UNL     1       4.372  11.088  -2.665  0.00  0.00    +0.292 HD
ENDBRANCH  30  31
ENDBRANCH  22  25
ENDBRANCH   5  21
TORSDOF 7
