REMARK  Name = ZINC57344555
REMARK  3 active torsions:
REMARK  status: ('A' for Active; 'I' for Inactive)
REMARK    1  A    between atoms: C_4  and  C_8
REMARK    2  A    between atoms: C_8  and  N_9
REMARK    3  A    between atoms: C_23  and  N_26
REMARK                            x       y       z     vdW  Elec       q    Type
REMARK                         _______ _______ _______ _____ _____    ______ ____
ROOT
ATOM      1  N   UNL     1       4.054  -0.779   1.411  0.00  0.00    -0.275 N 
ATOM      2  C   UNL     1       4.763   0.221   1.988  0.00  0.00    +0.270 A 
ATOM      3  O   UNL     1       4.858   1.311   1.450  0.00  0.00    -0.266 OA
ATOM      4  C   UNL     1       5.379  -0.028   3.212  0.00  0.00    +0.102 A 
ATOM      5  C   UNL     1       5.278  -1.279   3.846  0.00  0.00    +0.087 A 
ATOM      6  C   UNL     1       5.948  -1.389   5.073  0.00  0.00    +0.036 A 
ATOM      7  C   UNL     1       6.631  -0.337   5.571  0.00  0.00    +0.048 A 
ATOM      8  S   UNL     1       6.381   0.919   4.327  0.00  0.00    -0.090 S 
ATOM      9  N   UNL     1       4.540  -2.230   3.188  0.00  0.00    -0.215 NA
ATOM     10  C   UNL     1       3.963  -1.984   2.044  0.00  0.00    +0.202 A 
ATOM     11  N   UNL     1       3.235  -2.985   1.447  0.00  0.00    -0.302 N 
ATOM     12  C   UNL     1       2.228  -3.736   2.210  0.00  0.00    +0.108 C 
ATOM     13  C   UNL     1       2.524  -5.233   2.077  0.00  0.00    +0.017 C 
ATOM     14  C   UNL     1       2.596  -5.606   0.595  0.00  0.00    -0.013 C 
ATOM     15  C   UNL     1       3.732  -4.828  -0.074  0.00  0.00    -0.057 C 
ATOM     16  C   UNL     1       3.446  -3.322   0.033  0.00  0.00    +0.092 C 
ENDROOT
BRANCH  15  17
ATOM     17  N   UNL     1       3.821  -5.210  -1.490  0.00  0.00    +0.381 N 
ATOM     18  H   UNL     1       2.949  -4.996  -1.951  0.00  0.00    -0.090 HD
ATOM     19  H   UNL     1       4.570  -4.697  -1.930  0.00  0.00    -0.090 HD
ATOM     20  H   UNL     1       4.004  -6.200  -1.560  0.00  0.00    -0.090 HD
ENDBRANCH  15  17
BRANCH   1  21
ATOM     21  C   UNL     1       3.387  -0.566   0.124  0.00  0.00    +0.169 C 
BRANCH  21  25
ATOM     22  C   UNL     1      -0.420   1.267   0.776  0.00  0.00    +0.006 A 
ATOM     23  C   UNL     1       0.713   2.050   0.661  0.00  0.00    +0.039 A 
ATOM     24  C   UNL     1       1.946   1.457   0.450  0.00  0.00    +0.131 A 
ATOM     25  C   UNL     1       2.045   0.080   0.354  0.00  0.00    +0.043 A 
ATOM     26  C   UNL     1       0.910  -0.704   0.470  0.00  0.00    +0.131 A 
ATOM     27  C   UNL     1      -0.323  -0.109   0.681  0.00  0.00    +0.039 A 
ATOM     28  F   UNL     1       1.004  -2.048   0.377  0.00  0.00    -0.205 F 
ATOM     29  F   UNL     1       3.054   2.223   0.337  0.00  0.00    -0.205 F 
ENDBRANCH  21  25
ENDBRANCH   1  21
TORSDOF 3
