REMARK  Name = ZINC12323928
REMARK  9 active torsions:
REMARK  status: ('A' for Active; 'I' for Inactive)
REMARK    1  A    between atoms: C_1  and  C_2
REMARK    2  A    between atoms: C_10  and  C_18
REMARK    3  A    between atoms: C_11  and  O_13
REMARK    4  A    between atoms: O_13  and  C_14
REMARK    5  A    between atoms: C_14  and  C_15
REMARK    6  A    between atoms: C_15  and  C_17
REMARK    7  A    between atoms: C_18  and  C_19
REMARK    8  A    between atoms: C_19  and  C_20
REMARK    9  A    between atoms: C_20  and  N_22
REMARK                            x       y       z     vdW  Elec       q    Type
REMARK                         _______ _______ _______ _____ _____    ______ ____
ROOT
ATOM      1  C   UNL     1       0.029   1.552  -0.003  0.00  0.00    +0.045 C 
ATOM      2  C   UNL     1       0.037   0.045  -0.016  0.00  0.00    -0.033 A 
ATOM      3  C   UNL     1       0.042  -0.642  -1.188  0.00  0.00    +0.096 A 
ATOM      4  C   UNL     1       0.050  -2.052  -1.175  0.00  0.00    +0.337 A 
ATOM      5  O   UNL     1       0.055  -2.655  -2.233  0.00  0.00    -0.245 OA
ATOM      6  O   UNL     1       0.053  -2.746  -0.026  0.00  0.00    -0.422 OA
ATOM      7  C   UNL     1       0.048  -2.125   1.173  0.00  0.00    +0.143 A 
ATOM      8  C   UNL     1       0.046  -0.719   1.233  0.00  0.00    +0.021 A 
ATOM      9  C   UNL     1       0.046  -0.071   2.474  0.00  0.00    +0.019 A 
ATOM     10  C   UNL     1       0.054  -0.807   3.623  0.00  0.00    -0.004 A 
ATOM     11  C   UNL     1       0.061  -2.199   3.570  0.00  0.00    +0.128 A 
ATOM     12  C   UNL     1       0.051  -2.857   2.350  0.00  0.00    +0.093 A 
ENDROOT
BRANCH  11  13
ATOM     13  O   UNL     1       0.070  -2.917   4.722  0.00  0.00    -0.487 OA
BRANCH  13  14
ATOM     14  C   UNL     1       0.077  -4.340   4.599  0.00  0.00    +0.259 C 
BRANCH  14  15
ATOM     15  C   UNL     1       0.086  -4.963   5.971  0.00  0.00    -0.043 C 
ATOM     16  C   UNL     1       0.085  -4.200   7.037  0.00  0.00    +0.011 C 
ATOM     17  C   UNL     1       0.095  -6.463   6.119  0.00  0.00    +0.042 C 
ENDBRANCH  14  15
ENDBRANCH  13  14
ENDBRANCH  11  13
BRANCH  10  18
ATOM     18  C   UNL     1       0.054  -0.109   4.959  0.00  0.00    +0.048 C 
BRANCH  18  19
ATOM     19  C   UNL     1       1.492   0.024   5.464  0.00  0.00    +0.103 C 
BRANCH  19  20
ATOM     20  C   UNL     1       1.493   0.722   6.800  0.00  0.00    +0.239 C 
ATOM     21  O   UNL     1       0.444   1.079   7.300  0.00  0.00    -0.274 OA
BRANCH  20  22
ATOM     22  N   UNL     1       2.641   0.947   7.432  0.00  0.00    -0.147 NA
ATOM     23  C   UNL     1       2.652   1.654   8.559  0.00  0.00    +0.198 A 
ATOM     24  N   UNL     1       1.552   2.098   9.220  0.00  0.00    -0.326 N 
ATOM     25  H   UNL     1       0.630   1.953   8.953  0.00  0.00    +0.169 HD
ATOM     26  C   UNL     1       1.972   2.794  10.349  0.00  0.00    +0.065 A 
ATOM     27  C   UNL     1       1.293   3.449  11.366  0.00  0.00    +0.028 A 
ATOM     28  C   UNL     1       1.999   4.066  12.379  0.00  0.00    +0.002 A 
ATOM     29  C   UNL     1       3.383   4.034  12.385  0.00  0.00    +0.002 A 
ATOM     30  C   UNL     1       4.069   3.385  11.378  0.00  0.00    +0.028 A 
ATOM     31  C   UNL     1       3.369   2.762  10.355  0.00  0.00    +0.065 A 
ATOM     32  N   UNL     1       3.766   2.042   9.233  0.00  0.00    -0.326 N 
ATOM     33  H   UNL     1       4.682   1.851   8.975  0.00  0.00    +0.169 HD
ENDBRANCH  20  22
ENDBRANCH  19  20
ENDBRANCH  18  19
ENDBRANCH  10  18
TORSDOF 7
