REMARK  Name = ZINC27754440
REMARK  5 active torsions:
REMARK  status: ('A' for Active; 'I' for Inactive)
REMARK    1  A    between atoms: C_6  and  C_7
REMARK    2  A    between atoms: C_7  and  O_30
REMARK    3  A    between atoms: C_8  and  C_24
REMARK    4  A    between atoms: C_10  and  C_16
REMARK    5  A    between atoms: C_24  and  C_26
REMARK                            x       y       z     vdW  Elec       q    Type
REMARK                         _______ _______ _______ _____ _____    ______ ____
ROOT
ATOM      1  C   UNL     1      -1.297   1.665   0.017  0.00  0.00    +0.172 C 
ATOM      2  C   UNL     1      -1.127   3.014   0.731  0.00  0.00    +0.144 C 
ATOM      3  C   UNL     1      -0.008   3.794   0.034  0.00  0.00    +0.121 C 
ATOM      4  N   UNL     1       1.208   2.979   0.017  0.00  0.00    -0.292 N 
ATOM      5  C   UNL     1       1.149   1.639  -0.000  0.00  0.00    +0.302 C 
ATOM      6  O   UNL     1       2.189   1.009  -0.023  0.00  0.00    -0.253 OA
ATOM      7  N   UNL     1      -0.011   0.966   0.007  0.00  0.00    -0.267 N 
ATOM      8  H   UNL     1       2.195   3.464   0.019  0.00  0.00    +0.151 HD
ATOM      9  H   UNL     1       0.017  -0.134   0.006  0.00  0.00    +0.153 HD
ENDROOT
BRANCH   3  10
ATOM     10  C   UNL     1       0.255   5.075   0.782  0.00  0.00    -0.008 A 
ATOM     11  C   UNL     1       1.317   5.156   1.663  0.00  0.00    +0.008 A 
ATOM     12  C   UNL     1       1.562   6.332   2.345  0.00  0.00    +0.020 A 
ATOM     13  C   UNL     1       0.737   7.427   2.155  0.00  0.00    +0.042 A 
ATOM     14  C   UNL     1      -0.329   7.346   1.278  0.00  0.00    +0.040 A 
ATOM     15  C   UNL     1      -0.570   6.169   0.591  0.00  0.00    +0.047 A 
ATOM     16 CL   UNL     1      -1.908   6.066  -0.510  0.00  0.00    -0.083 Cl
ATOM     17 CL   UNL     1       1.041   8.903   3.017  0.00  0.00    -0.083 Cl
ENDBRANCH   3  10
BRANCH   1  23
ATOM     18  C   UNL     1      -3.103   2.042  -1.673  0.00  0.00    +0.011 A 
ATOM     19  C   UNL     1      -3.525   2.258  -2.972  0.00  0.00    +0.039 A 
ATOM     20  C   UNL     1      -2.599   2.317  -3.999  0.00  0.00    +0.123 A 
ATOM     21  C   UNL     1      -1.251   2.164  -3.724  0.00  0.00    +0.039 A 
ATOM     22  C   UNL     1      -0.831   1.953  -2.425  0.00  0.00    +0.011 A 
ATOM     23  C   UNL     1      -1.756   1.895  -1.399  0.00  0.00    +0.003 A 
ATOM     24  F   UNL     1      -3.011   2.523  -5.269  0.00  0.00    -0.205 F 
ENDBRANCH   1  23
BRANCH   2  25
ATOM     25  C   UNL     1      -0.760   2.784   2.175  0.00  0.00    +0.245 C 
ATOM     26  O   UNL     1      -0.148   1.792   2.492  0.00  0.00    -0.287 OA
BRANCH  25  27
ATOM     27  C   UNL     1      -1.156   3.792   3.222  0.00  0.00    +0.451 C 
ATOM     28  F   UNL     1      -0.708   3.363   4.476  0.00  0.00    -0.163 F 
ATOM     29  F   UNL     1      -0.580   5.031   2.920  0.00  0.00    -0.163 F 
ATOM     30  F   UNL     1      -2.549   3.920   3.244  0.00  0.00    -0.163 F 
ENDBRANCH  25  27
ENDBRANCH   2  25
BRANCH   1  31
ATOM     31  O   UNL     1      -2.264   0.876   0.713  0.00  0.00    -0.367 OA
ATOM     32  H   UNL     1      -2.099   0.606   1.766  0.00  0.00    +0.212 HD
ENDBRANCH   1  31
TORSDOF 5
