REMARK  Name = ZINC59593677
REMARK  10 active torsions:
REMARK  status: ('A' for Active; 'I' for Inactive)
REMARK    1  A    between atoms: C_1  and  C_2
REMARK    2  A    between atoms: C_5  and  S_8
REMARK    3  A    between atoms: S_8  and  O_11
REMARK    4  A    between atoms: O_11  and  C_12
REMARK    5  A    between atoms: C_12  and  C_13
REMARK    6  A    between atoms: C_15  and  O_38
REMARK    7  A    between atoms: C_18  and  N_21
REMARK    8  A    between atoms: C_33  and  C_35
REMARK    9  A    between atoms: C_35  and  C_36
REMARK   10  A    between atoms: C_35  and  C_37
REMARK                            x       y       z     vdW  Elec       q    Type
REMARK                         _______ _______ _______ _____ _____    ______ ____
ROOT
ATOM      1  C   UNL     1       3.636  -5.270   1.098  0.00  0.00    +0.177 C 
ATOM      2  C   UNL     1       4.395  -5.029   2.426  0.00  0.00    +0.150 C 
ATOM      3  C   UNL     1       5.525  -6.088   2.317  0.00  0.00    +0.088 C 
ATOM      4  C   UNL     1       4.821  -7.243   1.572  0.00  0.00    +0.225 C 
ATOM      5  O   UNL     1       3.691  -6.690   0.884  0.00  0.00    -0.348 OA
ENDROOT
BRANCH   4   6
ATOM      6  N   UNL     1       5.743  -7.847   0.608  0.00  0.00    -0.288 N 
ATOM      7  C   UNL     1       5.845  -7.535  -0.717  0.00  0.00    +0.203 A 
ATOM      8  N   UNL     1       6.766  -8.266  -1.273  0.00  0.00    -0.229 NA
ATOM      9  C   UNL     1       7.309  -9.088  -0.343  0.00  0.00    +0.172 A 
ATOM     10  C   UNL     1       6.664  -8.825   0.871  0.00  0.00    +0.171 A 
ATOM     11  N   UNL     1       7.016  -9.504   1.969  0.00  0.00    -0.196 NA
ATOM     12  C   UNL     1       7.961 -10.414   1.931  0.00  0.00    +0.204 A 
ATOM     13  N   UNL     1       8.628 -10.713   0.782  0.00  0.00    -0.293 N 
ATOM     14  H   UNL     1       9.321 -11.391   0.788  0.00  0.00    +0.172 HD
ATOM     15  C   UNL     1       8.322 -10.076  -0.370  0.00  0.00    +0.280 A 
ATOM     16  O   UNL     1       8.914 -10.335  -1.404  0.00  0.00    -0.265 OA
ATOM     17  N   UNL     1       8.288 -11.087   3.090  0.00  0.00    -0.256 N 
ATOM     18  C   UNL     1       7.641 -10.807   4.238  0.00  0.00    +0.222 C 
ATOM     19  O   UNL     1       6.771  -9.963   4.253  0.00  0.00    -0.275 OA
ATOM     20  H   UNL     1       8.984 -11.763   3.078  0.00  0.00    +0.158 HD
BRANCH  18  21
ATOM     21  C   UNL     1       7.999 -11.543   5.504  0.00  0.00    +0.069 C 
ATOM     22  C   UNL     1       9.471 -11.295   5.839  0.00  0.00    +0.017 C 
ATOM     23  C   UNL     1       7.123 -11.038   6.652  0.00  0.00    +0.017 C 
ENDBRANCH  18  21
ENDBRANCH   4   6
BRANCH   2  24
ATOM     24  O   UNL     1       4.932  -3.706   2.480  0.00  0.00    -0.389 OA
ATOM     25  H   UNL     1       5.415  -3.510   3.294  0.00  0.00    +0.210 HD
ENDBRANCH   2  24
BRANCH   1  26
ATOM     26  C   UNL     1       2.183  -4.809   1.225  0.00  0.00    +0.228 C 
BRANCH  26  27
ATOM     27  O   UNL     1       1.522  -4.962  -0.033  0.00  0.00    -0.232 OA
BRANCH  27  28
ATOM     28  S   UNL     1       0.063  -4.530  -0.023  0.00  0.00    +0.112 S 
ATOM     29  O   UNL     1      -0.476  -4.950   1.223  0.00  0.00    -0.142 OA
ATOM     30  O   UNL     1      -0.490  -4.937  -1.267  0.00  0.00    -0.142 OA
BRANCH  28  35
ATOM     31  C   UNL     1      -0.018   1.503   0.010  0.00  0.00    +0.044 C 
ATOM     32  C   UNL     1       0.002  -0.004   0.002  0.00  0.00    -0.050 A 
ATOM     33  C   UNL     1       0.006  -0.689  -1.199  0.00  0.00    +0.005 A 
ATOM     34  C   UNL     1       0.025  -2.071  -1.206  0.00  0.00    +0.030 A 
ATOM     35  C   UNL     1       0.040  -2.768  -0.013  0.00  0.00    +0.117 A 
ATOM     36  C   UNL     1       0.037  -2.084   1.188  0.00  0.00    +0.030 A 
ATOM     37  C   UNL     1       0.023  -0.702   1.195  0.00  0.00    +0.005 A 
ENDBRANCH  28  35
ENDBRANCH  27  28
ENDBRANCH  26  27
ENDBRANCH   1  26
TORSDOF 7
