REMARK  Name = ZINC08713553
REMARK  6 active torsions:
REMARK  status: ('A' for Active; 'I' for Inactive)
REMARK    1  A    between atoms: C_1  and  C_2
REMARK    2  A    between atoms: C_14  and  C_16
REMARK    3  A    between atoms: C_16  and  O_17
REMARK    4  A    between atoms: O_17  and  C_18
REMARK    5  A    between atoms: C_18  and  C_20
REMARK    6  A    between atoms: C_29  and  C_32
REMARK                            x       y       z     vdW  Elec       q    Type
REMARK                         _______ _______ _______ _____ _____    ______ ____
ROOT
ATOM      1  O   UNL     1      -3.969   3.445  -3.208  0.00  0.00    -0.452 OA
ENDROOT
BRANCH   1   2
ATOM      2  C   UNL     1      -3.779   2.925  -4.437  0.00  0.00    +0.340 C 
ATOM      3  O   UNL     1      -2.763   2.307  -4.686  0.00  0.00    -0.245 OA
BRANCH   2   4
ATOM      4  C   UNL     1      -4.805   3.105  -5.479  0.00  0.00    +0.061 A 
ATOM      5  C   UNL     1      -5.975   3.816  -5.192  0.00  0.00    +0.016 A 
ATOM      6  C   UNL     1      -6.931   3.983  -6.170  0.00  0.00    +0.017 A 
ATOM      7  C   UNL     1      -6.733   3.448  -7.436  0.00  0.00    +0.030 A 
ATOM      8  C   UNL     1      -5.569   2.732  -7.736  0.00  0.00    +0.048 A 
ATOM      9  C   UNL     1      -4.605   2.570  -6.755  0.00  0.00    +0.039 A 
ATOM     10  N   UNL     1      -5.359   2.182  -8.998  0.00  0.00    -0.284 N 
ATOM     11  C   UNL     1      -5.943   2.563 -10.131  0.00  0.00    +0.230 C 
ATOM     12  O   UNL     1      -5.641   1.985 -11.154  0.00  0.00    -0.274 OA
ATOM     13  C   UNL     1      -6.957   3.671 -10.213  0.00  0.00    +0.134 C 
ATOM     14  S   UNL     1      -7.954   3.666  -8.692  0.00  0.00    -0.111 S 
ATOM     15  C   UNL     1      -7.867   3.444 -11.423  0.00  0.00    +0.029 C 
ATOM     16  H   UNL     1      -4.724   1.450  -9.057  0.00  0.00    +0.155 HD
ENDBRANCH   2   4
ENDBRANCH   1   2
BRANCH   1  17
ATOM     17  C   UNL     1      -2.916   3.229  -2.232  0.00  0.00    +0.328 C 
BRANCH  17  30
ATOM     18  C   UNL     1      -0.512   7.496   1.858  0.00  0.00    +0.019 C 
ATOM     19  C   UNL     1      -0.839   6.038   1.532  0.00  0.00    +0.050 C 
ATOM     20  C   UNL     1      -2.348   5.859   1.481  0.00  0.00    +0.033 C 
ATOM     21  C   UNL     1      -2.828   4.433   1.414  0.00  0.00    +0.115 C 
ATOM     22  N   UNL     1      -2.470   3.806   0.132  0.00  0.00    -0.268 N 
ATOM     23  C   UNL     1      -1.245   3.133   0.038  0.00  0.00    +0.050 A 
ATOM     24  C   UNL     1      -1.223   1.743   0.017  0.00  0.00    +0.024 A 
ATOM     25  C   UNL     1      -0.013   1.076   0.008  0.00  0.00    +0.002 A 
ATOM     26  C   UNL     1       1.180   1.776   0.000  0.00  0.00    +0.001 A 
ATOM     27  C   UNL     1       1.169   3.161  -0.013  0.00  0.00    +0.016 A 
ATOM     28  C   UNL     1      -0.043   3.825  -0.001  0.00  0.00    +0.030 A 
ATOM     29  S   UNL     1      -0.104   5.599  -0.071  0.00  0.00    -0.120 S 
ATOM     30  C   UNL     1      -3.301   3.878  -0.927  0.00  0.00    +0.258 C 
ATOM     31  O   UNL     1      -4.358   4.465  -0.830  0.00  0.00    -0.272 OA
ENDBRANCH  17  30
ENDBRANCH   1  17
TORSDOF 4
