REMARK  Name = ZINC16033886
REMARK  7 active torsions:
REMARK  status: ('A' for Active; 'I' for Inactive)
REMARK    1  A    between atoms: C_1  and  C_2
REMARK    2  A    between atoms: C_2  and  O_4
REMARK    3  A    between atoms: O_4  and  C_5
REMARK    4  A    between atoms: C_8  and  N_11
REMARK    5  A    between atoms: C_16  and  C_34
REMARK    6  A    between atoms: C_34  and  C_35
REMARK    7  A    between atoms: C_38  and  O_41
REMARK                            x       y       z     vdW  Elec       q    Type
REMARK                         _______ _______ _______ _____ _____    ______ ____
ROOT
ATOM      1  N   UNL     1       0.360  -6.168  -0.684  0.00  0.00    -0.210 N 
ATOM      2  C   UNL     1       0.255  -6.800   0.490  0.00  0.00    +0.232 C 
ATOM      3  O   UNL     1       0.071  -6.262   1.561  0.00  0.00    -0.274 OA
ATOM      4  C   UNL     1       0.400  -8.289   0.274  0.00  0.00    +0.108 C 
ATOM      5  C   UNL     1       1.726  -8.764   0.905  0.00  0.00    +0.072 C 
ATOM      6  N   UNL     1       2.348  -9.637  -0.126  0.00  0.00    -0.295 NA
ATOM      7  C   UNL     1       2.046  -8.962  -1.402  0.00  0.00    +0.136 C 
ATOM      8  C   UNL     1       0.606  -8.409  -1.262  0.00  0.00    +0.123 C 
ATOM      9  C   UNL     1       0.554  -6.974  -1.734  0.00  0.00    +0.233 C 
ATOM     10  O   UNL     1       0.672  -6.610  -2.885  0.00  0.00    -0.274 OA
ATOM     11  C   UNL     1       2.158  -9.908  -2.564  0.00  0.00    +0.006 A 
ATOM     12  C   UNL     1       1.526 -11.088  -2.889  0.00  0.00    +0.046 A 
ATOM     13  C   UNL     1       1.853 -11.748  -4.062  0.00  0.00    +0.124 A 
ATOM     14  C   UNL     1       2.815 -11.217  -4.905  0.00  0.00    +0.040 A 
ATOM     15  C   UNL     1       3.449 -10.036  -4.582  0.00  0.00    +0.026 A 
ATOM     16  C   UNL     1       3.125  -9.366  -3.404  0.00  0.00    +0.039 A 
ATOM     17  N   UNL     1       3.619  -8.174  -2.867  0.00  0.00    -0.283 N 
ATOM     18  C   UNL     1       3.037  -7.867  -1.692  0.00  0.00    +0.243 C 
ATOM     19  O   UNL     1       3.266  -6.897  -1.001  0.00  0.00    -0.273 OA
ATOM     20  F   UNL     1       1.235 -12.906  -4.383  0.00  0.00    -0.205 F 
ATOM     21  H   UNL     1       3.344  -9.713   0.017  0.00  0.00    +0.124 HD
ATOM     22  H   UNL     1       4.302  -7.630  -3.291  0.00  0.00    +0.155 HD
ENDROOT
BRANCH   1  26
ATOM     23  C   UNL     1       0.086  -2.021  -1.045  0.00  0.00    +0.132 A 
ATOM     24  C   UNL     1      -0.904  -2.830  -1.581  0.00  0.00    +0.048 A 
ATOM     25  C   UNL     1      -0.814  -4.203  -1.462  0.00  0.00    +0.027 A 
ATOM     26  C   UNL     1       0.268  -4.773  -0.806  0.00  0.00    +0.044 A 
ATOM     27  C   UNL     1       1.260  -3.962  -0.270  0.00  0.00    +0.027 A 
ATOM     28  C   UNL     1       1.171  -2.590  -0.394  0.00  0.00    +0.048 A 
BRANCH  23  29
ATOM     29  O   UNL     1      -0.003  -0.669  -1.163  0.00  0.00    -0.426 OA
BRANCH  29  31
ATOM     30  C   UNL     1      -0.908   1.485  -0.365  0.00  0.00    +0.136 C 
ATOM     31  C   UNL     1      -0.854  -0.021  -0.352  0.00  0.00    +0.309 C 
ATOM     32  O   UNL     1      -1.577  -0.644   0.389  0.00  0.00    -0.251 OA
ENDBRANCH  29  31
ENDBRANCH  23  29
ENDBRANCH   1  26
BRANCH   5  33
ATOM     33  C   UNL     1       1.453  -9.559   2.184  0.00  0.00    +0.054 C 
BRANCH  33  34
ATOM     34  C   UNL     1       2.760  -9.907   2.848  0.00  0.00    -0.046 A 
ATOM     35  C   UNL     1       3.407 -11.085   2.523  0.00  0.00    +0.007 A 
ATOM     36  C   UNL     1       4.605 -11.407   3.131  0.00  0.00    +0.045 A 
ATOM     37  C   UNL     1       5.160 -10.546   4.067  0.00  0.00    +0.117 A 
ATOM     38  C   UNL     1       4.509  -9.365   4.391  0.00  0.00    +0.045 A 
ATOM     39  C   UNL     1       3.314  -9.045   3.776  0.00  0.00    +0.007 A 
BRANCH  37  40
ATOM     40  O   UNL     1       6.338 -10.861   4.667  0.00  0.00    -0.507 OA
ATOM     41  H   UNL     1       7.118 -10.535   4.197  0.00  0.00    +0.292 HD
ENDBRANCH  37  40
ENDBRANCH  33  34
ENDBRANCH   5  33
TORSDOF 6
