REMARK  Name = ZINC20752199
REMARK  7 active torsions:
REMARK  status: ('A' for Active; 'I' for Inactive)
REMARK    1  A    between atoms: C_1  and  C_2
REMARK    2  A    between atoms: C_2  and  C_3
REMARK    3  A    between atoms: C_3  and  C_5
REMARK    4  A    between atoms: C_3  and  N_6
REMARK    5  A    between atoms: C_7  and  C_9
REMARK    6  A    between atoms: C_16  and  C_25
REMARK    7  A    between atoms: C_34  and  O_35
REMARK                            x       y       z     vdW  Elec       q    Type
REMARK                         _______ _______ _______ _____ _____    ______ ____
ROOT
ATOM      1  C   UNL     1      -1.255  -5.502  -2.196  0.00  0.00    +0.058 A 
ATOM      2  C   UNL     1      -2.208  -6.520  -2.168  0.00  0.00    +0.015 A 
ATOM      3  C   UNL     1      -3.014  -6.668  -1.061  0.00  0.00    +0.001 A 
ATOM      4  C   UNL     1      -2.881  -5.811   0.017  0.00  0.00    +0.006 A 
ATOM      5  C   UNL     1      -1.940  -4.792   0.008  0.00  0.00    -0.019 A 
ATOM      6  C   UNL     1      -1.121  -4.632  -1.097  0.00  0.00    +0.044 A 
ATOM      7  N   UNL     1      -0.178  -3.642  -1.170  0.00  0.00    -0.336 N 
ATOM      8  C   UNL     1      -0.487  -2.485  -0.329  0.00  0.00    +0.109 C 
ATOM      9  C   UNL     1      -0.650  -2.942   1.123  0.00  0.00    +0.029 C 
ATOM     10  C   UNL     1      -1.856  -3.902   1.213  0.00  0.00    +0.049 C 
ATOM     11  C   UNL     1      -3.055  -2.949   1.291  0.00  0.00    -0.023 C 
ATOM     12  C   UNL     1      -2.677  -1.760   1.688  0.00  0.00    -0.030 C 
ATOM     13  C   UNL     1      -1.183  -1.735   1.945  0.00  0.00    +0.033 C 
ATOM     14  H   UNL     1       0.739  -3.650  -1.778  0.00  0.00    +0.147 HD
ENDROOT
BRANCH   8  15
ATOM     15  C   UNL     1       0.635  -1.484  -0.418  0.00  0.00    +0.022 A 
ATOM     16  C   UNL     1       0.352  -0.118  -0.581  0.00  0.00    -0.009 A 
ATOM     17  C   UNL     1      -0.972   0.347  -0.664  0.00  0.00    +0.009 A 
ATOM     18  C   UNL     1      -1.210   1.678  -0.822  0.00  0.00    +0.001 A 
ATOM     19  C   UNL     1      -0.159   2.590  -0.902  0.00  0.00    +0.001 A 
ATOM     20  C   UNL     1       1.136   2.176  -0.826  0.00  0.00    +0.008 A 
ATOM     21  C   UNL     1       1.421   0.809  -0.663  0.00  0.00    -0.017 A 
ATOM     22  C   UNL     1       2.745   0.346  -0.580  0.00  0.00    +0.012 A 
ATOM     23  C   UNL     1       2.987  -0.983  -0.422  0.00  0.00    +0.046 A 
ATOM     24  C   UNL     1       1.934  -1.900  -0.341  0.00  0.00    +0.122 A 
BRANCH  24  25
ATOM     25  O   UNL     1       2.207  -3.221  -0.184  0.00  0.00    -0.506 OA
ATOM     26  H   UNL     1       3.250  -3.564  -0.121  0.00  0.00    +0.292 HD
ENDBRANCH  24  25
ENDBRANCH   8  15
BRANCH   1  28
ATOM     27  N   UNL     1      -0.604  -6.079  -4.481  0.00  0.00    -0.309 N 
ATOM     28  C   UNL     1      -0.388  -5.337  -3.377  0.00  0.00    +0.246 C 
ATOM     29  O   UNL     1       0.522  -4.531  -3.355  0.00  0.00    -0.270 OA
ATOM     30  H   UNL     1      -1.428  -6.808  -4.501  0.00  0.00    +0.149 HD
BRANCH  27  31
ATOM     31  C   UNL     1       0.257  -5.915  -5.655  0.00  0.00    +0.070 C 
ATOM     32  C   UNL     1       1.507  -6.782  -5.495  0.00  0.00    +0.028 C 
BRANCH  31  34
ATOM     33  C   UNL     1      -1.685  -5.398  -7.140  0.00  0.00    +0.005 C 
ATOM     34  C   UNL     1      -0.504  -6.344  -6.911  0.00  0.00    +0.018 C 
ENDBRANCH  31  34
ENDBRANCH  27  31
ENDBRANCH   1  28
TORSDOF 5
