REMARK  Name = ZINC39660039
REMARK  9 active torsions:
REMARK  status: ('A' for Active; 'I' for Inactive)
REMARK    1  A    between atoms: C_3  and  C_32
REMARK    2  A    between atoms: C_6  and  C_7
REMARK    3  A    between atoms: C_11  and  C_20
REMARK    4  A    between atoms: N_22  and  C_23
REMARK    5  A    between atoms: C_23  and  C_24
REMARK    6  A    between atoms: C_24  and  C_25
REMARK    7  A    between atoms: C_25  and  C_26
REMARK    8  A    between atoms: C_26  and  C_27
REMARK    9  A    between atoms: C_27  and  C_28
REMARK                            x       y       z     vdW  Elec       q    Type
REMARK                         _______ _______ _______ _____ _____    ______ ____
ROOT
ATOM      1  C   UNL     1      -1.264  -0.763   0.011  0.00  0.00    +0.247 C 
ATOM      2  O   UNL     1      -2.322  -0.177   0.133  0.00  0.00    -0.270 OA
ATOM      3  N   UNL     1      -1.246  -2.106  -0.098  0.00  0.00    -0.296 N 
ATOM      4  C   UNL     1      -0.065  -3.000  -0.125  0.00  0.00    +0.121 C 
ATOM      5  C   UNL     1      -0.487  -4.230   0.708  0.00  0.00    +0.100 C 
ATOM      6  C   UNL     1      -2.023  -4.241   0.641  0.00  0.00    -0.004 C 
ATOM      7  C   UNL     1      -2.405  -3.024  -0.213  0.00  0.00    +0.115 C 
ATOM      8  C   UNL     1      -2.514  -5.526  -0.019  0.00  0.00    -0.010 C 
ATOM      9  C   UNL     1      -4.045  -5.540  -0.021  0.00  0.00    -0.082 C 
ATOM     10  N   UNL     1      -4.540  -5.456   1.358  0.00  0.00    +0.379 N 
ATOM     11  C   UNL     1      -4.141  -4.175   1.955  0.00  0.00    -0.082 C 
ATOM     12  C   UNL     1      -2.614  -4.103   2.041  0.00  0.00    -0.010 C 
ATOM     13  H   UNL     1      -5.546  -5.526   1.358  0.00  0.00    -0.086 HD
ATOM     14  H   UNL     1      -4.152  -6.213   1.900  0.00  0.00    -0.086 HD
ENDROOT
BRANCH   1  20
ATOM     15  C   UNL     1       1.129  -0.539  -0.644  0.00  0.00    +0.014 A 
ATOM     16  C   UNL     1       2.309   0.175  -0.667  0.00  0.00    +0.016 A 
ATOM     17  C   UNL     1       2.380   1.421  -0.071  0.00  0.00    +0.090 A 
ATOM     18  C   UNL     1       1.267   1.961   0.554  0.00  0.00    +0.136 A 
ATOM     19  C   UNL     1       0.079   1.255   0.584  0.00  0.00    +0.052 A 
ATOM     20  C   UNL     1       0.004  -0.002  -0.017  0.00  0.00    +0.040 A 
ATOM     21  F   UNL     1       1.343   3.178   1.134  0.00  0.00    -0.205 F 
BRANCH  17  22
ATOM     22  C   UNL     1       3.673   2.195  -0.102  0.00  0.00    +0.420 C 
ATOM     23  F   UNL     1       4.645   1.453  -0.781  0.00  0.00    -0.166 F 
ATOM     24  F   UNL     1       3.472   3.414  -0.759  0.00  0.00    -0.166 F 
ATOM     25  F   UNL     1       4.102   2.437   1.208  0.00  0.00    -0.166 F 
ENDBRANCH  17  22
ENDBRANCH   1  20
BRANCH   5  26
ATOM     26  C   UNL     1       0.076  -5.491   0.104  0.00  0.00    +0.218 C 
ATOM     27  O   UNL     1       0.346  -5.530  -1.077  0.00  0.00    -0.275 OA
ATOM     28  N   UNL     1       0.280  -6.576   0.878  0.00  0.00    -0.315 N 
ATOM     29  H   UNL     1       0.064  -6.545   1.823  0.00  0.00    +0.149 HD
BRANCH  28  30
ATOM     30  C   UNL     1       0.827  -7.802   0.291  0.00  0.00    +0.104 C 
BRANCH  30  31
ATOM     31  C   UNL     1       0.958  -8.873   1.376  0.00  0.00    +0.019 C 
BRANCH  31  32
ATOM     32  C   UNL     1       1.529 -10.153   0.763  0.00  0.00    +0.002 C 
BRANCH  32  33
ATOM     33  C   UNL     1       1.660 -11.223   1.848  0.00  0.00    +0.011 C 
BRANCH  33  34
ATOM     34  C   UNL     1       2.231 -12.503   1.235  0.00  0.00    +0.125 C 
BRANCH  34  35
ATOM     35  C   UNL     1       2.360 -13.558   2.304  0.00  0.00    +0.356 C 
ATOM     36  O   UNL     1       2.026 -13.309   3.450  0.00  0.00    -0.246 OA
ATOM     37  O   UNL     1       2.799 -14.660   2.023  0.00  0.00    -0.246 OA
ENDBRANCH  34  35
ENDBRANCH  33  34
ENDBRANCH  32  33
ENDBRANCH  31  32
ENDBRANCH  30  31
ENDBRANCH  28  30
ENDBRANCH   5  26
TORSDOF 9
