REMARK  Name = ZINC35612775
REMARK  10 active torsions:
REMARK  status: ('A' for Active; 'I' for Inactive)
REMARK    1  A    between atoms: C_1  and  O_2
REMARK    2  A    between atoms: O_2  and  C_3
REMARK    3  A    between atoms: C_8  and  N_9
REMARK    4  A    between atoms: C_12  and  C_15
REMARK    5  A    between atoms: N_17  and  C_18
REMARK    6  A    between atoms: C_18  and  C_20
REMARK    7  A    between atoms: C_18  and  C_27
REMARK    8  A    between atoms: C_20  and  C_21
REMARK    9  A    between atoms: N_29  and  C_30
REMARK   10  A    between atoms: C_30  and  C_31
REMARK                            x       y       z     vdW  Elec       q    Type
REMARK                         _______ _______ _______ _____ _____    ______ ____
ROOT
ATOM      1  C   UNL     1      -1.079  -7.335   1.169  0.00  0.00    +0.264 C 
ATOM      2  O   UNL     1      -1.015  -8.522   0.912  0.00  0.00    -0.268 OA
ATOM      3  N   UNL     1      -1.734  -6.919   2.272  0.00  0.00    -0.298 N 
ATOM      4  H   UNL     1      -1.785  -5.973   2.478  0.00  0.00    +0.150 HD
ENDROOT
BRANCH   1   8
ATOM      5  N   UNL     1       0.096  -2.777  -0.113  0.00  0.00    -0.291 N 
ATOM      6  C   UNL     1       0.060  -4.156  -0.237  0.00  0.00    +0.163 A 
ATOM      7  N   UNL     1      -0.506  -5.048   0.552  0.00  0.00    -0.220 NA
ATOM      8  C   UNL     1      -0.442  -6.353   0.278  0.00  0.00    +0.135 A 
ATOM      9  C   UNL     1       0.227  -6.765  -0.847  0.00  0.00    +0.081 A 
ATOM     10  S   UNL     1       0.762  -5.193  -1.512  0.00  0.00    -0.060 S 
ATOM     11  H   UNL     1      -0.248  -2.353   0.689  0.00  0.00    +0.154 HD
BRANCH   5  17
ATOM     12  C   UNL     1       1.112  -0.717  -0.876  0.00  0.00    +0.141 A 
ATOM     13  C   UNL     1       1.642   0.050  -1.901  0.00  0.00    +0.047 A 
ATOM     14  C   UNL     1       1.684  -0.451  -3.189  0.00  0.00    +0.004 A 
ATOM     15  C   UNL     1       1.199  -1.718  -3.458  0.00  0.00    +0.002 A 
ATOM     16  C   UNL     1       0.669  -2.489  -2.442  0.00  0.00    +0.027 A 
ATOM     17  C   UNL     1       0.627  -1.995  -1.146  0.00  0.00    +0.075 A 
BRANCH  12  19
ATOM     18  C   UNL     1       1.584   1.092   0.594  0.00  0.00    +0.277 C 
ATOM     19  O   UNL     1       1.070  -0.226   0.392  0.00  0.00    -0.493 OA
ENDBRANCH  12  19
ENDBRANCH   5  17
ENDBRANCH   1   8
BRANCH   3  20
ATOM     20  C   UNL     1      -2.368  -7.897   3.159  0.00  0.00    +0.163 C 
BRANCH  20  21
ATOM     21  C   UNL     1      -2.478  -7.319   4.547  0.00  0.00    +0.234 C 
ATOM     22  O   UNL     1      -2.067  -6.201   4.772  0.00  0.00    -0.274 OA
ATOM     23  N   UNL     1      -3.033  -8.045   5.537  0.00  0.00    -0.311 N 
ATOM     24  H   UNL     1      -3.361  -8.940   5.357  0.00  0.00    +0.149 HD
BRANCH  23  25
ATOM     25  C   UNL     1      -3.139  -7.484   6.886  0.00  0.00    +0.135 C 
BRANCH  25  26
ATOM     26  C   UNL     1      -3.802  -8.505   7.813  0.00  0.00    +0.135 C 
ATOM     27  C   UNL     1      -4.028  -7.878   9.206  0.00  0.00    +0.035 C 
ATOM     28  C   UNL     1      -3.693  -9.059  10.157  0.00  0.00    +0.031 C 
ATOM     29  C   UNL     1      -2.565  -9.765   9.363  0.00  0.00    +0.160 C 
ATOM     30  O   UNL     1      -2.942  -9.638   7.981  0.00  0.00    -0.375 OA
ENDBRANCH  25  26
ENDBRANCH  23  25
ENDBRANCH  20  21
BRANCH  20  31
ATOM     31  C   UNL     1      -3.765  -8.232   2.634  0.00  0.00    +0.067 C 
BRANCH  31  32
ATOM     32  C   UNL     1      -3.648  -8.922   1.300  0.00  0.00    -0.045 A 
ATOM     33  C   UNL     1      -3.635  -8.177   0.135  0.00  0.00    +0.004 A 
ATOM     34  C   UNL     1      -3.528  -8.810  -1.089  0.00  0.00    +0.000 A 
ATOM     35  C   UNL     1      -3.434 -10.188  -1.149  0.00  0.00    +0.000 A 
ATOM     36  C   UNL     1      -3.446 -10.932   0.015  0.00  0.00    +0.000 A 
ATOM     37  C   UNL     1      -3.549 -10.299   1.240  0.00  0.00    +0.004 A 
ENDBRANCH  31  32
ENDBRANCH  20  31
ENDBRANCH   3  20
TORSDOF 9
