REMARK  Name = ZINC02918593
REMARK  2 active torsions:
REMARK  status: ('A' for Active; 'I' for Inactive)
REMARK    1  A    between atoms: C_4  and  C_8
REMARK    2  A    between atoms: C_11  and  C_19
REMARK                            x       y       z     vdW  Elec       q    Type
REMARK                         _______ _______ _______ _____ _____    ______ ____
ROOT
ATOM      1  C   UNL     1       3.713  -0.710  -0.038  0.00  0.00    +0.147 C 
ATOM      2  C   UNL     1       3.818  -1.603   1.205  0.00  0.00    +0.059 C 
ATOM      3  C   UNL     1       5.012  -2.553   1.060  0.00  0.00    +0.106 C 
ATOM      4  N   UNL     1       4.779  -3.428  -0.105  0.00  0.00    -0.307 N 
ATOM      5  C   UNL     1       4.284  -2.812  -1.247  0.00  0.00    +0.215 A 
ATOM      6  N   UNL     1       3.789  -1.549  -1.233  0.00  0.00    -0.226 N 
ATOM      7  N   UNL     1       3.395  -1.260  -2.540  0.00  0.00    -0.156 NA
ATOM      8  C   UNL     1       3.659  -2.323  -3.258  0.00  0.00    +0.247 A 
ATOM      9  N   UNL     1       4.196  -3.266  -2.468  0.00  0.00    -0.202 NA
ATOM     10  H   UNL     1       4.962  -4.380  -0.075  0.00  0.00    +0.149 HD
ENDROOT
BRANCH   1  14
ATOM     11  C   UNL     1      -0.017   1.378   0.010  0.00  0.00    +0.004 A 
ATOM     12  C   UNL     1       1.170   2.086   0.002  0.00  0.00    +0.039 A 
ATOM     13  C   UNL     1       2.379   1.411  -0.013  0.00  0.00    +0.130 A 
ATOM     14  C   UNL     1       2.398   0.026  -0.021  0.00  0.00    +0.031 A 
ATOM     15  C   UNL     1       1.209  -0.680  -0.013  0.00  0.00    +0.049 A 
ATOM     16  C   UNL     1       0.002  -0.004   0.002  0.00  0.00    +0.020 A 
ATOM     17 CL   UNL     1       1.232  -2.416  -0.022  0.00  0.00    -0.083 Cl
ATOM     18  F   UNL     1       3.539   2.103  -0.021  0.00  0.00    -0.205 F 
ENDBRANCH   1  14
BRANCH   3  19
ATOM     19  C   UNL     1       5.148  -3.389   2.307  0.00  0.00    -0.027 A 
ATOM     20  C   UNL     1       4.341  -4.497   2.486  0.00  0.00    +0.006 A 
ATOM     21  C   UNL     1       4.466  -5.264   3.629  0.00  0.00    +0.015 A 
ATOM     22  C   UNL     1       5.397  -4.923   4.593  0.00  0.00    +0.018 A 
ATOM     23  C   UNL     1       6.204  -3.814   4.413  0.00  0.00    +0.015 A 
ATOM     24  C   UNL     1       6.082  -3.050   3.267  0.00  0.00    +0.006 A 
ATOM     25 BR   UNL     1       5.567  -5.972   6.157  0.00  0.00    -0.050 Br
ENDBRANCH   3  19
TORSDOF 2
