REMARK  Name = ZINC16866707
REMARK  9 active torsions:
REMARK  status: ('A' for Active; 'I' for Inactive)
REMARK    1  A    between atoms: C_1  and  C_2
REMARK    2  A    between atoms: C_7  and  C_8
REMARK    3  A    between atoms: C_11  and  S_14
REMARK    4  A    between atoms: N_12  and  C_13
REMARK    5  A    between atoms: S_14  and  C_15
REMARK    6  A    between atoms: C_15  and  C_17
REMARK    7  A    between atoms: C_15  and  C_18
REMARK    8  A    between atoms: C_30  and  C_31
REMARK    9  A    between atoms: C_30  and  C_32
REMARK                            x       y       z     vdW  Elec       q    Type
REMARK                         _______ _______ _______ _____ _____    ______ ____
ROOT
ATOM      1  C   UNL     1       1.105  -6.877   0.387  0.00  0.00    +0.137 C 
ATOM      2  C   UNL     1       1.454  -6.439  -1.037  0.00  0.00    +0.029 C 
ENDROOT
BRANCH   1   3
ATOM      3  C   UNL     1       0.567  -8.284   0.363  0.00  0.00    +0.234 C 
ATOM      4  O   UNL     1      -0.556  -8.497  -0.042  0.00  0.00    -0.274 OA
ATOM      5  N   UNL     1       1.334  -9.307   0.791  0.00  0.00    -0.255 N 
ATOM      6  C   UNL     1       2.684  -9.110   1.122  0.00  0.00    +0.059 A 
ATOM      7  C   UNL     1       3.434  -8.121   0.516  0.00  0.00    +0.025 A 
ATOM      8  C   UNL     1       4.762  -7.953   0.867  0.00  0.00    +0.002 A 
ATOM      9  C   UNL     1       5.337  -8.770   1.823  0.00  0.00    +0.002 A 
ATOM     10  C   UNL     1       4.591  -9.758   2.439  0.00  0.00    +0.025 A 
ATOM     11  C   UNL     1       3.259  -9.931   2.096  0.00  0.00    +0.055 A 
ATOM     12  N   UNL     1       2.485 -10.921   2.711  0.00  0.00    -0.282 N 
ATOM     13  C   UNL     1       1.293 -11.280   2.199  0.00  0.00    +0.241 C 
ATOM     14  O   UNL     1       0.619 -12.109   2.773  0.00  0.00    -0.273 OA
ATOM     15  C   UNL     1       0.786 -10.665   0.920  0.00  0.00    +0.113 C 
ATOM     16  C   UNL     1      -0.742 -10.598   0.955  0.00  0.00    +0.042 C 
ATOM     17  C   UNL     1       1.236 -11.514  -0.271  0.00  0.00    +0.042 C 
ATOM     18  H   UNL     1       2.811 -11.354   3.516  0.00  0.00    +0.155 HD
ENDBRANCH   1   3
BRANCH   1  19
ATOM     19  S   UNL     1      -0.148  -5.764   1.071  0.00  0.00    -0.074 S 
BRANCH  19  23
ATOM     20  C   UNL     1       1.381  -2.186   1.420  0.00  0.00    +0.165 A 
ATOM     21  N   UNL     1       2.379  -2.878   0.923  0.00  0.00    -0.128 NA
ATOM     22  N   UNL     1       2.021  -4.100   0.748  0.00  0.00    -0.122 NA
ATOM     23  C   UNL     1       0.772  -4.263   1.124  0.00  0.00    +0.192 A 
ATOM     24  N   UNL     1       0.323  -3.052   1.570  0.00  0.00    -0.305 N 
ATOM     25  C   UNL     1      -1.008  -2.741   2.095  0.00  0.00    +0.153 C 
BRANCH  20  32
ATOM     26  C   UNL     1       3.597  -1.091   2.925  0.00  0.00    +0.044 C 
ATOM     27  C   UNL     1       2.457  -0.208   2.486  0.00  0.00    -0.040 A 
ATOM     28  C   UNL     1       2.463   1.136   2.801  0.00  0.00    +0.004 A 
ATOM     29  C   UNL     1       1.417   1.948   2.399  0.00  0.00    +0.000 A 
ATOM     30  C   UNL     1       0.360   1.419   1.680  0.00  0.00    +0.001 A 
ATOM     31  C   UNL     1       0.342   0.078   1.359  0.00  0.00    +0.012 A 
ATOM     32  C   UNL     1       1.394  -0.747   1.761  0.00  0.00    +0.022 A 
ENDBRANCH  20  32
ENDBRANCH  19  23
ENDBRANCH   1  19
TORSDOF 4
