REMARK  Name = ZINC08780778
REMARK  8 active torsions:
REMARK  status: ('A' for Active; 'I' for Inactive)
REMARK    1  A    between atoms: C_3  and  N_33
REMARK    2  A    between atoms: C_6  and  C_7
REMARK    3  A    between atoms: C_7  and  N_58
REMARK    4  A    between atoms: C_10  and  C_13
REMARK    5  A    between atoms: N_15  and  N_16
REMARK    6  A    between atoms: C_17  and  C_18
REMARK    7  A    between atoms: C_21  and  C_23
REMARK    8  A    between atoms: C_25  and  N_30
REMARK                            x       y       z     vdW  Elec       q    Type
REMARK                         _______ _______ _______ _____ _____    ______ ____
ROOT
ATOM      1  C   UNL     1      -4.634   1.759   0.036  0.00  0.00    +0.235 C 
ATOM      2  O   UNL     1      -4.741   0.555   0.030  0.00  0.00    -0.274 OA
ATOM      3  N   UNL     1      -3.412   2.326   0.032  0.00  0.00    -0.207 N 
ATOM      4  H   UNL     1      -3.325   3.293   0.037  0.00  0.00    +0.177 HD
ENDROOT
BRANCH   1   7
ATOM      5  C   UNL     1      -8.363   2.623   0.121  0.00  0.00    -0.078 C 
ATOM      6  C   UNL     1      -7.115   1.739   0.048  0.00  0.00    -0.006 C 
ATOM      7  C   UNL     1      -5.867   2.625   0.046  0.00  0.00    +0.073 C 
ATOM      8  C   UNL     1      -5.868   3.498   1.305  0.00  0.00    -0.006 C 
ATOM      9  C   UNL     1      -7.152   4.331   1.341  0.00  0.00    -0.078 C 
ATOM     10  N   UNL     1      -8.315   3.419   1.366  0.00  0.00    +0.382 N 
ATOM     11  H   UNL     1      -8.221   2.781   2.165  0.00  0.00    -0.081 HD
BRANCH  10  12
ATOM     12  C   UNL     1      -9.562   4.196   1.516  0.00  0.00    -0.043 C 
BRANCH  12  18
ATOM     13  C   UNL     1     -10.131   4.134   3.953  0.00  0.00    +0.004 A 
ATOM     14  C   UNL     1     -10.145   4.706   5.211  0.00  0.00    +0.033 A 
ATOM     15  C   UNL     1      -9.620   5.970   5.401  0.00  0.00    +0.126 A 
ATOM     16  C   UNL     1      -9.075   6.660   4.334  0.00  0.00    +0.033 A 
ATOM     17  C   UNL     1      -9.057   6.086   3.077  0.00  0.00    +0.004 A 
ATOM     18  C   UNL     1      -9.582   4.822   2.886  0.00  0.00    -0.064 A 
BRANCH  15  19
ATOM     19  N   UNL     1      -9.639   6.585   6.747  0.00  0.00    +0.056 N 
ATOM     20  O   UNL     1      -9.175   7.699   6.915  0.00  0.00    -0.126 OA
ATOM     21  O   UNL     1     -10.119   5.977   7.688  0.00  0.00    -0.126 OA
ENDBRANCH  15  19
ENDBRANCH  12  18
ENDBRANCH  10  12
ENDBRANCH   1   7
BRANCH   3  22
ATOM     22  N   UNL     1      -2.356   1.585   0.023  0.00  0.00    -0.185 NA
ATOM     23  C   UNL     1      -1.153   2.143   0.019  0.00  0.00    +0.176 C 
BRANCH  23  24
ATOM     24  C   UNL     1      -0.016   1.345   0.009  0.00  0.00    +0.148 A 
ATOM     25  C   UNL     1       1.373   1.824  -0.001  0.00  0.00    +0.051 A 
ATOM     26  C   UNL     1       2.164   0.721  -0.015  0.00  0.00    +0.050 A 
ATOM     27  C   UNL     1       1.274  -0.439  -0.013  0.00  0.00    +0.137 A 
ATOM     28  O   UNL     1       0.002  -0.004   0.002  0.00  0.00    -0.454 OA
BRANCH  27  29
ATOM     29  C   UNL     1       1.684  -1.794  -0.023  0.00  0.00    +0.038 A 
ATOM     30  C   UNL     1       1.149  -2.705   0.909  0.00  0.00    +0.045 A 
ATOM     31  C   UNL     1       1.550  -4.009   0.892  0.00  0.00    +0.127 A 
ATOM     32  C   UNL     1       2.482  -4.446  -0.040  0.00  0.00    +0.034 A 
ATOM     33  C   UNL     1       3.019  -3.566  -0.965  0.00  0.00    +0.023 A 
ATOM     34  C   UNL     1       2.626  -2.244  -0.971  0.00  0.00    +0.052 A 
ATOM     35 CL   UNL     1       3.292  -1.140  -2.134  0.00  0.00    -0.083 Cl
BRANCH  31  36
ATOM     36  N   UNL     1       0.987  -4.964   1.872  0.00  0.00    +0.056 N 
ATOM     37  O   UNL     1       0.102  -4.554   2.757  0.00  0.00    -0.126 OA
ATOM     38  O   UNL     1       1.370  -6.224   1.859  0.00  0.00    -0.126 OA
ENDBRANCH  31  36
ENDBRANCH  27  29
ENDBRANCH  23  24
ENDBRANCH   3  22
TORSDOF 8
