REMARK  Name = ZINC62222594
REMARK  9 active torsions:
REMARK  status: ('A' for Active; 'I' for Inactive)
REMARK    1  A    between atoms: C_1  and  C_2
REMARK    2  A    between atoms: C_2  and  C_3
REMARK    3  A    between atoms: C_3  and  C_5
REMARK    4  A    between atoms: C_3  and  N_6
REMARK    5  A    between atoms: N_9  and  C_10
REMARK    6  A    between atoms: C_10  and  C_11
REMARK    7  A    between atoms: C_11  and  C_12
REMARK    8  A    between atoms: C_16  and  O_25
REMARK    9  A    between atoms: O_25  and  C_26
REMARK                            x       y       z     vdW  Elec       q    Type
REMARK                         _______ _______ _______ _____ _____    ______ ____
ROOT
ATOM      1  C   UNL     1       0.181   1.096  -8.406  0.00  0.00    +0.019 A 
ATOM      2  C   UNL     1       0.198   0.063  -9.285  0.00  0.00    +0.019 A 
ATOM      3  C   UNL     1       0.875   0.249 -10.569  0.00  0.00    +0.002 A 
ATOM      4  C   UNL     1       0.924  -0.781 -11.515  0.00  0.00    +0.057 A 
ATOM      5  C   UNL     1       1.570  -0.573 -12.716  0.00  0.00    +0.139 A 
ATOM      6  C   UNL     1       2.172   0.655 -12.988  0.00  0.00    +0.084 A 
ATOM      7  C   UNL     1       2.131   1.676 -12.064  0.00  0.00    +0.050 A 
ATOM      8  C   UNL     1       1.484   1.487 -10.847  0.00  0.00    +0.051 A 
ATOM      9  N   UNL     1       1.431   2.498  -9.909  0.00  0.00    -0.322 N 
ATOM     10  H   UNL     1       1.851   3.351 -10.102  0.00  0.00    +0.169 HD
ATOM     11  C   UNL     1       0.802   2.319  -8.735  0.00  0.00    +0.252 A 
ATOM     12  O   UNL     1       0.770   3.236  -7.932  0.00  0.00    -0.268 OA
ATOM     13 CL   UNL     1       2.981   0.899 -14.504  0.00  0.00    -0.080 Cl
ENDROOT
BRANCH   5  14
ATOM     14  O   UNL     1       1.620  -1.571 -13.639  0.00  0.00    -0.494 OA
ATOM     15  C   UNL     1       0.984  -2.803 -13.298  0.00  0.00    +0.277 C 
ENDBRANCH   5  14
BRANCH   1  16
ATOM     16  C   UNL     1      -0.507   0.937  -7.075  0.00  0.00    +0.059 C 
BRANCH  16  17
ATOM     17  C   UNL     1       0.519   0.535  -6.014  0.00  0.00    +0.110 C 
BRANCH  17  21
ATOM     18  N   UNL     1      -0.055  -0.114  -2.441  0.00  0.00    -0.297 N 
ATOM     19  C   UNL     1       0.561   0.028  -3.631  0.00  0.00    +0.300 C 
ATOM     20  O   UNL     1       1.758  -0.163  -3.722  0.00  0.00    -0.253 OA
ATOM     21  N   UNL     1      -0.150   0.381  -4.720  0.00  0.00    -0.299 N 
ATOM     22  H   UNL     1      -1.010   0.038  -2.368  0.00  0.00    +0.151 HD
ATOM     23  H   UNL     1      -1.105   0.533  -4.647  0.00  0.00    +0.150 HD
BRANCH  18  24
ATOM     24  C   UNL     1       0.718  -0.497  -1.257  0.00  0.00    +0.071 C 
ATOM     25  C   UNL     1       0.849  -2.021  -1.205  0.00  0.00    +0.028 C 
BRANCH  24  27
ATOM     26  C   UNL     1      -0.019   1.526   0.010  0.00  0.00    +0.005 C 
ATOM     27  C   UNL     1       0.002  -0.004   0.002  0.00  0.00    +0.019 C 
ENDBRANCH  24  27
ENDBRANCH  18  24
ENDBRANCH  17  21
ENDBRANCH  16  17
ENDBRANCH   1  16
TORSDOF 6
