REMARK  Name = ZINC03843712
REMARK  6 active torsions:
REMARK  status: ('A' for Active; 'I' for Inactive)
REMARK    1  A    between atoms: C_1  and  C_2
REMARK    2  A    between atoms: C_5  and  S_8
REMARK    3  A    between atoms: S_8  and  O_11
REMARK    4  A    between atoms: O_11  and  C_12
REMARK    5  A    between atoms: C_16  and  C_36
REMARK    6  A    between atoms: C_28  and  C_35
REMARK                            x       y       z     vdW  Elec       q    Type
REMARK                         _______ _______ _______ _____ _____    ______ ____
ROOT
ATOM      1  C   UNL     1       0.838   4.040   3.840  0.00  0.00    +0.150 C 
ATOM      2  C   UNL     1       1.934   3.026   3.491  0.00  0.00    +0.034 C 
ATOM      3  C   UNL     1       1.487   2.278   2.238  0.00  0.00    +0.010 C 
ATOM      4  C   UNL     1       0.171   1.550   2.467  0.00  0.00    -0.026 C 
ATOM      5  C   UNL     1      -0.595   1.946   3.678  0.00  0.00    -0.002 C 
ATOM      6  C   UNL     1      -0.397   3.291   4.306  0.00  0.00    +0.038 C 
ATOM      7  C   UNL     1      -2.030   1.475   3.779  0.00  0.00    +0.004 C 
ATOM      8  C   UNL     1      -2.795   1.659   2.465  0.00  0.00    +0.004 C 
ATOM      9  C   UNL     1      -2.012   0.923   1.384  0.00  0.00    -0.003 C 
ATOM     10  C   UNL     1      -0.667   1.619   1.204  0.00  0.00    -0.001 C 
ATOM     11  C   UNL     1       0.020   1.111  -0.052  0.00  0.00    +0.005 C 
ATOM     12  C   UNL     1      -0.744   1.594  -1.298  0.00  0.00    +0.007 C 
ATOM     13  C   UNL     1      -2.209   1.769  -0.999  0.00  0.00    -0.022 C 
ATOM     14  C   UNL     1      -2.705   0.773   0.068  0.00  0.00    +0.006 C 
ATOM     15  C   UNL     1      -4.221   1.008   0.024  0.00  0.00    +0.078 C 
ATOM     16  C   UNL     1      -4.504   1.197  -1.469  0.00  0.00    +0.134 C 
ATOM     17  O   UNL     1      -5.588   1.194  -2.000  0.00  0.00    -0.297 OA
ATOM     18  C   UNL     1      -3.158   1.395  -2.161  0.00  0.00    +0.081 C 
ATOM     19  C   UNL     1      -2.527   3.223  -0.638  0.00  0.00    +0.012 C 
ATOM     20  C   UNL     1       0.557   0.087   2.671  0.00  0.00    +0.012 C 
ENDROOT
BRANCH   1  21
ATOM     21  O   UNL     1       0.520   4.826   2.690  0.00  0.00    -0.231 OA
BRANCH  21  22
ATOM     22  S   UNL     1       1.265   6.152   2.622  0.00  0.00    +0.112 S 
ATOM     23  O   UNL     1       0.687   6.887   1.552  0.00  0.00    -0.142 OA
ATOM     24  O   UNL     1       1.321   6.655   3.949  0.00  0.00    -0.142 OA
BRANCH  22  29
ATOM     25  C   UNL     1       6.946   4.923   1.000  0.00  0.00    +0.044 C 
ATOM     26  C   UNL     1       5.527   5.231   1.405  0.00  0.00    -0.050 A 
ATOM     27  C   UNL     1       4.571   5.482   0.439  0.00  0.00    +0.005 A 
ATOM     28  C   UNL     1       3.270   5.764   0.810  0.00  0.00    +0.030 A 
ATOM     29  C   UNL     1       2.924   5.793   2.148  0.00  0.00    +0.117 A 
ATOM     30  C   UNL     1       3.881   5.546   3.115  0.00  0.00    +0.030 A 
ATOM     31  C   UNL     1       5.181   5.261   2.743  0.00  0.00    +0.005 A 
ENDBRANCH  22  29
ENDBRANCH  21  22
ENDBRANCH   1  21
TORSDOF 3
