REMARK  Name = ZINC08972540
REMARK  8 active torsions:
REMARK  status: ('A' for Active; 'I' for Inactive)
REMARK    1  A    between atoms: C_1  and  C_2
REMARK    2  A    between atoms: C_5  and  S_7
REMARK    3  A    between atoms: S_7  and  N_10
REMARK    4  A    between atoms: N_10  and  C_11
REMARK    5  A    between atoms: C_11  and  C_12
REMARK    6  A    between atoms: C_15  and  S_17
REMARK    7  A    between atoms: S_17  and  C_20
REMARK    8  A    between atoms: C_20  and  C_21
REMARK                            x       y       z     vdW  Elec       q    Type
REMARK                         _______ _______ _______ _____ _____    ______ ____
ROOT
ATOM      1  C   UNL     1       1.237  -0.420  -0.012  0.00  0.00    +0.234 A 
ATOM      2  N   UNL     1       0.002  -0.004   0.002  0.00  0.00    -0.110 NA
ATOM      3  N   UNL     1      -0.015   1.282   0.009  0.00  0.00    -0.090 NA
ATOM      4  C   UNL     1       1.208   1.732  -0.000  0.00  0.00    +0.361 A 
ATOM      5  O   UNL     1       2.027   0.667  -0.014  0.00  0.00    -0.406 OA
ENDROOT
BRANCH   4   6
ATOM      6  S   UNL     1       1.697   3.424   0.003  0.00  0.00    +0.053 S 
ATOM      7  O   UNL     1       2.978   3.433  -0.612  0.00  0.00    -0.165 OA
ATOM      8  O   UNL     1       0.606   4.118  -0.586  0.00  0.00    -0.165 OA
BRANCH   6   9
ATOM      9  C   UNL     1       1.843   3.863   1.757  0.00  0.00    +0.213 C 
BRANCH   9  10
ATOM     10  C   UNL     1       2.262   5.306   1.881  0.00  0.00    -0.008 A 
ATOM     11  C   UNL     1       3.603   5.635   1.930  0.00  0.00    +0.007 A 
ATOM     12  C   UNL     1       3.987   6.958   2.039  0.00  0.00    +0.000 A 
ATOM     13  C   UNL     1       3.030   7.953   2.108  0.00  0.00    +0.001 A 
ATOM     14  C   UNL     1       1.688   7.625   2.064  0.00  0.00    +0.020 A 
ATOM     15  C   UNL     1       1.303   6.301   1.950  0.00  0.00    +0.046 A 
ATOM     16 CL   UNL     1      -0.382   5.888   1.895  0.00  0.00    -0.083 Cl
ENDBRANCH   9  10
ENDBRANCH   6   9
ENDBRANCH   4   6
BRANCH   1  17
ATOM     17  C   UNL     1       1.694  -1.855  -0.024  0.00  0.00    +0.203 C 
BRANCH  17  18
ATOM     18  N   UNL     1       1.830  -2.313  -1.409  0.00  0.00    -0.180 NA
ATOM     19  H   UNL     1       1.433  -1.800  -2.131  0.00  0.00    +0.149 HD
BRANCH  18  20
ATOM     20  S   UNL     1       2.661  -3.706  -1.743  0.00  0.00    +0.065 S 
ATOM     21  O   UNL     1       2.593  -3.892  -3.151  0.00  0.00    -0.153 OA
ATOM     22  O   UNL     1       3.896  -3.619  -1.045  0.00  0.00    -0.153 OA
BRANCH  20  27
ATOM     23  C   UNL     1       0.205  -8.003   1.498  0.00  0.00    +0.051 C 
ATOM     24  C   UNL     1       0.656  -6.990   0.477  0.00  0.00    -0.011 A 
ATOM     25  C   UNL     1       0.210  -6.797  -0.788  0.00  0.00    +0.013 A 
ATOM     26  C   UNL     1       0.777  -5.795  -1.553  0.00  0.00    +0.036 A 
ATOM     27  C   UNL     1       1.763  -5.036  -1.016  0.00  0.00    +0.143 A 
ATOM     28  S   UNL     1       1.921  -5.738   0.618  0.00  0.00    -0.074 S 
ENDBRANCH  20  27
ENDBRANCH  18  20
ENDBRANCH  17  18
ENDBRANCH   1  17
TORSDOF 7
