REMARK  Name = ZINC53915061
REMARK  7 active torsions:
REMARK  status: ('A' for Active; 'I' for Inactive)
REMARK    1  A    between atoms: C_1  and  C_2
REMARK    2  A    between atoms: N_7  and  C_10
REMARK    3  A    between atoms: C_12  and  C_13
REMARK    4  A    between atoms: N_15  and  C_16
REMARK    5  A    between atoms: N_15  and  C_17
REMARK    6  A    between atoms: C_17  and  C_18
REMARK    7  A    between atoms: C_23  and  O_24
REMARK                            x       y       z     vdW  Elec       q    Type
REMARK                         _______ _______ _______ _____ _____    ______ ____
ROOT
ATOM      1  C   UNL     1       0.257  -0.172   2.587  0.00  0.00    +0.254 C 
ATOM      2  O   UNL     1       0.273   1.029   2.782  0.00  0.00    -0.269 OA
ATOM      3  N   UNL     1      -0.050  -1.014   3.594  0.00  0.00    -0.296 N 
ATOM      4  C   UNL     1      -0.033  -2.461   3.370  0.00  0.00    +0.132 C 
ENDROOT
BRANCH   1  16
ATOM      5  C   UNL     1       0.632   1.480   0.065  0.00  0.00    +0.046 C 
ATOM      6  C   UNL     1       0.753  -0.022   0.090  0.00  0.00    -0.017 A 
ATOM      7  C   UNL     1       1.056  -0.720  -1.082  0.00  0.00    +0.076 A 
ATOM      8  C   UNL     1       1.147  -2.125  -0.956  0.00  0.00    +0.116 A 
ATOM      9  N   UNL     1       1.428  -2.904  -1.992  0.00  0.00    -0.230 NA
ATOM     10  C   UNL     1       1.635  -2.411  -3.183  0.00  0.00    +0.203 A 
ATOM     11  N   UNL     1       1.574  -1.079  -3.427  0.00  0.00    -0.302 N 
ATOM     12  C   UNL     1       1.296  -0.198  -2.446  0.00  0.00    +0.262 A 
ATOM     13  O   UNL     1       1.244   0.997  -2.676  0.00  0.00    -0.267 OA
ATOM     14  C   UNL     1       1.816  -0.587  -4.786  0.00  0.00    +0.153 C 
ATOM     15  S   UNL     1       0.812  -2.402   0.765  0.00  0.00    -0.064 S 
ATOM     16  C   UNL     1       0.572  -0.703   1.258  0.00  0.00    +0.080 A 
ENDBRANCH   1  16
BRANCH   3  17
ATOM     17  C   UNL     1      -0.401  -0.481   4.913  0.00  0.00    +0.146 C 
BRANCH  17  18
ATOM     18  C   UNL     1      -1.890  -0.256   4.984  0.00  0.00    +0.011 A 
ATOM     19  C   UNL     1      -2.406   1.013   4.802  0.00  0.00    +0.009 A 
ATOM     20  C   UNL     1      -3.771   1.220   4.867  0.00  0.00    +0.001 A 
ATOM     21  C   UNL     1      -4.623   0.160   5.114  0.00  0.00    +0.004 A 
ATOM     22  C   UNL     1      -4.112  -1.110   5.296  0.00  0.00    +0.046 A 
ATOM     23  C   UNL     1      -2.743  -1.322   5.226  0.00  0.00    +0.122 A 
BRANCH  23  24
ATOM     24  O   UNL     1      -2.237  -2.572   5.399  0.00  0.00    -0.506 OA
ATOM     25  H   UNL     1      -2.027  -2.787   6.319  0.00  0.00    +0.292 HD
ENDBRANCH  23  24
ENDBRANCH  17  18
ENDBRANCH   3  17
TORSDOF 4
