REMARK  Name = ZINC37261863
REMARK  7 active torsions:
REMARK  status: ('A' for Active; 'I' for Inactive)
REMARK    1  A    between atoms: C_1  and  C_2
REMARK    2  A    between atoms: C_2  and  C_4
REMARK    3  A    between atoms: C_2  and  N_13
REMARK    4  A    between atoms: N_13  and  C_14
REMARK    5  A    between atoms: C_14  and  C_15
REMARK    6  A    between atoms: C_15  and  S_16
REMARK    7  A    between atoms: S_16  and  N_19
REMARK                            x       y       z     vdW  Elec       q    Type
REMARK                         _______ _______ _______ _____ _____    ______ ____
ROOT
ATOM      1  C   UNL     1      -0.019   1.526   0.010  0.00  0.00    -0.009 C 
ATOM      2  C   UNL     1       0.002  -0.004   0.002  0.00  0.00    -0.043 C 
ENDROOT
BRANCH   2   3
ATOM      3  C   UNL     1       0.707  -0.490  -1.238  0.00  0.00    -0.042 A 
ATOM      4  C   UNL     1       2.025  -0.904  -1.166  0.00  0.00    +0.005 A 
ATOM      5  C   UNL     1       2.673  -1.350  -2.302  0.00  0.00    +0.022 A 
ATOM      6  C   UNL     1       2.004  -1.382  -3.513  0.00  0.00    +0.061 A 
ATOM      7  C   UNL     1       0.685  -0.968  -3.586  0.00  0.00    +0.078 A 
ATOM      8  C   UNL     1       0.035  -0.527  -2.446  0.00  0.00    +0.062 A 
ATOM      9 CL   UNL     1      -1.621  -0.014  -2.534  0.00  0.00    -0.082 Cl
ATOM     10 CL   UNL     1      -0.155  -1.007  -5.105  0.00  0.00    -0.081 Cl
ATOM     11 CL   UNL     1       2.819  -1.941  -4.941  0.00  0.00    -0.082 Cl
ENDBRANCH   2   3
BRANCH   2  12
ATOM     12  N   UNL     1       0.713  -0.491   1.192  0.00  0.00    +0.385 N 
ATOM     13  H   UNL     1       0.798  -1.495   1.145  0.00  0.00    -0.085 HD
ATOM     14  H   UNL     1       1.632  -0.076   1.228  0.00  0.00    -0.085 HD
BRANCH  12  15
ATOM     15  C   UNL     1      -0.040  -0.119   2.398  0.00  0.00    -0.057 C 
BRANCH  15  16
ATOM     16  C   UNL     1       0.700  -0.626   3.637  0.00  0.00    +0.166 C 
BRANCH  16  17
ATOM     17  S   UNL     1      -0.229  -0.167   5.126  0.00  0.00    +0.025 S 
ATOM     18  O   UNL     1      -0.206   1.243   5.302  0.00  0.00    -0.158 OA
ATOM     19  O   UNL     1      -1.455  -0.883   5.178  0.00  0.00    -0.158 OA
BRANCH  17  20
ATOM     20  N   UNL     1       0.664  -0.764   6.386  0.00  0.00    -0.208 NA
ATOM     21  H   UNL     1       1.491  -1.240   6.212  0.00  0.00    +0.144 HD
ATOM     22  H   UNL     1       0.360  -0.639   7.299  0.00  0.00    +0.144 HD
ENDBRANCH  17  20
ENDBRANCH  16  17
ENDBRANCH  15  16
ENDBRANCH  12  15
ENDBRANCH   2  12
TORSDOF 6
