REMARK  Name = ZINC54184714
REMARK  6 active torsions:
REMARK  status: ('A' for Active; 'I' for Inactive)
REMARK    1  A    between atoms: C_1  and  C_2
REMARK    2  A    between atoms: C_2  and  C_3
REMARK    3  A    between atoms: C_3  and  C_5
REMARK    4  A    between atoms: C_3  and  N_18
REMARK    5  A    between atoms: C_5  and  C_6
REMARK    6  A    between atoms: C_8  and  C_11
REMARK                            x       y       z     vdW  Elec       q    Type
REMARK                         _______ _______ _______ _____ _____    ______ ____
ROOT
ATOM      1  C   UNL     1       1.706  -2.521   2.328  0.00  0.00    +0.171 A 
ATOM      2  N   UNL     1       3.033  -2.662   2.320  0.00  0.00    -0.192 NA
ATOM      3  C   UNL     1       3.445  -3.106   3.486  0.00  0.00    +0.259 A 
ATOM      4  O   UNL     1       2.368  -3.260   4.275  0.00  0.00    -0.333 OA
ATOM      5  N   UNL     1       1.248  -2.867   3.497  0.00  0.00    -0.061 NA
ENDROOT
BRANCH   3   6
ATOM      6  C   UNL     1       4.846  -3.387   3.863  0.00  0.00    +0.053 A 
ATOM      7  C   UNL     1       5.875  -3.177   2.944  0.00  0.00    +0.014 A 
ATOM      8  C   UNL     1       7.181  -3.442   3.302  0.00  0.00    +0.001 A 
ATOM      9  C   UNL     1       7.472  -3.914   4.570  0.00  0.00    +0.001 A 
ATOM     10  C   UNL     1       6.457  -4.125   5.486  0.00  0.00    +0.015 A 
ATOM     11  C   UNL     1       5.147  -3.858   5.143  0.00  0.00    +0.026 A 
ATOM     12  I   UNL     1       3.612  -4.169   6.535  0.00  0.00    -0.043 I 
ENDBRANCH   3   6
BRANCH   1  13
ATOM     13  C   UNL     1       0.872  -2.034   1.171  0.00  0.00    +0.063 C 
BRANCH  13  14
ATOM     14  C   UNL     1       0.742  -0.511   1.242  0.00  0.00    -0.068 C 
BRANCH  14  15
ATOM     15  N   UNL     1      -0.010  -0.139   2.447  0.00  0.00    +0.380 N 
ATOM     16  H   UNL     1       0.478  -0.473   3.265  0.00  0.00    -0.090 HD
ATOM     17  H   UNL     1      -0.096   0.865   2.494  0.00  0.00    -0.090 HD
ATOM     18  H   UNL     1      -0.929  -0.554   2.411  0.00  0.00    -0.090 HD
ENDBRANCH  14  15
BRANCH  14  20
ATOM     19  C   UNL     1      -0.019   1.526   0.010  0.00  0.00    +0.002 C 
ATOM     20  C   UNL     1       0.002  -0.004   0.002  0.00  0.00    -0.019 C 
ENDBRANCH  14  20
ENDBRANCH  13  14
ENDBRANCH   1  13
TORSDOF 5
