REMARK  Name = ZINC19836130
REMARK  12 active torsions:
REMARK  status: ('A' for Active; 'I' for Inactive)
REMARK    1  A    between atoms: C_1  and  C_2
REMARK    2  A    between atoms: C_2  and  N_3
REMARK    3  A    between atoms: C_4  and  C_27
REMARK    4  A    between atoms: C_6  and  C_13
REMARK    5  A    between atoms: C_9  and  C_10
REMARK    6  A    between atoms: C_9  and  C_11
REMARK    7  A    between atoms: C_11  and  O_12
REMARK    8  A    between atoms: C_13  and  N_14
REMARK    9  A    between atoms: N_14  and  C_15
REMARK   10  A    between atoms: C_15  and  C_16
REMARK   11  A    between atoms: C_21  and  O_22
REMARK   12  A    between atoms: O_22  and  C_23
REMARK                            x       y       z     vdW  Elec       q    Type
REMARK                         _______ _______ _______ _____ _____    ______ ____
ROOT
ATOM      1  N   UNL     1      -0.621   0.200   8.672  0.00  0.00    +0.389 N 
ATOM      2  C   UNL     1      -0.852  -0.401   7.341  0.00  0.00    -0.035 C 
ATOM      3  C   UNL     1      -0.326   0.602   6.296  0.00  0.00    -0.039 C 
ATOM      4  C   UNL     1       0.240   1.782   7.118  0.00  0.00    -0.010 C 
ATOM      5  C   UNL     1       0.516   1.140   8.501  0.00  0.00    -0.044 C 
ATOM      6  C   UNL     1       1.846   0.384   8.489  0.00  0.00    -0.007 C 
ATOM      7  H   UNL     1      -1.521   0.710   9.046  0.00  0.00    -0.080 HD
ENDROOT
BRANCH   2   8
ATOM      8  C   UNL     1      -2.325  -0.635   7.131  0.00  0.00    -0.061 A 
ATOM      9  C   UNL     1      -3.245   0.279   7.612  0.00  0.00    +0.003 A 
ATOM     10  C   UNL     1      -4.597   0.067   7.415  0.00  0.00    +0.020 A 
ATOM     11  C   UNL     1      -5.030  -1.065   6.748  0.00  0.00    +0.041 A 
ATOM     12  C   UNL     1      -4.109  -1.981   6.272  0.00  0.00    +0.020 A 
ATOM     13  C   UNL     1      -2.757  -1.766   6.464  0.00  0.00    +0.003 A 
ATOM     14 CL   UNL     1      -6.728  -1.335   6.507  0.00  0.00    -0.084 Cl
ENDBRANCH   2   8
BRANCH   1  16
ATOM     15  C   UNL     1      -1.570  -1.626  10.000  0.00  0.00    -0.017 C 
ATOM     16  C   UNL     1      -0.304  -0.833   9.668  0.00  0.00    -0.081 C 
ENDBRANCH   1  16
BRANCH   5  17
ATOM     17  C   UNL     1       0.508   2.204   9.601  0.00  0.00    +0.143 C 
BRANCH  17  18
ATOM     18  O   UNL     1       1.542   3.157   9.351  0.00  0.00    -0.396 OA
ATOM     19  H   UNL     1       1.691   4.001  10.040  0.00  0.00    +0.209 HD
ENDBRANCH  17  18
ENDBRANCH   5  17
BRANCH   3  20
ATOM     20  C   UNL     1      -1.468   1.080   5.398  0.00  0.00    -0.080 C 
BRANCH  20  21
ATOM     21  N   UNL     1      -0.939   1.994   4.377  0.00  0.00    +0.382 N 
ATOM     22  H   UNL     1      -0.471   2.860   4.867  0.00  0.00    -0.085 HD
ATOM     23  H   UNL     1      -0.189   1.468   3.768  0.00  0.00    -0.085 HD
BRANCH  21  24
ATOM     24  C   UNL     1      -2.010   2.475   3.494  0.00  0.00    -0.043 C 
BRANCH  24  25
ATOM     25  C   UNL     1      -1.430   3.407   2.462  0.00  0.00    -0.019 A 
ATOM     26  C   UNL     1      -1.535   4.776   2.631  0.00  0.00    +0.055 A 
ATOM     27  C   UNL     1      -1.007   5.635   1.683  0.00  0.00    +0.167 A 
ATOM     28  C   UNL     1      -0.366   5.120   0.558  0.00  0.00    +0.170 A 
ATOM     29  C   UNL     1      -0.258   3.750   0.393  0.00  0.00    +0.095 A 
ATOM     30  C   UNL     1      -0.787   2.893   1.346  0.00  0.00    +0.125 A 
ATOM     31  O   UNL     1       0.060   6.161  -0.216  0.00  0.00    -0.452 OA
ATOM     32  C   UNL     1      -0.682   7.308   0.238  0.00  0.00    +0.466 C 
ATOM     33  O   UNL     1      -0.982   6.999   1.613  0.00  0.00    -0.453 OA
BRANCH  30  34
ATOM     34  O   UNL     1      -0.682   1.547   1.184  0.00  0.00    -0.495 OA
ATOM     35  C   UNL     1      -0.013   1.086   0.008  0.00  0.00    +0.277 C 
ENDBRANCH  30  34
ENDBRANCH  24  25
ENDBRANCH  21  24
ENDBRANCH  20  21
ENDBRANCH   3  20
TORSDOF 9
