REMARK  Name = ZINC04543557
REMARK  5 active torsions:
REMARK  status: ('A' for Active; 'I' for Inactive)
REMARK    1  A    between atoms: C_1  and  C_2
REMARK    2  A    between atoms: C_2  and  C_30
REMARK    3  A    between atoms: C_6  and  C_19
REMARK    4  A    between atoms: C_22  and  O_25
REMARK    5  A    between atoms: O_25  and  C_26
REMARK                            x       y       z     vdW  Elec       q    Type
REMARK                         _______ _______ _______ _____ _____    ______ ____
ROOT
ATOM      1  C   UNL     1      -0.101   3.837   2.207  0.00  0.00    +0.011 C 
ATOM      2  C   UNL     1      -0.125   4.237   0.731  0.00  0.00    -0.024 C 
ATOM      3  C   UNL     1       1.126   3.713   0.025  0.00  0.00    +0.043 C 
ATOM      4  C   UNL     1       1.150   2.208   0.003  0.00  0.00    -0.029 C 
ATOM      5  C   UNL     1      -0.018   1.508   0.010  0.00  0.00    +0.023 C 
ATOM      6  C   UNL     1       0.002  -0.004   0.002  0.00  0.00    +0.135 C 
ATOM      7  N   UNL     1       1.216  -0.459   0.693  0.00  0.00    -0.332 N 
ATOM      8  C   UNL     1       2.412   0.162   0.357  0.00  0.00    +0.036 A 
ATOM      9  C   UNL     1       2.390   1.521  -0.000  0.00  0.00    +0.009 A 
ATOM     10  C   UNL     1       3.655   2.154  -0.366  0.00  0.00    +0.010 A 
ATOM     11  C   UNL     1       3.749   3.465  -0.846  0.00  0.00    +0.012 A 
ATOM     12  C   UNL     1       4.989   3.993  -1.093  0.00  0.00    +0.020 A 
ATOM     13  C   UNL     1       6.126   3.216  -0.895  0.00  0.00    +0.111 A 
ATOM     14  N   UNL     1       6.034   1.972  -0.496  0.00  0.00    -0.255 NA
ATOM     15  C   UNL     1       4.851   1.398  -0.258  0.00  0.00    +0.072 A 
ATOM     16  C   UNL     1       4.790   0.032   0.085  0.00  0.00    +0.030 A 
ATOM     17  C   UNL     1       3.606  -0.558   0.382  0.00  0.00    +0.025 A 
ATOM     18  C   UNL     1      -1.262   2.155   0.035  0.00  0.00    +0.162 C 
ATOM     19  O   UNL     1      -2.281   1.492   0.051  0.00  0.00    -0.292 OA
ATOM     20  C   UNL     1      -1.363   3.655   0.047  0.00  0.00    +0.086 C 
ATOM     21  C   UNL     1      -0.162   5.766   0.622  0.00  0.00    +0.011 C 
ATOM     22  H   UNL     1       1.183  -1.161   1.357  0.00  0.00    +0.147 HD
ENDROOT
BRANCH   6  23
ATOM     23  C   UNL     1       0.009  -0.507  -1.419  0.00  0.00    -0.023 A 
ATOM     24  C   UNL     1       1.188  -0.520  -2.140  0.00  0.00    +0.009 A 
ATOM     25  C   UNL     1       1.198  -0.986  -3.441  0.00  0.00    +0.046 A 
ATOM     26  C   UNL     1       0.022  -1.430  -4.026  0.00  0.00    +0.120 A 
ATOM     27  C   UNL     1      -1.161  -1.411  -3.302  0.00  0.00    +0.046 A 
ATOM     28  C   UNL     1      -1.165  -0.950  -2.000  0.00  0.00    +0.009 A 
BRANCH  26  29
ATOM     29  O   UNL     1       0.028  -1.883  -5.308  0.00  0.00    -0.495 OA
ATOM     30  C   UNL     1       1.282  -1.875  -5.993  0.00  0.00    +0.277 C 
ENDBRANCH  26  29
ENDBRANCH   6  23
TORSDOF 2
