REMARK  Name = ZINC15084393
REMARK  6 active torsions:
REMARK  status: ('A' for Active; 'I' for Inactive)
REMARK    1  A    between atoms: C_1  and  C_2
REMARK    2  A    between atoms: C_14  and  C_18
REMARK    3  A    between atoms: C_20  and  O_26
REMARK    4  A    between atoms: C_22  and  O_24
REMARK    5  A    between atoms: O_24  and  C_25
REMARK    6  A    between atoms: O_26  and  C_27
REMARK                            x       y       z     vdW  Elec       q    Type
REMARK                         _______ _______ _______ _____ _____    ______ ____
ROOT
ATOM      1  C   UNL     1       1.508   3.495  -0.195  0.00  0.00    +0.008 C 
ATOM      2  C   UNL     1       1.543   1.998   0.122  0.00  0.00    -0.009 C 
ATOM      3  C   UNL     1       2.127   1.234  -1.070  0.00  0.00    +0.008 C 
ATOM      4  C   UNL     1       2.397  -0.218  -0.676  0.00  0.00    +0.037 C 
ATOM      5  C   UNL     1       1.123  -0.812  -0.079  0.00  0.00    -0.024 A 
ATOM      6  C   UNL     1       0.138  -0.004   0.375  0.00  0.00    -0.004 A 
ATOM      7  S   UNL     1      -1.115  -1.113   0.963  0.00  0.00    -0.073 S 
ATOM      8  C   UNL     1      -0.289  -2.639   0.586  0.00  0.00    +0.114 A 
ATOM      9  C   UNL     1       0.924  -2.213   0.020  0.00  0.00    +0.056 A 
ATOM     10  C   UNL     1       1.830  -3.302  -0.396  0.00  0.00    +0.173 A 
ATOM     11  N   UNL     1       3.023  -3.334  -0.949  0.00  0.00    -0.128 NA
ATOM     12  N   UNL     1       3.390  -4.558  -1.116  0.00  0.00    -0.128 NA
ATOM     13  C   UNL     1       2.455  -5.376  -0.679  0.00  0.00    +0.170 A 
ATOM     14  N   UNL     1       1.427  -4.600  -0.204  0.00  0.00    -0.265 N 
ATOM     15  C   UNL     1       0.218  -4.875   0.359  0.00  0.00    +0.208 A 
ATOM     16  N   UNL     1      -0.592  -3.924   0.732  0.00  0.00    -0.230 NA
ATOM     17  C   UNL     1       0.116   1.493   0.379  0.00  0.00    +0.046 C 
ENDROOT
BRANCH  13  18
ATOM     18  C   UNL     1       2.503  -6.852  -0.696  0.00  0.00    +0.027 A 
ATOM     19  C   UNL     1       3.727  -7.511  -0.820  0.00  0.00    +0.057 A 
ATOM     20  C   UNL     1       3.768  -8.896  -0.830  0.00  0.00    +0.124 A 
ATOM     21  C   UNL     1       2.594  -9.627  -0.728  0.00  0.00    +0.091 A 
ATOM     22  C   UNL     1       1.374  -8.976  -0.611  0.00  0.00    +0.124 A 
ATOM     23  C   UNL     1       1.324  -7.592  -0.594  0.00  0.00    +0.057 A 
BRANCH  22  24
ATOM     24  O   UNL     1       0.226  -9.698  -0.512  0.00  0.00    -0.495 OA
ATOM     25  C   UNL     1       0.351 -11.121  -0.536  0.00  0.00    +0.277 C 
ENDBRANCH  22  24
BRANCH  20  26
ATOM     26  O   UNL     1       4.960  -9.538  -0.945  0.00  0.00    -0.495 OA
ATOM     27  C   UNL     1       4.929 -10.967  -0.954  0.00  0.00    +0.277 C 
ENDBRANCH  20  26
ENDBRANCH  13  18
TORSDOF 3
