REMARK  Name = ZINC11107029
REMARK  8 active torsions:
REMARK  status: ('A' for Active; 'I' for Inactive)
REMARK    1  A    between atoms: C_1  and  C_2
REMARK    2  A    between atoms: C_2  and  C_4
REMARK    3  A    between atoms: C_2  and  S_20
REMARK    4  A    between atoms: N_9  and  C_10
REMARK    5  A    between atoms: S_20  and  C_21
REMARK    6  A    between atoms: N_25  and  C_26
REMARK    7  A    between atoms: C_26  and  C_27
REMARK    8  A    between atoms: C_27  and  C_28
REMARK                            x       y       z     vdW  Elec       q    Type
REMARK                         _______ _______ _______ _____ _____    ______ ____
ROOT
ATOM      1  C   UNL     1      -7.192   1.201   2.099  0.00  0.00    +0.233 C 
ATOM      2  O   UNL     1      -6.796   1.898   3.008  0.00  0.00    -0.274 OA
ATOM      3  N   UNL     1      -6.368   0.892   1.079  0.00  0.00    -0.239 N 
ATOM      4  C   UNL     1      -5.103   1.358   1.069  0.00  0.00    +0.306 C 
ATOM      5  O   UNL     1      -4.707   2.057   1.980  0.00  0.00    -0.252 OA
ATOM      6  N   UNL     1      -4.279   1.049   0.049  0.00  0.00    -0.294 N 
ATOM      7  H   UNL     1      -6.684   0.334   0.351  0.00  0.00    +0.159 HD
ATOM      8  H   UNL     1      -4.595   0.491  -0.679  0.00  0.00    +0.151 HD
ENDROOT
BRANCH   6   9
ATOM      9  C   UNL     1      -2.904   1.556   0.038  0.00  0.00    +0.037 C 
ATOM     10  C   UNL     1      -2.188   1.063  -1.221  0.00  0.00    +0.029 C 
ATOM     11  C   UNL     1      -0.753   1.593  -1.232  0.00  0.00    -0.008 C 
ATOM     12  C   UNL     1      -0.013   1.086   0.008  0.00  0.00    +0.007 C 
ATOM     13  C   UNL     1      -0.729   1.579   1.267  0.00  0.00    -0.008 C 
ATOM     14  C   UNL     1      -2.164   1.050   1.278  0.00  0.00    +0.029 C 
ATOM     15  C   UNL     1      -0.750   3.109   1.275  0.00  0.00    +0.007 C 
ATOM     16  C   UNL     1      -1.490   3.616   0.036  0.00  0.00    -0.008 C 
ATOM     17  C   UNL     1      -0.773   3.123  -1.223  0.00  0.00    +0.007 C 
ATOM     18  C   UNL     1      -2.925   3.086   0.047  0.00  0.00    +0.029 C 
ENDBRANCH   6   9
BRANCH   1  20
ATOM     19  C   UNL     1      -9.476   1.544   1.195  0.00  0.00    +0.029 C 
ATOM     20  C   UNL     1      -8.606   0.679   2.110  0.00  0.00    +0.137 C 
BRANCH  20  21
ATOM     21  S   UNL     1      -9.258   0.739   3.797  0.00  0.00    -0.074 S 
BRANCH  21  22
ATOM     22  C   UNL     1     -10.817  -0.045   3.550  0.00  0.00    +0.192 A 
ATOM     23  N   UNL     1     -11.288  -0.506   2.415  0.00  0.00    -0.123 NA
ATOM     24  N   UNL     1     -12.452  -1.018   2.601  0.00  0.00    -0.137 NA
ATOM     25  C   UNL     1     -12.795  -0.907   3.853  0.00  0.00    +0.225 A 
ATOM     26  N   UNL     1     -11.765  -0.284   4.503  0.00  0.00    -0.308 N 
BRANCH  26  27
ATOM     27  C   UNL     1     -11.695   0.057   5.926  0.00  0.00    +0.130 C 
BRANCH  27  28
ATOM     28  C   UNL     1     -12.155   1.502   6.127  0.00  0.00    +0.064 C 
BRANCH  28  29
ATOM     29  C   UNL     1     -12.083   1.853   7.591  0.00  0.00    -0.009 A 
ATOM     30  C   UNL     1     -11.051   2.385   8.292  0.00  0.00    +0.011 A 
ATOM     31  C   UNL     1     -11.213   2.627   9.643  0.00  0.00    +0.008 A 
ATOM     32  C   UNL     1     -12.398   2.325  10.228  0.00  0.00    +0.045 A 
ATOM     33  S   UNL     1     -13.336   1.684   8.851  0.00  0.00    -0.102 S 
ENDBRANCH  28  29
ENDBRANCH  27  28
ENDBRANCH  26  27
ENDBRANCH  21  22
ENDBRANCH  20  21
ENDBRANCH   1  20
TORSDOF 7
