REMARK  Name = ZINC42956188
REMARK  8 active torsions:
REMARK  status: ('A' for Active; 'I' for Inactive)
REMARK    1  A    between atoms: C_1  and  C_2
REMARK    2  A    between atoms: C_2  and  C_3
REMARK    3  A    between atoms: C_3  and  C_5
REMARK    4  A    between atoms: C_3  and  N_21
REMARK    5  A    between atoms: C_5  and  C_7
REMARK    6  A    between atoms: C_5  and  N_14
REMARK    7  A    between atoms: C_15  and  C_20
REMARK    8  A    between atoms: C_17  and  C_19
REMARK                            x       y       z     vdW  Elec       q    Type
REMARK                         _______ _______ _______ _____ _____    ______ ____
ROOT
ATOM      1  C   UNL     1       0.872  -2.034   1.171  0.00  0.00    +0.125 C 
ENDROOT
BRANCH   1   2
ATOM      2  C   UNL     1       1.644  -2.415  -0.066  0.00  0.00    -0.025 A 
ATOM      3  C   UNL     1       2.940  -1.966  -0.238  0.00  0.00    +0.007 A 
ATOM      4  C   UNL     1       3.648  -2.316  -1.372  0.00  0.00    +0.015 A 
ATOM      5  C   UNL     1       3.060  -3.116  -2.335  0.00  0.00    +0.018 A 
ATOM      6  C   UNL     1       1.764  -3.565  -2.163  0.00  0.00    +0.015 A 
ATOM      7  C   UNL     1       1.058  -3.219  -1.026  0.00  0.00    +0.007 A 
ATOM      8 BR   UNL     1       4.029  -3.594  -3.887  0.00  0.00    -0.050 Br
ENDBRANCH   1   2
BRANCH   1   9
ATOM      9  N   UNL     1       1.581  -2.519   2.358  0.00  0.00    -0.243 N 
ATOM     10  C   UNL     1       1.116  -3.385   3.275  0.00  0.00    +0.126 A 
ATOM     11  N   UNL     1       2.050  -3.562   4.175  0.00  0.00    -0.217 NA
ATOM     12  C   UNL     1       3.119  -2.829   3.868  0.00  0.00    +0.148 A 
ATOM     13  N   UNL     1       2.882  -2.177   2.760  0.00  0.00    -0.155 NA
ATOM     14  C   UNL     1       4.396  -2.767   4.664  0.00  0.00    +0.090 C 
ATOM     15  C   UNL     1      -0.242  -4.038   3.269  0.00  0.00    +0.088 C 
ENDBRANCH   1   9
BRANCH   1  16
ATOM     16  C   UNL     1       0.742  -0.511   1.242  0.00  0.00    -0.046 C 
BRANCH  16  17
ATOM     17  N   UNL     1      -0.010  -0.139   2.447  0.00  0.00    +0.382 N 
ATOM     18  H   UNL     1      -0.929  -0.554   2.411  0.00  0.00    -0.090 HD
ATOM     19  H   UNL     1       0.478  -0.473   3.265  0.00  0.00    -0.090 HD
ATOM     20  H   UNL     1      -0.096   0.865   2.494  0.00  0.00    -0.090 HD
ENDBRANCH  16  17
BRANCH  16  22
ATOM     21  C   UNL     1      -0.019   1.526   0.010  0.00  0.00    +0.002 C 
ATOM     22  C   UNL     1       0.002  -0.004   0.002  0.00  0.00    -0.017 C 
ENDBRANCH  16  22
ENDBRANCH   1  16
TORSDOF 5
