REMARK  Name = ZINC39673839
REMARK  8 active torsions:
REMARK  status: ('A' for Active; 'I' for Inactive)
REMARK    1  A    between atoms: C_1  and  C_2
REMARK    2  A    between atoms: C_2  and  C_3
REMARK    3  A    between atoms: C_3  and  C_4
REMARK    4  A    between atoms: C_4  and  C_6
REMARK    5  A    between atoms: C_4  and  N_7
REMARK    6  A    between atoms: C_8  and  C_10
REMARK    7  A    between atoms: C_21  and  C_23
REMARK    8  A    between atoms: C_26  and  C_28
REMARK                            x       y       z     vdW  Elec       q    Type
REMARK                         _______ _______ _______ _____ _____    ______ ____
ROOT
ATOM      1  C   UNL     1       0.393  -4.266   2.563  0.00  0.00    +0.100 C 
ATOM      2  C   UNL     1       1.643  -3.431   2.918  0.00  0.00    +0.121 C 
ATOM      3  N   UNL     1       2.600  -4.411   3.482  0.00  0.00    -0.294 N 
ATOM      4  C   UNL     1       2.433  -5.618   2.637  0.00  0.00    +0.115 C 
ATOM      5  C   UNL     1       0.915  -5.701   2.379  0.00  0.00    -0.004 C 
ATOM      6  C   UNL     1       0.258  -6.636   3.389  0.00  0.00    -0.010 C 
ATOM      7  C   UNL     1       0.750  -8.066   3.149  0.00  0.00    -0.082 C 
ATOM      8  N   UNL     1       0.415  -8.478   1.780  0.00  0.00    +0.379 N 
ATOM      9  C   UNL     1       1.125  -7.630   0.815  0.00  0.00    -0.082 C 
ATOM     10  C   UNL     1       0.648  -6.182   0.956  0.00  0.00    -0.010 C 
ATOM     11  C   UNL     1       3.435  -4.244   4.527  0.00  0.00    +0.282 C 
ATOM     12  O   UNL     1       4.168  -5.153   4.872  0.00  0.00    -0.267 OA
ATOM     13  H   UNL     1       0.686  -9.440   1.644  0.00  0.00    -0.086 HD
ATOM     14  H   UNL     1      -0.580  -8.388   1.638  0.00  0.00    -0.086 HD
ENDROOT
BRANCH  11  15
ATOM     15  C   UNL     1       3.461  -2.969   5.247  0.00  0.00    +0.190 A 
ATOM     16  C   UNL     1       4.265  -2.663   6.323  0.00  0.00    +0.055 A 
ATOM     17  C   UNL     1       3.963  -1.349   6.692  0.00  0.00    +0.051 A 
ATOM     18  C   UNL     1       2.995  -0.904   5.838  0.00  0.00    +0.139 A 
ATOM     19  O   UNL     1       2.704  -1.886   4.968  0.00  0.00    -0.450 OA
BRANCH  18  20
ATOM     20  C   UNL     1       2.376   0.436   5.862  0.00  0.00    +0.052 A 
ATOM     21  C   UNL     1       1.877   0.957   7.058  0.00  0.00    +0.014 A 
ATOM     22  C   UNL     1       1.299   2.209   7.073  0.00  0.00    +0.001 A 
ATOM     23  C   UNL     1       1.212   2.951   5.907  0.00  0.00    +0.003 A 
ATOM     24  C   UNL     1       1.703   2.443   4.719  0.00  0.00    +0.039 A 
ATOM     25  C   UNL     1       2.290   1.192   4.688  0.00  0.00    +0.134 A 
ATOM     26  F   UNL     1       2.775   0.699   3.528  0.00  0.00    -0.205 F 
ENDBRANCH  18  20
ENDBRANCH  11  15
BRANCH   1  28
ATOM     27  N   UNL     1      -1.552  -3.902   1.077  0.00  0.00    -0.312 N 
ATOM     28  C   UNL     1      -0.227  -3.765   1.284  0.00  0.00    +0.218 C 
ATOM     29  O   UNL     1       0.467  -3.238   0.440  0.00  0.00    -0.275 OA
ATOM     30  H   UNL     1      -2.106  -4.324   1.752  0.00  0.00    +0.149 HD
BRANCH  27  31
ATOM     31  C   UNL     1      -2.154  -3.415  -0.166  0.00  0.00    +0.070 C 
ATOM     32  C   UNL     1      -2.023  -4.487  -1.250  0.00  0.00    +0.028 C 
BRANCH  31  33
ATOM     33  C   UNL     1      -3.634  -3.108   0.070  0.00  0.00    +0.022 C 
BRANCH  33  35
ATOM     34  C   UNL     1      -5.242  -1.642   1.299  0.00  0.00    +0.004 C 
ATOM     35  C   UNL     1      -3.762  -1.950   1.063  0.00  0.00    -0.002 C 
ENDBRANCH  33  35
ENDBRANCH  31  33
ENDBRANCH  27  31
ENDBRANCH   1  28
TORSDOF 6
