REMARK  Name = ZINC39935437
REMARK  7 active torsions:
REMARK  status: ('A' for Active; 'I' for Inactive)
REMARK    1  A    between atoms: C_1  and  C_2
REMARK    2  A    between atoms: C_2  and  C_3
REMARK    3  A    between atoms: C_8  and  C_12
REMARK    4  A    between atoms: C_12  and  C_14
REMARK    5  A    between atoms: C_14  and  N_15
REMARK    6  A    between atoms: C_21  and  C_24
REMARK    7  A    between atoms: C_24  and  C_25
REMARK                            x       y       z     vdW  Elec       q    Type
REMARK                         _______ _______ _______ _____ _____    ______ ____
ROOT
ATOM      1  C   UNL     1      -5.758  -1.714  -4.267  0.00  0.00    +0.197 C 
ENDROOT
BRANCH   1   2
ATOM      2  N   UNL     1      -7.131  -2.209  -4.392  0.00  0.00    -0.217 N 
ATOM      3  C   UNL     1      -7.458  -3.508  -4.552  0.00  0.00    +0.247 C 
ATOM      4  O   UNL     1      -6.700  -4.452  -4.617  0.00  0.00    -0.273 OA
ATOM      5  C   UNL     1      -8.967  -3.538  -4.632  0.00  0.00    +0.113 C 
ATOM      6  C   UNL     1      -9.543  -4.366  -3.489  0.00  0.00    +0.035 C 
ATOM      7  C   UNL     1      -9.086  -5.821  -3.630  0.00  0.00    +0.006 C 
ATOM      8  C   UNL     1      -9.562  -6.375  -4.974  0.00  0.00    -0.011 C 
ATOM      9  C   UNL     1      -8.960  -5.547  -6.112  0.00  0.00    +0.006 C 
ATOM     10  C   UNL     1      -9.417  -4.092  -5.979  0.00  0.00    +0.035 C 
ATOM     11  N   UNL     1      -9.359  -2.130  -4.496  0.00  0.00    -0.285 N 
ATOM     12  C   UNL     1      -8.218  -1.428  -4.356  0.00  0.00    +0.310 C 
ATOM     13  O   UNL     1      -8.180  -0.221  -4.215  0.00  0.00    -0.252 OA
ATOM     14  H   UNL     1     -10.262  -1.775  -4.503  0.00  0.00    +0.151 HD
BRANCH   8  15
ATOM     15  C   UNL     1      -9.115  -7.831  -5.112  0.00  0.00    -0.000 C 
ATOM     16  C   UNL     1      -9.696  -8.424  -6.398  0.00  0.00    +0.004 C 
ENDBRANCH   8  15
ENDBRANCH   1   2
BRANCH   1  17
ATOM     17  C   UNL     1      -5.357  -1.706  -2.814  0.00  0.00    +0.179 C 
ATOM     18  O   UNL     1      -6.142  -2.078  -1.966  0.00  0.00    -0.291 OA
BRANCH  17  24
ATOM     19  C   UNL     1      -1.412  -0.526   0.013  0.00  0.00    -0.024 A 
ATOM     20  C   UNL     1      -2.010  -0.859   1.177  0.00  0.00    +0.005 A 
ATOM     21  C   UNL     1      -3.325  -1.347   1.223  0.00  0.00    +0.001 A 
ATOM     22  C   UNL     1      -4.077  -1.516   0.112  0.00  0.00    +0.010 A 
ATOM     23  C   UNL     1      -3.548  -1.198  -1.161  0.00  0.00    +0.006 A 
ATOM     24  C   UNL     1      -4.069  -1.267  -2.441  0.00  0.00    +0.025 C 
ATOM     25  C   UNL     1      -2.969  -0.774  -3.355  0.00  0.00    +0.152 C 
ATOM     26  N   UNL     1      -1.837  -0.441  -2.485  0.00  0.00    -0.380 N 
ATOM     27  C   UNL     1      -2.162  -0.673  -1.245  0.00  0.00    +0.046 A 
ATOM     28  H   UNL     1      -0.981  -0.097  -2.785  0.00  0.00    +0.160 HD
BRANCH  19  30
ATOM     29  C   UNL     1      -0.019   1.526   0.010  0.00  0.00    +0.009 C 
ATOM     30  C   UNL     1       0.002  -0.004   0.002  0.00  0.00    +0.034 C 
ENDBRANCH  19  30
ENDBRANCH  17  24
ENDBRANCH   1  17
TORSDOF 5
