REMARK  Name = ZINC59273419
REMARK  7 active torsions:
REMARK  status: ('A' for Active; 'I' for Inactive)
REMARK    1  A    between atoms: C_6  and  C_7
REMARK    2  A    between atoms: C_7  and  N_8
REMARK    3  A    between atoms: N_8  and  C_9
REMARK    4  A    between atoms: N_8  and  C_19
REMARK    5  A    between atoms: C_9  and  C_10
REMARK    6  A    between atoms: C_19  and  N_21
REMARK    7  A    between atoms: N_21  and  C_22
REMARK                            x       y       z     vdW  Elec       q    Type
REMARK                         _______ _______ _______ _____ _____    ______ ____
ROOT
ATOM      1  N   UNL     1      -1.726  -1.017  -1.368  0.00  0.00    -0.304 N 
ENDROOT
BRANCH   1   2
ATOM      2  C   UNL     1      -2.522  -0.125  -1.991  0.00  0.00    +0.134 C 
ATOM      3  S   UNL     1      -3.028  -0.408  -3.602  0.00  0.00    -0.019 S 
BRANCH   2   4
ATOM      4  N   UNL     1      -2.919   0.989  -1.346  0.00  0.00    -0.324 N 
ATOM      5  H   UNL     1      -2.633   1.149  -0.433  0.00  0.00    +0.148 HD
BRANCH   4   6
ATOM      6  C   UNL     1      -3.784   1.958  -2.023  0.00  0.00    +0.072 C 
ATOM      7  C   UNL     1      -2.913   2.873  -2.908  0.00  0.00    +0.022 C 
ATOM      8  C   UNL     1      -3.790   3.498  -3.959  0.00  0.00    +0.002 C 
ATOM      9  C   UNL     1      -4.316   4.884  -3.540  0.00  0.00    +0.000 C 
ATOM     10  C   UNL     1      -4.759   4.934  -2.065  0.00  0.00    +0.000 C 
ATOM     11  C   UNL     1      -5.522   3.705  -1.651  0.00  0.00    +0.002 C 
ATOM     12  C   UNL     1      -4.532   2.703  -1.021  0.00  0.00    +0.022 C 
ENDBRANCH   4   6
ENDBRANCH   2   4
ENDBRANCH   1   2
BRANCH   1  13
ATOM     13  C   UNL     1      -1.293  -0.775   0.010  0.00  0.00    +0.142 C 
BRANCH  13  19
ATOM     14  C   UNL     1      -0.017   1.378   0.010  0.00  0.00    +0.008 A 
ATOM     15  C   UNL     1       1.170   2.086   0.002  0.00  0.00    +0.038 A 
ATOM     16  C   UNL     1       2.379   1.410  -0.013  0.00  0.00    +0.123 A 
ATOM     17  C   UNL     1       2.396   0.026  -0.021  0.00  0.00    +0.038 A 
ATOM     18  C   UNL     1       1.208  -0.680  -0.013  0.00  0.00    +0.008 A 
ATOM     19  C   UNL     1       0.002  -0.004   0.002  0.00  0.00    -0.030 A 
ATOM     20  F   UNL     1       3.540   2.101  -0.021  0.00  0.00    -0.205 F 
ENDBRANCH  13  19
ENDBRANCH   1  13
BRANCH   1  21
ATOM     21  C   UNL     1      -1.294  -2.228  -2.070  0.00  0.00    +0.142 C 
BRANCH  21  22
ATOM     22  C   UNL     1      -2.292  -3.331  -1.829  0.00  0.00    -0.026 A 
ATOM     23  C   UNL     1      -2.139  -4.176  -0.745  0.00  0.00    +0.009 A 
ATOM     24  C   UNL     1      -3.053  -5.189  -0.520  0.00  0.00    +0.050 A 
ATOM     25  C   UNL     1      -4.124  -5.360  -1.381  0.00  0.00    +0.166 A 
ATOM     26  C   UNL     1      -4.278  -4.509  -2.474  0.00  0.00    +0.167 A 
ATOM     27  C   UNL     1      -3.362  -3.493  -2.689  0.00  0.00    +0.054 A 
ATOM     28  O   UNL     1      -5.397  -4.880  -3.161  0.00  0.00    -0.453 OA
ATOM     29  C   UNL     1      -5.698  -6.216  -2.715  0.00  0.00    +0.466 C 
ATOM     30  O   UNL     1      -5.147  -6.264  -1.385  0.00  0.00    -0.453 OA
ENDBRANCH  21  22
ENDBRANCH   1  21
TORSDOF 7
