REMARK  Name = ZINC00910129
REMARK  10 active torsions:
REMARK  status: ('A' for Active; 'I' for Inactive)
REMARK    1  A    between atoms: C_1  and  C_2
REMARK    2  A    between atoms: C_2  and  C_3
REMARK    3  A    between atoms: C_3  and  C_4
REMARK    4  A    between atoms: C_3  and  C_5
REMARK    5  A    between atoms: C_3  and  N_6
REMARK    6  A    between atoms: C_7  and  C_11
REMARK    7  A    between atoms: C_11  and  C_13
REMARK    8  A    between atoms: C_11  and  N_27
REMARK    9  A    between atoms: C_16  and  C_26
REMARK   10  A    between atoms: C_19  and  C_25
REMARK                            x       y       z     vdW  Elec       q    Type
REMARK                         _______ _______ _______ _____ _____    ______ ____
ROOT
ATOM      1  C   UNL     1       2.936   0.449  -0.945  0.00  0.00    +0.179 C 
ENDROOT
BRANCH   1   2
ATOM      2  C   UNL     1       4.024  -0.277  -0.196  0.00  0.00    +0.045 A 
ATOM      3  C   UNL     1       3.960  -0.383   1.154  0.00  0.00    +0.021 A 
ATOM      4  C   UNL     1       5.033  -1.094   1.851  0.00  0.00    +0.002 A 
ATOM      5  C   UNL     1       5.021  -1.237   3.243  0.00  0.00    -0.041 A 
ATOM      6  C   UNL     1       6.037  -1.906   3.863  0.00  0.00    +0.004 A 
ATOM      7  C   UNL     1       7.082  -2.446   3.125  0.00  0.00    +0.005 A 
ATOM      8  C   UNL     1       7.114  -2.318   1.754  0.00  0.00    -0.026 A 
ATOM      9  C   UNL     1       6.091  -1.640   1.100  0.00  0.00    +0.052 A 
ATOM     10  N   UNL     1       6.097  -1.497  -0.272  0.00  0.00    -0.322 N 
ATOM     11  H   UNL     1       6.851  -1.882  -0.804  0.00  0.00    +0.169 HD
ATOM     12  C   UNL     1       5.104  -0.847  -0.904  0.00  0.00    +0.255 A 
ATOM     13  O   UNL     1       5.140  -0.744  -2.118  0.00  0.00    -0.268 OA
ATOM     14  C   UNL     1       8.254  -2.909   0.965  0.00  0.00    +0.046 C 
ATOM     15  C   UNL     1       3.892  -0.656   4.053  0.00  0.00    +0.044 C 
ENDBRANCH   1   2
BRANCH   1  16
ATOM     16  N   UNL     1       3.527   1.533  -1.740  0.00  0.00    -0.315 N 
ATOM     17  C   UNL     1       4.335   2.435  -0.889  0.00  0.00    +0.111 C 
ATOM     18  C   UNL     1       4.178   3.799  -1.599  0.00  0.00    +0.056 C 
ATOM     19  C   UNL     1       2.853   3.653  -2.320  0.00  0.00    -0.025 A 
ATOM     20  C   UNL     1       2.534   2.301  -2.360  0.00  0.00    +0.034 A 
ATOM     21  C   UNL     1       1.345   1.903  -2.969  0.00  0.00    +0.023 A 
ATOM     22  C   UNL     1       0.504   2.842  -3.529  0.00  0.00    +0.002 A 
ATOM     23  C   UNL     1       0.833   4.184  -3.489  0.00  0.00    +0.000 A 
ATOM     24  C   UNL     1       2.010   4.588  -2.884  0.00  0.00    +0.005 A 
ENDBRANCH   1  16
BRANCH   1  26
ATOM     25  N   UNL     1       0.994  -1.027  -1.690  0.00  0.00    -0.222 N 
ATOM     26  C   UNL     1       2.227  -0.516  -1.860  0.00  0.00    +0.177 A 
ATOM     27  N   UNL     1       2.693  -1.023  -2.975  0.00  0.00    -0.111 NA
ATOM     28  N   UNL     1       1.790  -1.798  -3.468  0.00  0.00    -0.023 NA
ATOM     29  N   UNL     1       0.761  -1.803  -2.694  0.00  0.00    -0.043 NA
BRANCH  25  30
ATOM     30  C   UNL     1       0.083  -0.749  -0.576  0.00  0.00    +0.062 C 
ATOM     31  C   UNL     1      -0.297   0.733  -0.585  0.00  0.00    +0.036 C 
ATOM     32  C   UNL     1       0.775  -1.090   0.746  0.00  0.00    +0.036 C 
BRANCH  30  34
ATOM     33  C   UNL     1      -2.130  -1.310   0.438  0.00  0.00    +0.006 C 
ATOM     34  C   UNL     1      -1.179  -1.601  -0.725  0.00  0.00    +0.026 C 
ENDBRANCH  30  34
ENDBRANCH  25  30
ENDBRANCH   1  26
TORSDOF 5
