REMARK  Name = ZINC39623541
REMARK  9 active torsions:
REMARK  status: ('A' for Active; 'I' for Inactive)
REMARK    1  A    between atoms: C_1  and  C_2
REMARK    2  A    between atoms: C_2  and  C_3
REMARK    3  A    between atoms: C_3  and  C_4
REMARK    4  A    between atoms: C_4  and  C_5
REMARK    5  A    between atoms: C_5  and  N_6
REMARK    6  A    between atoms: C_7  and  C_9
REMARK    7  A    between atoms: C_20  and  C_22
REMARK    8  A    between atoms: C_22  and  C_23
REMARK    9  A    between atoms: C_27  and  C_29
REMARK                            x       y       z     vdW  Elec       q    Type
REMARK                         _______ _______ _______ _____ _____    ______ ____
ROOT
ATOM      1  C   UNL     1       2.078  -6.153  -3.560  0.00  0.00    +0.100 C 
ATOM      2  C   UNL     1       0.639  -6.711  -3.498  0.00  0.00    +0.121 C 
ATOM      3  N   UNL     1       0.271  -6.957  -4.912  0.00  0.00    -0.300 N 
ATOM      4  C   UNL     1       1.508  -7.496  -5.526  0.00  0.00    +0.115 C 
ATOM      5  C   UNL     1       2.646  -6.673  -4.891  0.00  0.00    -0.004 C 
ATOM      6  C   UNL     1       3.021  -5.505  -5.799  0.00  0.00    -0.010 C 
ATOM      7  C   UNL     1       3.636  -6.047  -7.092  0.00  0.00    -0.082 C 
ATOM      8  N   UNL     1       4.825  -6.847  -6.774  0.00  0.00    +0.379 N 
ATOM      9  C   UNL     1       4.442  -8.019  -5.978  0.00  0.00    -0.082 C 
ATOM     10  C   UNL     1       3.861  -7.561  -4.637  0.00  0.00    -0.010 C 
ATOM     11  C   UNL     1      -0.919  -6.739  -5.506  0.00  0.00    +0.220 C 
ATOM     12  O   UNL     1      -1.065  -6.994  -6.683  0.00  0.00    -0.275 OA
ATOM     13  H   UNL     1       5.263  -7.152  -7.630  0.00  0.00    -0.086 HD
ATOM     14  H   UNL     1       5.477  -6.284  -6.248  0.00  0.00    -0.086 HD
ENDROOT
BRANCH   1  16
ATOM     15  N   UNL     1       3.101  -3.961  -3.044  0.00  0.00    -0.315 N 
ATOM     16  C   UNL     1       2.058  -4.646  -3.552  0.00  0.00    +0.218 C 
ATOM     17  O   UNL     1       1.103  -4.050  -4.003  0.00  0.00    -0.275 OA
ATOM     18  H   UNL     1       3.865  -4.437  -2.683  0.00  0.00    +0.149 HD
BRANCH  15  19
ATOM     19  C   UNL     1       3.081  -2.496  -3.036  0.00  0.00    +0.104 C 
BRANCH  19  20
ATOM     20  C   UNL     1       4.375  -1.972  -2.409  0.00  0.00    +0.019 C 
BRANCH  20  21
ATOM     21  C   UNL     1       4.354  -0.442  -2.401  0.00  0.00    +0.001 C 
BRANCH  21  23
ATOM     22  C   UNL     1       5.628   1.612  -1.766  0.00  0.00    +0.004 C 
ATOM     23  C   UNL     1       5.648   0.082  -1.775  0.00  0.00    -0.003 C 
ENDBRANCH  21  23
ENDBRANCH  20  21
ENDBRANCH  19  20
ENDBRANCH  15  19
ENDBRANCH   1  16
BRANCH  11  24
ATOM     24  C   UNL     1      -2.068  -6.179  -4.708  0.00  0.00    +0.131 C 
BRANCH  24  25
ATOM     25  C   UNL     1      -3.275  -6.033  -5.599  0.00  0.00    -0.038 A 
ATOM     26  C   UNL     1      -3.480  -4.856  -6.296  0.00  0.00    +0.004 A 
ATOM     27  C   UNL     1      -4.587  -4.722  -7.114  0.00  0.00    +0.001 A 
ATOM     28  C   UNL     1      -5.487  -5.764  -7.235  0.00  0.00    +0.003 A 
ATOM     29  C   UNL     1      -5.281  -6.940  -6.540  0.00  0.00    -0.050 A 
ATOM     30  C   UNL     1      -4.172  -7.076  -5.725  0.00  0.00    +0.007 A 
ATOM     31  C   UNL     1      -6.263  -8.076  -6.672  0.00  0.00    +0.044 C 
ENDBRANCH  24  25
ENDBRANCH  11  24
TORSDOF 7
