REMARK  Name = ZINC63686637
REMARK  10 active torsions:
REMARK  status: ('A' for Active; 'I' for Inactive)
REMARK    1  A    between atoms: C_1  and  C_2
REMARK    2  A    between atoms: C_2  and  C_3
REMARK    3  A    between atoms: C_8  and  O_9
REMARK    4  A    between atoms: O_9  and  C_10
REMARK    5  A    between atoms: C_10  and  C_11
REMARK    6  A    between atoms: C_15  and  S_20
REMARK    7  A    between atoms: N_17  and  C_18
REMARK    8  A    between atoms: C_18  and  C_19
REMARK    9  A    between atoms: S_20  and  C_21
REMARK   10  A    between atoms: C_21  and  C_22
REMARK                            x       y       z     vdW  Elec       q    Type
REMARK                         _______ _______ _______ _____ _____    ______ ____
ROOT
ATOM      1  C   UNL     1       4.863  -0.007   1.100  0.00  0.00    +0.178 C 
ATOM      2  N   UNL     1       4.474   1.383   1.454  0.00  0.00    -0.234 NA
ATOM      3  N   UNL     1       4.637   1.412   2.916  0.00  0.00    -0.229 NA
ATOM      4  C   UNL     1       4.179   0.078   3.365  0.00  0.00    +0.200 C 
ATOM      5  N   UNL     1       4.327  -0.832   2.207  0.00  0.00    -0.259 NA
ATOM      6  H   UNL     1       5.082   2.053   1.009  0.00  0.00    +0.142 HD
ATOM      7  H   UNL     1       4.078   2.144   3.327  0.00  0.00    +0.143 HD
ENDROOT
BRANCH   5   8
ATOM      8  C   UNL     1       3.036  -1.430   1.841  0.00  0.00    +0.085 C 
ATOM      9  C   UNL     1       2.635  -2.463   2.895  0.00  0.00    +0.020 C 
ENDBRANCH   5   8
BRANCH   1  10
ATOM     10  C   UNL     1       4.229  -0.419  -0.230  0.00  0.00    +0.265 C 
BRANCH  10  11
ATOM     11  O   UNL     1       2.810  -0.277  -0.145  0.00  0.00    -0.489 OA
BRANCH  11  17
ATOM     12  C   UNL     1       0.707  -0.490  -1.238  0.00  0.00    -0.006 A 
ATOM     13  C   UNL     1      -0.022  -0.817  -2.365  0.00  0.00    +0.007 A 
ATOM     14  C   UNL     1       0.625  -1.264  -3.502  0.00  0.00    +0.000 A 
ATOM     15  C   UNL     1       2.002  -1.383  -3.516  0.00  0.00    +0.004 A 
ATOM     16  C   UNL     1       2.736  -1.057  -2.392  0.00  0.00    +0.046 A 
ATOM     17  C   UNL     1       2.090  -0.604  -1.250  0.00  0.00    +0.124 A 
BRANCH  12  19
ATOM     18  C   UNL     1      -0.019   1.526   0.010  0.00  0.00    +0.009 C 
ATOM     19  C   UNL     1       0.002  -0.004   0.002  0.00  0.00    +0.035 C 
ENDBRANCH  12  19
ENDBRANCH  11  17
ENDBRANCH  10  11
ENDBRANCH   1  10
BRANCH   4  20
ATOM     20  S   UNL     1       5.207  -0.501   4.743  0.00  0.00    -0.119 S 
BRANCH  20  21
ATOM     21  C   UNL     1       6.887  -0.518   4.060  0.00  0.00    +0.125 C 
BRANCH  21  22
ATOM     22  C   UNL     1       7.855  -0.986   5.116  0.00  0.00    +0.030 A 
ATOM     23  N   UNL     1       8.187  -0.137   6.118  0.00  0.00    -0.355 N 
ATOM     24  C   UNL     1       9.065  -0.504   7.114  0.00  0.00    +0.086 A 
ATOM     25  C   UNL     1       9.634  -1.789   7.098  0.00  0.00    +0.048 A 
ATOM     26  C   UNL     1      10.525  -2.172   8.100  0.00  0.00    +0.014 A 
ATOM     27  C   UNL     1      10.842  -1.292   9.097  0.00  0.00    +0.004 A 
ATOM     28  C   UNL     1      10.285  -0.021   9.121  0.00  0.00    +0.040 A 
ATOM     29  C   UNL     1       9.401   0.378   8.140  0.00  0.00    +0.147 A 
ATOM     30  F   UNL     1       8.864   1.617   8.173  0.00  0.00    -0.203 F 
ATOM     31  C   UNL     1       9.266  -2.705   6.004  0.00  0.00    +0.190 A 
ATOM     32  O   UNL     1       9.731  -3.832   5.942  0.00  0.00    -0.287 OA
ATOM     33  C   UNL     1       8.353  -2.237   5.031  0.00  0.00    +0.073 A 
ATOM     34  H   UNL     1       7.797   0.751   6.134  0.00  0.00    +0.166 HD
ENDBRANCH  21  22
ENDBRANCH  20  21
ENDBRANCH   4  20
TORSDOF 8
