REMARK  Name = ZINC19315706
REMARK  9 active torsions:
REMARK  status: ('A' for Active; 'I' for Inactive)
REMARK    1  A    between atoms: C_1  and  C_2
REMARK    2  A    between atoms: C_3  and  C_14
REMARK    3  A    between atoms: N_5  and  C_7
REMARK    4  A    between atoms: C_14  and  S_15
REMARK    5  A    between atoms: S_15  and  C_16
REMARK    6  A    between atoms: C_19  and  C_22
REMARK    7  A    between atoms: N_20  and  N_21
REMARK    8  A    between atoms: C_25  and  O_28
REMARK    9  A    between atoms: O_28  and  C_29
REMARK                            x       y       z     vdW  Elec       q    Type
REMARK                         _______ _______ _______ _____ _____    ______ ____
ROOT
ATOM      1  C   UNL     1       5.903   0.816  -1.468  0.00  0.00    +0.209 A 
ATOM      2  N   UNL     1       6.509   0.824  -0.303  0.00  0.00    -0.121 NA
ATOM      3  N   UNL     1       7.783   0.855  -0.468  0.00  0.00    -0.127 NA
ATOM      4  C   UNL     1       8.069   0.870  -1.749  0.00  0.00    +0.182 A 
ATOM      5  N   UNL     1       6.873   0.839  -2.430  0.00  0.00    -0.224 N 
ENDROOT
BRANCH   4   6
ATOM      6  C   UNL     1       9.420   0.905  -2.348  0.00  0.00    +0.021 A 
ATOM      7  C   UNL     1       9.579   1.224  -3.698  0.00  0.00    +0.015 A 
ATOM      8  C   UNL     1      10.841   1.260  -4.251  0.00  0.00    +0.046 A 
ATOM      9  C   UNL     1      11.952   0.971  -3.470  0.00  0.00    +0.127 A 
ATOM     10  C   UNL     1      11.798   0.649  -2.128  0.00  0.00    +0.046 A 
ATOM     11  C   UNL     1      10.540   0.615  -1.566  0.00  0.00    +0.015 A 
BRANCH   9  12
ATOM     12  O   UNL     1      13.194   1.003  -4.021  0.00  0.00    -0.434 OA
BRANCH  12  13
ATOM     13  C   UNL     1      13.281   1.342  -5.406  0.00  0.00    +0.541 C 
ATOM     14  F   UNL     1      12.560   0.410  -6.160  0.00  0.00    -0.166 F 
ATOM     15  F   UNL     1      12.748   2.619  -5.608  0.00  0.00    -0.166 F 
ENDBRANCH  12  13
ENDBRANCH   9  12
ENDBRANCH   4   6
BRANCH   5  16
ATOM     16  N   UNL     1       6.694   0.836  -3.784  0.00  0.00    -0.295 N 
ATOM     17  H   UNL     1       7.566   0.857  -4.454  0.00  0.00    +0.163 HD
ATOM     18  H   UNL     1       5.678   0.813  -4.204  0.00  0.00    +0.163 HD
ENDBRANCH   5  16
BRANCH   1  19
ATOM     19  S   UNL     1       4.163   0.774  -1.741  0.00  0.00    -0.080 S 
BRANCH  19  20
ATOM     20  C   UNL     1       3.577   0.750  -0.029  0.00  0.00    +0.117 C 
BRANCH  20  23
ATOM     21  C   UNL     1       1.654   3.267   0.003  0.00  0.00    +0.068 C 
ATOM     22  C   UNL     1       1.220   1.824   0.000  0.00  0.00    +0.066 A 
ATOM     23  C   UNL     1       2.070   0.713  -0.014  0.00  0.00    +0.022 A 
ATOM     24  C   UNL     1       1.300  -0.402  -0.013  0.00  0.00    +0.137 A 
ATOM     25  N   UNL     1       0.002  -0.004   0.002  0.00  0.00    -0.221 N 
ATOM     26  N   UNL     1      -0.017   1.397   0.010  0.00  0.00    -0.170 NA
ATOM     27 CL   UNL     1       1.871  -2.041  -0.026  0.00  0.00    -0.062 Cl
BRANCH  25  28
ATOM     28  C   UNL     1      -1.119  -0.845   0.009  0.00  0.00    +0.067 A 
ATOM     29  C   UNL     1      -1.094  -2.044  -0.691  0.00  0.00    +0.028 A 
ATOM     30  C   UNL     1      -2.198  -2.873  -0.678  0.00  0.00    +0.002 A 
ATOM     31  C   UNL     1      -3.333  -2.505   0.022  0.00  0.00    +0.000 A 
ATOM     32  C   UNL     1      -3.363  -1.310   0.716  0.00  0.00    +0.002 A 
ATOM     33  C   UNL     1      -2.259  -0.479   0.711  0.00  0.00    +0.028 A 
ENDBRANCH  25  28
ENDBRANCH  20  23
ENDBRANCH  19  20
ENDBRANCH   1  19
TORSDOF 8
