REMARK  Name = ZINC01016499
REMARK  6 active torsions:
REMARK  status: ('A' for Active; 'I' for Inactive)
REMARK    1  A    between atoms: C_1  and  C_2
REMARK    2  A    between atoms: C_5  and  O_8
REMARK    3  A    between atoms: O_8  and  C_9
REMARK    4  A    between atoms: C_9  and  C_10
REMARK    5  A    between atoms: C_13  and  C_18
REMARK    6  A    between atoms: C_18  and  N_19
REMARK                            x       y       z     vdW  Elec       q    Type
REMARK                         _______ _______ _______ _____ _____    ______ ____
ROOT
ATOM      1  C   UNL     1      -2.545   4.034   0.036  0.00  0.00    +0.140 A 
ATOM      2  N   UNL     1      -3.300   4.326   1.052  0.00  0.00    -0.157 NA
ATOM      3  N   UNL     1      -4.578   4.842   0.880  0.00  0.00    -0.188 N 
ATOM      4  C   UNL     1      -5.653   5.269   1.633  0.00  0.00    +0.175 A 
ATOM      5  N   UNL     1      -6.594   5.647   0.813  0.00  0.00    -0.130 NA
ATOM      6  N   UNL     1      -6.205   5.495  -0.405  0.00  0.00    -0.120 NA
ATOM      7  C   UNL     1      -4.999   5.014  -0.415  0.00  0.00    +0.218 A 
ATOM      8  S   UNL     1      -3.594   4.457  -1.347  0.00  0.00    -0.028 S 
ENDROOT
BRANCH   1   9
ATOM      9  C   UNL     1      -1.145   3.475   0.026  0.00  0.00    +0.293 C 
BRANCH   9  10
ATOM     10  O   UNL     1      -1.202   2.048   0.019  0.00  0.00    -0.485 OA
BRANCH  10  15
ATOM     11  C   UNL     1       3.711  -0.707  -0.037  0.00  0.00    +0.044 C 
ATOM     12  C   UNL     1       2.396   0.030  -0.021  0.00  0.00    -0.050 A 
ATOM     13  C   UNL     1       1.208  -0.677  -0.013  0.00  0.00    +0.007 A 
ATOM     14  C   UNL     1       0.002  -0.004   0.002  0.00  0.00    +0.046 A 
ATOM     15  C   UNL     1      -0.017   1.383   0.010  0.00  0.00    +0.121 A 
ATOM     16  C   UNL     1       1.177   2.091   0.002  0.00  0.00    +0.046 A 
ATOM     17  C   UNL     1       2.380   1.413  -0.013  0.00  0.00    +0.007 A 
ENDBRANCH  10  15
ENDBRANCH   9  10
ENDBRANCH   1   9
BRANCH   4  18
ATOM     18  C   UNL     1      -5.727   5.294   3.138  0.00  0.00    +0.201 C 
BRANCH  18  19
ATOM     19  N   UNL     1      -6.262   4.019   3.622  0.00  0.00    -0.323 N 
ATOM     20  C   UNL     1      -7.562   3.752   3.921  0.00  0.00    +0.200 A 
ATOM     21  N   UNL     1      -7.685   2.521   4.323  0.00  0.00    -0.236 NA
ATOM     22  C   UNL     1      -6.471   1.913   4.309  0.00  0.00    +0.089 A 
ATOM     23  C   UNL     1      -5.542   2.864   3.853  0.00  0.00    +0.069 A 
ATOM     24  C   UNL     1      -4.201   2.522   3.741  0.00  0.00    +0.028 A 
ATOM     25  C   UNL     1      -3.793   1.246   4.068  0.00  0.00    +0.002 A 
ATOM     26  C   UNL     1      -4.711   0.306   4.512  0.00  0.00    +0.002 A 
ATOM     27  C   UNL     1      -6.033   0.627   4.634  0.00  0.00    +0.030 A 
ENDBRANCH  18  19
ENDBRANCH   4  18
TORSDOF 5
