REMARK  Name = ZINC29156156
REMARK  10 active torsions:
REMARK  status: ('A' for Active; 'I' for Inactive)
REMARK    1  A    between atoms: C_1  and  C_2
REMARK    2  A    between atoms: C_2  and  C_29
REMARK    3  A    between atoms: N_5  and  N_9
REMARK    4  A    between atoms: C_10  and  C_12
REMARK    5  A    between atoms: C_12  and  N_13
REMARK    6  A    between atoms: C_19  and  C_21
REMARK    7  A    between atoms: C_24  and  O_27
REMARK    8  A    between atoms: O_27  and  C_28
REMARK    9  A    between atoms: C_29  and  C_30
REMARK   10  A    between atoms: C_30  and  C_31
REMARK                            x       y       z     vdW  Elec       q    Type
REMARK                         _______ _______ _______ _____ _____    ______ ____
ROOT
ATOM      1  N   UNL     1      -1.657   0.106  -0.069  0.00  0.00    -0.225 N 
ATOM      2  C   UNL     1      -2.342  -0.230  -1.180  0.00  0.00    +0.213 C 
ATOM      3  O   UNL     1      -2.271   0.467  -2.170  0.00  0.00    -0.276 OA
ATOM      4  H   UNL     1      -1.722  -0.526   0.829  0.00  0.00    +0.173 HD
ENDROOT
BRANCH   1   9
ATOM      5  C   UNL     1       1.644   3.096  -1.361  0.00  0.00    +0.041 C 
ATOM      6  C   UNL     1       0.900   2.712  -0.081  0.00  0.00    +0.112 C 
ATOM      7  C   UNL     1       0.482   1.256  -0.123  0.00  0.00    +0.263 C 
ATOM      8  O   UNL     1       1.207   0.287  -0.199  0.00  0.00    -0.271 OA
ATOM      9  N   UNL     1      -0.865   1.261  -0.057  0.00  0.00    -0.137 N 
ATOM     10  C   UNL     1      -1.350   2.505   0.020  0.00  0.00    +0.326 C 
ATOM     11  O   UNL     1      -2.535   2.765   0.084  0.00  0.00    -0.251 OA
ATOM     12  N   UNL     1      -0.380   3.437   0.013  0.00  0.00    -0.284 N 
ATOM     13  H   UNL     1      -0.387   4.536   0.060  0.00  0.00    +0.151 HD
BRANCH   6  14
ATOM     14  C   UNL     1       1.766   2.988   1.150  0.00  0.00    +0.040 C 
BRANCH  14  15
ATOM     15  C   UNL     1       2.069   4.485   1.235  0.00  0.00    +0.038 C 
BRANCH  15  16
ATOM     16  C   UNL     1       2.922   4.757   2.447  0.00  0.00    -0.047 A 
ATOM     17  C   UNL     1       2.326   5.050   3.660  0.00  0.00    +0.003 A 
ATOM     18  C   UNL     1       3.109   5.295   4.773  0.00  0.00    +0.000 A 
ATOM     19  C   UNL     1       4.487   5.257   4.671  0.00  0.00    +0.000 A 
ATOM     20  C   UNL     1       5.082   4.969   3.457  0.00  0.00    +0.000 A 
ATOM     21  C   UNL     1       4.300   4.720   2.345  0.00  0.00    +0.003 A 
ENDBRANCH  15  16
ENDBRANCH  14  15
ENDBRANCH   6  14
ENDBRANCH   1   9
BRANCH   2  22
ATOM     22  C   UNL     1      -3.195  -1.473  -1.193  0.00  0.00    +0.021 C 
BRANCH  22  23
ATOM     23  N   UNL     1      -3.832  -1.616  -2.509  0.00  0.00    +0.390 N 
ATOM     24  C   UNL     1      -2.914  -2.066  -3.463  0.00  0.00    -0.077 C 
ATOM     25  C   UNL     1      -3.499  -2.008  -4.891  0.00  0.00    -0.019 C 
ATOM     26  C   UNL     1      -4.435  -3.173  -5.087  0.00  0.00    -0.002 C 
ATOM     27  C   UNL     1      -5.899  -2.819  -4.759  0.00  0.00    -0.001 C 
ATOM     28  C   UNL     1      -6.012  -1.951  -3.494  0.00  0.00    -0.011 C 
ATOM     29  C   UNL     1      -5.068  -2.418  -2.414  0.00  0.00    -0.037 C 
ATOM     30  H   UNL     1      -4.114  -0.633  -2.914  0.00  0.00    -0.080 HD
BRANCH  29  31
ATOM     31  C   UNL     1      -5.702  -2.217  -1.062  0.00  0.00    -0.061 A 
ATOM     32  C   UNL     1      -6.027  -0.943  -0.634  0.00  0.00    +0.005 A 
ATOM     33  C   UNL     1      -6.614  -0.757   0.603  0.00  0.00    +0.046 A 
ATOM     34  C   UNL     1      -6.867  -1.849   1.421  0.00  0.00    +0.120 A 
ATOM     35  C   UNL     1      -6.534  -3.126   0.992  0.00  0.00    +0.046 A 
ATOM     36  C   UNL     1      -5.953  -3.307  -0.248  0.00  0.00    +0.005 A 
BRANCH  34  37
ATOM     37  O   UNL     1      -7.439  -1.669   2.640  0.00  0.00    -0.495 OA
ATOM     38  C   UNL     1      -7.755  -0.327   3.016  0.00  0.00    +0.277 C 
ENDBRANCH  34  37
ENDBRANCH  29  31
ENDBRANCH  22  23
ENDBRANCH   2  22
TORSDOF 8
