REMARK  Name = ZINC02130889
REMARK  8 active torsions:
REMARK  status: ('A' for Active; 'I' for Inactive)
REMARK    1  A    between atoms: C_1  and  C_2
REMARK    2  A    between atoms: C_2  and  C_3
REMARK    3  A    between atoms: C_2  and  O_4
REMARK    4  A    between atoms: O_4  and  C_5
REMARK    5  A    between atoms: C_8  and  C_13
REMARK    6  A    between atoms: C_10  and  O_11
REMARK    7  A    between atoms: O_11  and  C_12
REMARK    8  A    between atoms: C_23  and  C_34
REMARK                            x       y       z     vdW  Elec       q    Type
REMARK                         _______ _______ _______ _____ _____    ______ ____
ROOT
ATOM      1  C   UNL     1       4.472   4.702  -0.928  0.00  0.00    +0.069 C 
ATOM      2  C   UNL     1       5.572   4.365   0.086  0.00  0.00    +0.122 C 
ATOM      3  N   UNL     1       6.188   3.077  -0.293  0.00  0.00    -0.280 N 
ATOM      4  C   UNL     1       6.056   2.026   0.521  0.00  0.00    +0.234 C 
ATOM      5  O   UNL     1       5.570   2.215   1.616  0.00  0.00    -0.274 OA
ATOM      6  C   UNL     1       6.468   0.634   0.169  0.00  0.00    +0.200 C 
ATOM      7  N   UNL     1       6.993   0.542  -1.183  0.00  0.00    -0.305 N 
ATOM      8  C   UNL     1       7.193   1.599  -1.971  0.00  0.00    +0.243 C 
ATOM      9  O   UNL     1       7.634   1.404  -3.084  0.00  0.00    -0.273 OA
ATOM     10  C   UNL     1       6.906   3.006  -1.565  0.00  0.00    +0.151 C 
ATOM     11  C   UNL     1       6.072   3.700  -2.615  0.00  0.00    +0.054 A 
ATOM     12  C   UNL     1       4.991   4.456  -2.321  0.00  0.00    -0.008 A 
ATOM     13  C   UNL     1       4.468   4.952  -3.577  0.00  0.00    +0.004 A 
ATOM     14  C   UNL     1       3.379   5.770  -3.893  0.00  0.00    +0.010 A 
ATOM     15  C   UNL     1       3.172   6.043  -5.223  0.00  0.00    +0.001 A 
ATOM     16  C   UNL     1       3.997   5.536  -6.215  0.00  0.00    +0.002 A 
ATOM     17  C   UNL     1       5.081   4.724  -5.931  0.00  0.00    +0.026 A 
ATOM     18  C   UNL     1       5.315   4.430  -4.589  0.00  0.00    +0.047 A 
ATOM     19  N   UNL     1       6.271   3.679  -3.970  0.00  0.00    -0.356 N 
ATOM     20  H   UNL     1       6.985   3.201  -4.421  0.00  0.00    +0.166 HD
ATOM     21  C   UNL     1       8.238   3.746  -1.423  0.00  0.00    +0.048 C 
ATOM     22  H   UNL     1       7.210  -0.337  -1.532  0.00  0.00    +0.149 HD
ENDROOT
BRANCH   1  26
ATOM     23  C   UNL     1       1.065   2.216  -0.216  0.00  0.00    +0.162 A 
ATOM     24  C   UNL     1       2.291   1.646  -0.519  0.00  0.00    +0.050 A 
ATOM     25  C   UNL     1       3.389   2.453  -0.754  0.00  0.00    +0.008 A 
ATOM     26  C   UNL     1       3.270   3.828  -0.677  0.00  0.00    -0.035 A 
ATOM     27  C   UNL     1       2.051   4.403  -0.369  0.00  0.00    +0.053 A 
ATOM     28  C   UNL     1       0.945   3.600  -0.138  0.00  0.00    +0.162 A 
BRANCH  28  29
ATOM     29  O   UNL     1      -0.255   4.165   0.164  0.00  0.00    -0.491 OA
ATOM     30  C   UNL     1      -0.303   5.591   0.226  0.00  0.00    +0.277 C 
ENDBRANCH  28  29
BRANCH  23  31
ATOM     31  O   UNL     1      -0.017   1.425   0.010  0.00  0.00    -0.486 OA
BRANCH  31  33
ATOM     32  C   UNL     1      -0.884  -0.659   0.875  0.00  0.00    +0.051 C 
ATOM     33  C   UNL     1       0.205   0.013   0.037  0.00  0.00    +0.167 C 
ATOM     34  C   UNL     1       0.163  -0.537  -1.390  0.00  0.00    +0.051 C 
ENDBRANCH  31  33
ENDBRANCH  23  31
ENDBRANCH   1  26
TORSDOF 4
