REMARK  Name = ZINC38684769
REMARK  12 active torsions:
REMARK  status: ('A' for Active; 'I' for Inactive)
REMARK    1  A    between atoms: C_1  and  C_2
REMARK    2  A    between atoms: C_2  and  C_3
REMARK    3  A    between atoms: C_3  and  C_4
REMARK    4  A    between atoms: C_4  and  C_5
REMARK    5  A    between atoms: C_5  and  O_6
REMARK    6  A    between atoms: O_6  and  C_7
REMARK    7  A    between atoms: C_11  and  C_13
REMARK    8  A    between atoms: C_18  and  O_27
REMARK    9  A    between atoms: C_22  and  N_26
REMARK   10  A    between atoms: C_23  and  C_24
REMARK   11  A    between atoms: O_27  and  C_28
REMARK   12  A    between atoms: C_28  and  C_30
REMARK                            x       y       z     vdW  Elec       q    Type
REMARK                         _______ _______ _______ _____ _____    ______ ____
ROOT
ATOM      1  C   UNL     1       2.913  -8.089   4.737  0.00  0.00    +0.098 C 
ATOM      2  C   UNL     1       4.354  -8.527   4.721  0.00  0.00    +0.008 A 
ATOM      3  C   UNL     1       5.033  -8.591   3.518  0.00  0.00    +0.012 A 
ATOM      4  C   UNL     1       6.354  -8.991   3.484  0.00  0.00    +0.047 A 
ATOM      5  C   UNL     1       7.006  -9.330   4.662  0.00  0.00    +0.135 A 
ATOM      6  C   UNL     1       6.329  -9.267   5.869  0.00  0.00    +0.093 A 
ATOM      7  C   UNL     1       5.000  -8.864   5.900  0.00  0.00    +0.138 A 
ATOM      8  O   UNL     1       4.352  -8.808   7.090  0.00  0.00    -0.441 OA
ATOM      9  C   UNL     1       3.009  -8.806   7.121  0.00  0.00    +0.199 C 
ATOM     10  C   UNL     1       2.270  -8.474   6.039  0.00  0.00    +0.098 C 
ENDROOT
BRANCH   1  15
ATOM     11  C   UNL     1       2.112  -4.672   3.336  0.00  0.00    +0.121 A 
ATOM     12  C   UNL     1       2.722  -3.844   4.266  0.00  0.00    +0.045 A 
ATOM     13  C   UNL     1       3.391  -4.392   5.343  0.00  0.00    +0.004 A 
ATOM     14  C   UNL     1       3.452  -5.765   5.495  0.00  0.00    +0.005 A 
ATOM     15  C   UNL     1       2.845  -6.593   4.569  0.00  0.00    -0.031 A 
ATOM     16  C   UNL     1       2.170  -6.049   3.493  0.00  0.00    +0.050 A 
BRANCH  11  17
ATOM     17  O   UNL     1       1.453  -4.136   2.275  0.00  0.00    -0.492 OA
BRANCH  17  18
ATOM     18  C   UNL     1       1.434  -2.710   2.177  0.00  0.00    +0.229 C 
BRANCH  18  19
ATOM     19  C   UNL     1       0.652  -2.295   0.929  0.00  0.00    +0.041 C 
BRANCH  19  20
ATOM     20  C   UNL     1       0.632  -0.768   0.825  0.00  0.00    +0.003 C 
BRANCH  20  22
ATOM     21  C   UNL     1      -0.170   1.173  -0.528  0.00  0.00    +0.004 C 
ATOM     22  C   UNL     1      -0.150  -0.353  -0.423  0.00  0.00    -0.003 C 
ENDBRANCH  20  22
ENDBRANCH  19  20
ENDBRANCH  18  19
ENDBRANCH  17  18
ENDBRANCH  11  17
ENDBRANCH   1  15
BRANCH   9  23
ATOM     23  N   UNL     1       2.369  -9.150   8.286  0.00  0.00    -0.328 N 
ATOM     24  H   UNL     1       2.886  -9.389   9.071  0.00  0.00    +0.145 HD
ATOM     25  H   UNL     1       1.400  -9.153   8.324  0.00  0.00    +0.145 HD
ENDBRANCH   9  23
BRANCH  10  26
ATOM     26  C   UNL     1       0.842  -8.490   6.139  0.00  0.00    +0.101 C 
ATOM     27  N   UNL     1      -0.291  -8.502   6.218  0.00  0.00    -0.191 NA
ENDBRANCH  10  26
BRANCH   5  28
ATOM     28  O   UNL     1       8.306  -9.724   4.630  0.00  0.00    -0.422 OA
BRANCH  28  29
ATOM     29  C   UNL     1       8.584 -11.013   4.908  0.00  0.00    +0.346 C 
ATOM     30  O   UNL     1       7.679 -11.807   5.072  0.00  0.00    -0.244 OA
BRANCH  29  31
ATOM     31  C   UNL     1       9.987 -11.460   5.012  0.00  0.00    +0.078 A 
ATOM     32  C   UNL     1      11.030 -10.549   4.829  0.00  0.00    +0.016 A 
ATOM     33  C   UNL     1      12.338 -10.973   4.927  0.00  0.00    +0.001 A 
ATOM     34  C   UNL     1      12.620 -12.299   5.206  0.00  0.00    +0.001 A 
ATOM     35  C   UNL     1      11.594 -13.208   5.388  0.00  0.00    +0.021 A 
ATOM     36  C   UNL     1      10.279 -12.796   5.299  0.00  0.00    +0.055 A 
ATOM     37 CL   UNL     1       8.991 -13.937   5.536  0.00  0.00    -0.083 Cl
ENDBRANCH  29  31
ENDBRANCH  28  29
ENDBRANCH   5  28
TORSDOF 11
