REMARK  Name = ZINC42085797
REMARK  6 active torsions:
REMARK  status: ('A' for Active; 'I' for Inactive)
REMARK    1  A    between atoms: C_1  and  C_2
REMARK    2  A    between atoms: C_8  and  N_10
REMARK    3  A    between atoms: N_10  and  C_11
REMARK    4  A    between atoms: C_11  and  N_13
REMARK    5  A    between atoms: N_13  and  N_14
REMARK    6  A    between atoms: C_15  and  C_17
REMARK                            x       y       z     vdW  Elec       q    Type
REMARK                         _______ _______ _______ _____ _____    ______ ____
ROOT
ATOM      1  N   UNL     1       0.107   0.528   4.711  0.00  0.00    -0.246 N 
ATOM      2  H   UNL     1       0.598   0.623   5.542  0.00  0.00    +0.172 HD
ENDROOT
BRANCH   1   3
ATOM      3  N   UNL     1      -1.257   0.843   4.663  0.00  0.00    -0.229 N 
ATOM      4  C   UNL     1      -1.888   1.278   5.772  0.00  0.00    +0.295 C 
ATOM      5  O   UNL     1      -1.272   1.396   6.815  0.00  0.00    -0.265 OA
ATOM      6  H   UNL     1      -1.748   0.748   3.831  0.00  0.00    +0.173 HD
BRANCH   4   7
ATOM      7  C   UNL     1      -3.315   1.607   5.721  0.00  0.00    +0.192 A 
ATOM      8  C   UNL     1      -4.071   2.061   6.764  0.00  0.00    +0.056 A 
ATOM      9  C   UNL     1      -5.372   2.244   6.271  0.00  0.00    +0.058 A 
ATOM     10  C   UNL     1      -5.354   1.899   4.963  0.00  0.00    +0.171 A 
ATOM     11  O   UNL     1      -4.111   1.521   4.635  0.00  0.00    -0.444 OA
ATOM     12 BR   UNL     1      -6.836   1.948   3.790  0.00  0.00    -0.008 Br
ENDBRANCH   4   7
ENDBRANCH   1   3
BRANCH   1  13
ATOM     13  C   UNL     1       0.738   0.093   3.602  0.00  0.00    +0.147 C 
ATOM     14  S   UNL     1       2.405  -0.292   3.661  0.00  0.00    -0.017 S 
BRANCH  13  15
ATOM     15  N   UNL     1       0.056  -0.038   2.447  0.00  0.00    -0.322 N 
ATOM     16  H   UNL     1      -0.888   0.180   2.413  0.00  0.00    +0.148 HD
BRANCH  15  23
ATOM     17  C   UNL     1      -0.019   1.526   0.010  0.00  0.00    +0.009 C 
ATOM     18  C   UNL     1       0.002  -0.004   0.002  0.00  0.00    +0.006 C 
ATOM     19  C   UNL     1      -1.433  -0.534   0.013  0.00  0.00    +0.005 C 
ATOM     20  C   UNL     1      -1.413  -2.063   0.004  0.00  0.00    +0.000 C 
ATOM     21  C   UNL     1      -0.673  -2.570   1.244  0.00  0.00    +0.002 C 
ATOM     22  C   UNL     1       0.763  -2.041   1.233  0.00  0.00    +0.022 C 
ATOM     23  C   UNL     1       0.742  -0.511   1.242  0.00  0.00    +0.075 C 
ENDBRANCH  15  23
ENDBRANCH  13  15
ENDBRANCH   1  13
TORSDOF 5
