REMARK  Name = ZINC60335867
REMARK  10 active torsions:
REMARK  status: ('A' for Active; 'I' for Inactive)
REMARK    1  A    between atoms: C_1  and  C_2
REMARK    2  A    between atoms: C_9  and  C_12
REMARK    3  A    between atoms: C_10  and  C_11
REMARK    4  A    between atoms: C_19  and  C_21
REMARK    5  A    between atoms: C_21  and  N_22
REMARK    6  A    between atoms: C_23  and  O_25
REMARK    7  A    between atoms: O_25  and  C_26
REMARK    8  A    between atoms: C_26  and  C_27
REMARK    9  A    between atoms: C_26  and  C_28
REMARK   10  A    between atoms: C_26  and  C_29
REMARK                            x       y       z     vdW  Elec       q    Type
REMARK                         _______ _______ _______ _____ _____    ______ ____
ROOT
ATOM      1  C   UNL     1       0.926  -1.125   4.816  0.00  0.00    +0.282 C 
ATOM      2  O   UNL     1       0.845  -2.213   5.354  0.00  0.00    -0.267 OA
ATOM      3  N   UNL     1       0.612  -0.008   5.502  0.00  0.00    -0.290 N 
ATOM      4  C   UNL     1       0.624   1.304   4.841  0.00  0.00    +0.108 C 
ATOM      5  C   UNL     1       1.513   2.255   5.650  0.00  0.00    +0.019 C 
ATOM      6  C   UNL     1       1.030   2.286   7.102  0.00  0.00    +0.003 C 
ATOM      7  C   UNL     1       1.143   0.886   7.709  0.00  0.00    +0.024 C 
ATOM      8  C   UNL     1       0.245  -0.081   6.923  0.00  0.00    +0.094 C 
ENDROOT
BRANCH   1  17
ATOM      9  C   UNL     1       1.655   2.129   0.372  0.00  0.00    +0.047 C 
ATOM     10  C   UNL     1       2.009   0.665   0.316  0.00  0.00    -0.008 A 
ATOM     11  C   UNL     1       2.524   0.123  -0.842  0.00  0.00    +0.007 A 
ATOM     12  C   UNL     1       2.854  -1.223  -0.909  0.00  0.00    +0.001 A 
ATOM     13  C   UNL     1       2.674  -2.035   0.176  0.00  0.00    +0.012 A 
ATOM     14  C   UNL     1       2.154  -1.505   1.359  0.00  0.00    +0.024 A 
ATOM     15  C   UNL     1       1.822  -0.140   1.434  0.00  0.00    +0.139 A 
ATOM     16  O   UNL     1       1.356   0.098   2.675  0.00  0.00    -0.450 OA
ATOM     17  C   UNL     1       1.368  -1.029   3.417  0.00  0.00    +0.194 A 
ATOM     18  C   UNL     1       1.837  -2.063   2.673  0.00  0.00    +0.008 A 
ATOM     19  C   UNL     1       2.013  -3.492   3.117  0.00  0.00    +0.048 C 
ENDBRANCH   1  17
BRANCH   8  20
ATOM     20  C   UNL     1       0.453  -1.508   7.434  0.00  0.00    +0.130 C 
BRANCH  20  21
ATOM     21  N   UNL     1      -0.589  -2.380   6.886  0.00  0.00    -0.279 N 
ATOM     22  C   UNL     1      -0.580  -3.698   7.163  0.00  0.00    +0.401 C 
ATOM     23  O   UNL     1       0.294  -4.164   7.868  0.00  0.00    -0.226 OA
ATOM     24  H   UNL     1      -1.286  -2.007   6.323  0.00  0.00    +0.152 HD
BRANCH  22  25
ATOM     25  O   UNL     1      -1.537  -4.499   6.659  0.00  0.00    -0.445 OA
BRANCH  25  26
ATOM     26  C   UNL     1      -1.465  -5.887   6.994  0.00  0.00    +0.107 C 
ATOM     27  C   UNL     1      -1.550  -6.050   8.513  0.00  0.00    +0.055 C 
ATOM     28  C   UNL     1      -2.628  -6.632   6.336  0.00  0.00    +0.055 C 
ATOM     29  C   UNL     1      -0.140  -6.464   6.493  0.00  0.00    +0.055 C 
ENDBRANCH  25  26
ENDBRANCH  22  25
ENDBRANCH  20  21
ENDBRANCH   8  20
TORSDOF 5
