REMARK  Name = ZINC42795984
REMARK  3 active torsions:
REMARK  status: ('A' for Active; 'I' for Inactive)
REMARK    1  A    between atoms: C_1  and  C_2
REMARK    2  A    between atoms: C_15  and  C_17
REMARK    3  A    between atoms: C_17  and  C_19
REMARK                            x       y       z     vdW  Elec       q    Type
REMARK                         _______ _______ _______ _____ _____    ______ ____
ROOT
ATOM      1  C   UNL     1      -0.026   1.527   0.018  0.00  0.00    +0.033 C 
ATOM      2  C   UNL     1      -0.005  -0.003   0.008  0.00  0.00    +0.105 C 
ATOM      3  C   UNL     1      -1.426  -0.540   0.169  0.00  0.00    -0.017 A 
ATOM      4  C   UNL     1      -2.510  -0.068  -0.569  0.00  0.00    +0.013 A 
ATOM      5  C   UNL     1      -3.741  -0.594  -0.376  0.00  0.00    +0.046 A 
ATOM      6  S   UNL     1      -3.425  -1.815   0.890  0.00  0.00    -0.101 S 
ATOM      7  C   UNL     1      -1.683  -1.530   1.067  0.00  0.00    -0.004 A 
ATOM      8  C   UNL     1      -0.721  -2.208   1.987  0.00  0.00    +0.062 C 
ATOM      9  C   UNL     1       0.709  -1.918   1.505  0.00  0.00    +0.115 C 
ATOM     10  N   UNL     1       0.794  -0.497   1.138  0.00  0.00    -0.278 N 
ATOM     11  C   UNL     1       1.593   0.341   1.828  0.00  0.00    +0.309 C 
ATOM     12  O   UNL     1       1.591   1.530   1.573  0.00  0.00    -0.252 OA
ATOM     13  N   UNL     1       2.393  -0.139   2.800  0.00  0.00    -0.239 N 
ATOM     14  C   UNL     1       3.114   0.710   3.560  0.00  0.00    +0.238 C 
ATOM     15  O   UNL     1       3.042   1.905   3.369  0.00  0.00    -0.274 OA
ATOM     16  H   UNL     1       2.451  -1.095   2.953  0.00  0.00    +0.159 HD
ENDROOT
BRANCH  14  17
ATOM     17  C   UNL     1       4.009   0.173   4.647  0.00  0.00    +0.163 C 
ATOM     18  C   UNL     1       5.363   0.883   4.589  0.00  0.00    +0.034 C 
ATOM     19 CL   UNL     1       3.245   0.465   6.253  0.00  0.00    -0.112 Cl
ENDBRANCH  14  17
TORSDOF 1
