REMARK  Name = ZINC46054110
REMARK  4 active torsions:
REMARK  status: ('A' for Active; 'I' for Inactive)
REMARK    1  A    between atoms: C_6  and  C_7
REMARK    2  A    between atoms: N_12  and  C_13
REMARK    3  A    between atoms: C_13  and  C_14
REMARK    4  A    between atoms: N_16  and  C_17
REMARK                            x       y       z     vdW  Elec       q    Type
REMARK                         _______ _______ _______ _____ _____    ______ ____
ROOT
ATOM      1  C   UNL     1      -0.001  -1.579  -1.880  0.00  0.00    +0.019 C 
ENDROOT
BRANCH   1   6
ATOM      2  C   UNL     1      -1.360  -0.254  -0.401  0.00  0.00    -0.037 C 
ATOM      3  C   UNL     1      -2.006  -0.856   0.865  0.00  0.00    -0.013 C 
ATOM      4  C   UNL     1      -2.863  -2.020   0.301  0.00  0.00    -0.020 C 
ATOM      5  C   UNL     1      -1.976  -2.524  -0.865  0.00  0.00    -0.077 C 
ATOM      6  N   UNL     1      -1.375  -1.298  -1.441  0.00  0.00    +0.390 N 
ATOM      7  H   UNL     1      -1.924  -0.986  -2.228  0.00  0.00    -0.080 HD
BRANCH   2  13
ATOM      8  C   UNL     1       0.505   1.414  -0.468  0.00  0.00    +0.005 A 
ATOM      9  C   UNL     1       1.806   1.791  -0.199  0.00  0.00    +0.038 A 
ATOM     10  C   UNL     1       2.665   0.908   0.434  0.00  0.00    +0.123 A 
ATOM     11  C   UNL     1       2.219  -0.351   0.797  0.00  0.00    +0.038 A 
ATOM     12  C   UNL     1       0.916  -0.726   0.526  0.00  0.00    +0.005 A 
ATOM     13  C   UNL     1       0.060   0.156  -0.106  0.00  0.00    -0.061 A 
ATOM     14  F   UNL     1       3.938   1.276   0.698  0.00  0.00    -0.205 F 
ENDBRANCH   2  13
ENDBRANCH   1   6
BRANCH   1  15
ATOM     15  C   UNL     1      -0.031  -2.538  -3.042  0.00  0.00    +0.197 C 
ATOM     16  O   UNL     1      -1.092  -2.947  -3.464  0.00  0.00    -0.278 OA
ATOM     17  N   UNL     1       1.122  -2.941  -3.613  0.00  0.00    -0.306 N 
ATOM     18  H   UNL     1       1.970  -2.613  -3.276  0.00  0.00    +0.149 HD
BRANCH  17  19
ATOM     19  C   UNL     1       1.093  -3.873  -4.743  0.00  0.00    +0.159 C 
ATOM     20  C   UNL     1       2.504  -4.402  -5.009  0.00  0.00    +0.032 C 
ATOM     21  C   UNL     1       3.542  -3.331  -4.730  0.00  0.00    +0.004 C 
ATOM     22  C   UNL     1       3.483  -2.156  -5.689  0.00  0.00    +0.019 C 
ATOM     23  C   UNL     1       2.188  -1.363  -5.501  0.00  0.00    +0.104 C 
ATOM     24  N   UNL     1       1.136  -1.977  -6.327  0.00  0.00    -0.314 N 
ATOM     25  C   UNL     1       0.604  -3.154  -5.983  0.00  0.00    +0.233 C 
ATOM     26  O   UNL     1      -0.267  -3.651  -6.665  0.00  0.00    -0.274 OA
ATOM     27  H   UNL     1       0.824  -1.523  -7.125  0.00  0.00    +0.149 HD
ENDBRANCH  17  19
ENDBRANCH   1  15
TORSDOF 4
