REMARK  Name = ZINC39710931
REMARK  12 active torsions:
REMARK  status: ('A' for Active; 'I' for Inactive)
REMARK    1  A    between atoms: C_1  and  C_2
REMARK    2  A    between atoms: C_8  and  C_14
REMARK    3  A    between atoms: C_14  and  C_16
REMARK    4  A    between atoms: C_14  and  N_26
REMARK    5  A    between atoms: N_21  and  C_22
REMARK    6  A    between atoms: C_22  and  C_23
REMARK    7  A    between atoms: C_22  and  C_24
REMARK    8  A    between atoms: C_22  and  C_25
REMARK    9  A    between atoms: N_26  and  C_27
REMARK   10  A    between atoms: N_26  and  C_33
REMARK   11  A    between atoms: C_27  and  C_28
REMARK   12  A    between atoms: C_33  and  C_34
REMARK                            x       y       z     vdW  Elec       q    Type
REMARK                         _______ _______ _______ _____ _____    ______ ____
ROOT
ATOM      1  C   UNL     1       1.321  -2.226   4.550  0.00  0.00    -0.009 C 
ENDROOT
BRANCH   1   9
ATOM      2  C   UNL     1       1.058   1.648  -0.203  0.00  0.00    +0.045 C 
ATOM      3  C   UNL     1       1.155   0.145  -0.146  0.00  0.00    -0.029 A 
ATOM      4  C   UNL     1       1.515  -0.550  -1.256  0.00  0.00    +0.005 A 
ATOM      5  C   UNL     1       1.625  -1.941  -1.270  0.00  0.00    +0.001 A 
ATOM      6  C   UNL     1       1.374  -2.682  -0.160  0.00  0.00    +0.009 A 
ATOM      7  C   UNL     1       0.981  -1.996   1.071  0.00  0.00    -0.007 A 
ATOM      8  C   UNL     1       0.719  -2.699   2.210  0.00  0.00    -0.006 C 
ATOM      9  C   UNL     1       0.319  -1.907   3.439  0.00  0.00    +0.088 C 
ATOM     10  C   UNL     1       0.243  -0.403   3.302  0.00  0.00    +0.223 C 
ATOM     11  O   UNL     1      -0.073   0.282   4.257  0.00  0.00    -0.275 OA
ATOM     12  N   UNL     1       0.521   0.166   2.141  0.00  0.00    -0.284 N 
ATOM     13  C   UNL     1       0.879  -0.527   1.059  0.00  0.00    +0.043 A 
ATOM     14  H   UNL     1       0.467   1.132   2.074  0.00  0.00    +0.155 HD
ENDBRANCH   1   9
BRANCH   1  15
ATOM     15  C   UNL     1       1.152  -3.682   4.987  0.00  0.00    +0.205 C 
ATOM     16  N   UNL     1       2.259  -4.087   5.865  0.00  0.00    -0.152 NA
ATOM     17  N   UNL     1       2.870  -5.016   5.333  0.00  0.00    -0.070 NA
ATOM     18  N   UNL     1       2.334  -5.382   4.099  0.00  0.00    -0.179 N 
ATOM     19  N   UNL     1       1.251  -4.585   3.821  0.00  0.00    -0.183 NA
ATOM     20  H   UNL     1       2.673  -6.089   3.527  0.00  0.00    +0.191 HD
BRANCH  19  21
ATOM     21  C   UNL     1       0.029  -5.387   3.671  0.00  0.00    +0.035 C 
ATOM     22  C   UNL     1      -1.186  -4.460   3.622  0.00  0.00    +0.029 C 
ATOM     23  C   UNL     1       0.107  -6.196   2.374  0.00  0.00    +0.029 C 
ATOM     24  C   UNL     1      -0.104  -6.341   4.860  0.00  0.00    +0.029 C 
ENDBRANCH  19  21
ENDBRANCH   1  15
BRANCH   1  25
ATOM     25  N   UNL     1       1.080  -1.339   5.697  0.00  0.00    +0.391 N 
ATOM     26  H   UNL     1       1.148  -0.378   5.399  0.00  0.00    -0.080 HD
BRANCH  25  27
ATOM     27  C   UNL     1       2.083  -1.601   6.738  0.00  0.00    -0.002 C 
BRANCH  27  28
ATOM     28  C   UNL     1       3.455  -1.272   6.208  0.00  0.00    +0.089 A 
ATOM     29  C   UNL     1       4.102  -0.104   6.372  0.00  0.00    +0.042 A 
ATOM     30  C   UNL     1       5.348  -0.230   5.717  0.00  0.00    +0.041 A 
ATOM     31  C   UNL     1       5.388  -1.468   5.191  0.00  0.00    +0.195 A 
ATOM     32  O   UNL     1       4.241  -2.096   5.496  0.00  0.00    -0.470 OA
ENDBRANCH  27  28
ENDBRANCH  25  27
BRANCH  25  33
ATOM     33  C   UNL     1      -0.263  -1.591   6.236  0.00  0.00    -0.046 C 
BRANCH  33  34
ATOM     34  C   UNL     1      -0.568  -0.576   7.339  0.00  0.00    +0.102 C 
ATOM     35  C   UNL     1      -1.926  -0.906   7.994  0.00  0.00    +0.032 C 
ATOM     36  C   UNL     1      -2.537   0.504   8.218  0.00  0.00    +0.030 C 
ATOM     37  C   UNL     1      -1.990   1.261   6.981  0.00  0.00    +0.160 C 
ATOM     38  O   UNL     1      -0.665   0.738   6.776  0.00  0.00    -0.378 OA
ENDBRANCH  33  34
ENDBRANCH  25  33
ENDBRANCH   1  25
TORSDOF 8
