REMARK  Name = ZINC25974956
REMARK  7 active torsions:
REMARK  status: ('A' for Active; 'I' for Inactive)
REMARK    1  A    between atoms: C_1  and  C_2
REMARK    2  A    between atoms: C_16  and  C_17
REMARK    3  A    between atoms: N_19  and  C_20
REMARK    4  A    between atoms: C_20  and  C_22
REMARK    5  A    between atoms: C_20  and  C_23
REMARK    6  A    between atoms: C_23  and  C_24
REMARK    7  A    between atoms: C_23  and  C_25
REMARK                            x       y       z     vdW  Elec       q    Type
REMARK                         _______ _______ _______ _____ _____    ______ ____
ROOT
ATOM      1  C   UNL     1       2.190   6.121  -3.536  0.00  0.00    +0.046 C 
ATOM      2  C   UNL     1       2.491   4.766  -4.122  0.00  0.00    -0.017 A 
ATOM      3  C   UNL     1       2.346   3.617  -3.340  0.00  0.00    +0.076 A 
ATOM      4  C   UNL     1       2.656   2.395  -3.979  0.00  0.00    +0.116 A 
ATOM      5  N   UNL     1       2.562   1.231  -3.349  0.00  0.00    -0.226 NA
ATOM      6  C   UNL     1       2.166   1.152  -2.110  0.00  0.00    +0.114 A 
ATOM      7  N   UNL     1       1.837   2.264  -1.391  0.00  0.00    -0.296 N 
ATOM      8  C   UNL     1       1.910   3.493  -1.931  0.00  0.00    +0.263 A 
ATOM      9  O   UNL     1       1.623   4.480  -1.277  0.00  0.00    -0.267 OA
ATOM     10  C   UNL     1       1.398   2.086  -0.000  0.00  0.00    +0.126 C 
ATOM     11  C   UNL     1      -0.018   1.515   0.010  0.00  0.00    +0.022 C 
ATOM     12  C   UNL     1       0.002  -0.004   0.002  0.00  0.00    +0.002 C 
ATOM     13  C   UNL     1       0.583  -0.562  -1.285  0.00  0.00    +0.008 C 
ATOM     14  C   UNL     1       2.058  -0.193  -1.428  0.00  0.00    +0.074 C 
ATOM     15  S   UNL     1       3.123   2.897  -5.617  0.00  0.00    -0.064 S 
ATOM     16  C   UNL     1       2.905   4.658  -5.417  0.00  0.00    +0.079 A 
ENDROOT
BRANCH  16  17
ATOM     17  C   UNL     1       3.117   5.723  -6.402  0.00  0.00    +0.251 C 
ATOM     18  O   UNL     1       2.919   6.884  -6.095  0.00  0.00    -0.270 OA
ATOM     19  N   UNL     1       3.533   5.417  -7.647  0.00  0.00    -0.308 N 
ATOM     20  H   UNL     1       3.713   4.368  -7.925  0.00  0.00    +0.149 HD
BRANCH  19  21
ATOM     21  C   UNL     1       3.746   6.482  -8.631  0.00  0.00    +0.073 C 
ATOM     22  C   UNL     1       2.419   6.817  -9.314  0.00  0.00    +0.028 C 
BRANCH  21  23
ATOM     23  C   UNL     1       4.756   6.013  -9.680  0.00  0.00    +0.003 C 
ATOM     24  C   UNL     1       4.978   7.125 -10.707  0.00  0.00    +0.009 C 
ATOM     25  C   UNL     1       6.083   5.677  -8.996  0.00  0.00    +0.009 C 
ENDBRANCH  21  23
ENDBRANCH  19  21
ENDBRANCH  16  17
TORSDOF 3
