REMARK  Name = ZINC20157693
REMARK  6 active torsions:
REMARK  status: ('A' for Active; 'I' for Inactive)
REMARK    1  A    between atoms: C_1  and  C_2
REMARK    2  A    between atoms: C_10  and  C_14
REMARK    3  A    between atoms: N_17  and  C_18
REMARK    4  A    between atoms: C_18  and  C_19
REMARK    5  A    between atoms: N_21  and  C_22
REMARK    6  A    between atoms: N_21  and  C_23
REMARK                            x       y       z     vdW  Elec       q    Type
REMARK                         _______ _______ _______ _____ _____    ______ ____
ROOT
ATOM      1  C   UNL     1      -1.611   1.114  -6.510  0.00  0.00    +0.086 C 
ATOM      2  C   UNL     1      -1.709  -0.375  -6.298  0.00  0.00    +0.111 A 
ATOM      3  N   UNL     1      -2.539  -1.073  -7.026  0.00  0.00    -0.227 NA
ATOM      4  C   UNL     1      -2.649  -2.389  -6.864  0.00  0.00    +0.116 A 
ATOM      5  C   UNL     1      -1.888  -3.089  -5.915  0.00  0.00    +0.076 A 
ATOM      6  C   UNL     1      -2.116  -4.532  -5.849  0.00  0.00    -0.023 A 
ATOM      7  C   UNL     1      -3.028  -5.047  -6.701  0.00  0.00    -0.004 A 
ATOM      8  S   UNL     1      -3.627  -3.659  -7.627  0.00  0.00    -0.073 S 
ATOM      9  C   UNL     1      -3.441  -6.481  -6.830  0.00  0.00    +0.046 C 
ATOM     10  C   UNL     1      -2.944  -7.242  -5.593  0.00  0.00    -0.009 C 
ATOM     11  C   UNL     1      -1.475  -6.880  -5.351  0.00  0.00    +0.008 C 
ATOM     12  C   UNL     1      -1.369  -5.433  -4.870  0.00  0.00    +0.037 C 
ATOM     13  C   UNL     1      -3.069  -8.748  -5.831  0.00  0.00    +0.008 C 
ATOM     14  C   UNL     1      -0.983  -2.294  -5.137  0.00  0.00    +0.263 A 
ATOM     15  O   UNL     1      -0.275  -2.811  -4.291  0.00  0.00    -0.267 OA
ATOM     16  N   UNL     1      -0.932  -0.967  -5.355  0.00  0.00    -0.287 N 
ENDROOT
BRANCH  16  17
ATOM     17  C   UNL     1      -0.015  -0.145  -4.562  0.00  0.00    +0.222 C 
BRANCH  17  18
ATOM     18  C   UNL     1      -0.720   0.341  -3.322  0.00  0.00    +0.235 C 
ATOM     19  O   UNL     1      -1.875   0.032  -3.121  0.00  0.00    -0.274 OA
ATOM     20  N   UNL     1      -0.067   1.120  -2.437  0.00  0.00    -0.300 N 
ATOM     21  C   UNL     1       1.328   1.494  -2.680  0.00  0.00    +0.132 C 
BRANCH  20  22
ATOM     22  C   UNL     1      -0.753   1.593  -1.232  0.00  0.00    +0.076 C 
ATOM     23  C   UNL     1      -0.013   1.086   0.008  0.00  0.00    +0.022 C 
ATOM     24  C   UNL     1      -0.729   1.579   1.267  0.00  0.00    +0.002 C 
ATOM     25  C   UNL     1      -0.750   3.109   1.275  0.00  0.00    +0.000 C 
ATOM     26  C   UNL     1      -1.490   3.616   0.036  0.00  0.00    +0.002 C 
ATOM     27  C   UNL     1      -0.773   3.123  -1.223  0.00  0.00    +0.022 C 
ENDBRANCH  20  22
ENDBRANCH  17  18
ENDBRANCH  16  17
TORSDOF 3
