REMARK  Name = ZINC09109531
REMARK  6 active torsions:
REMARK  status: ('A' for Active; 'I' for Inactive)
REMARK    1  A    between atoms: C_3  and  N_8
REMARK    2  A    between atoms: C_9  and  C_11
REMARK    3  A    between atoms: C_11  and  S_12
REMARK    4  A    between atoms: S_12  and  C_13
REMARK    5  A    between atoms: C_16  and  C_19
REMARK    6  A    between atoms: N_17  and  N_18
REMARK                            x       y       z     vdW  Elec       q    Type
REMARK                         _______ _______ _______ _____ _____    ______ ____
ROOT
ATOM      1  C   UNL     1       8.854   2.139   0.388  0.00  0.00    +0.209 A 
ATOM      2  N   UNL     1       8.852   3.453   0.402  0.00  0.00    -0.120 NA
ATOM      3  N   UNL     1      10.054   3.897   0.496  0.00  0.00    -0.125 NA
ATOM      4  C   UNL     1      10.900   2.892   0.548  0.00  0.00    +0.200 A 
ATOM      5  N   UNL     1      10.156   1.735   0.486  0.00  0.00    -0.223 N 
ENDROOT
BRANCH   4   6
ATOM      6  C   UNL     1      12.366   2.985   0.658  0.00  0.00    +0.108 A 
ATOM      7  C   UNL     1      13.111   4.145   0.732  0.00  0.00    +0.004 A 
ATOM      8  C   UNL     1      14.453   3.783   0.826  0.00  0.00    +0.067 A 
ATOM      9  N   UNL     1      14.534   2.474   0.810  0.00  0.00    -0.178 NA
ATOM     10  N   UNL     1      13.243   1.942   0.712  0.00  0.00    -0.273 N 
ATOM     11  H   UNL     1      13.014   1.000   0.685  0.00  0.00    +0.189 HD
ATOM     12  C   UNL     1      15.309   5.030   0.909  0.00  0.00    +0.058 C 
ATOM     13  C   UNL     1      14.401   6.177   0.418  0.00  0.00    +0.011 C 
ATOM     14  C   UNL     1      12.987   5.653   0.746  0.00  0.00    +0.039 C 
ENDBRANCH   4   6
BRANCH   5  15
ATOM     15  N   UNL     1      10.621   0.451   0.515  0.00  0.00    -0.295 N 
ATOM     16  H   UNL     1      10.818   0.117  -0.417  0.00  0.00    +0.163 HD
ATOM     17  H   UNL     1      11.436   0.375   1.105  0.00  0.00    +0.163 HD
ENDBRANCH   5  15
BRANCH   1  18
ATOM     18  S   UNL     1       7.441   1.092   0.272  0.00  0.00    -0.075 S 
BRANCH  18  19
ATOM     19  C   UNL     1       6.047   2.248   0.171  0.00  0.00    +0.173 C 
BRANCH  19  21
ATOM     20  N   UNL     1       3.584   2.127  -0.021  0.00  0.00    -0.285 N 
ATOM     21  C   UNL     1       4.759   1.473   0.066  0.00  0.00    +0.227 C 
ATOM     22  O   UNL     1       4.779   0.260   0.060  0.00  0.00    -0.275 OA
ATOM     23  H   UNL     1       3.571   3.094  -0.093  0.00  0.00    +0.155 HD
BRANCH  20  26
ATOM     24  C   UNL     1       1.088  -0.461   0.751  0.00  0.00    +0.005 A 
ATOM     25  C   UNL     1       2.276   0.244   0.738  0.00  0.00    +0.023 A 
ATOM     26  C   UNL     1       2.381   1.411  -0.007  0.00  0.00    +0.036 A 
ATOM     27  C   UNL     1       1.292   1.866  -0.739  0.00  0.00    +0.061 A 
ATOM     28  C   UNL     1       0.106   1.156  -0.722  0.00  0.00    +0.125 A 
ATOM     29  C   UNL     1       0.004  -0.007   0.023  0.00  0.00    +0.038 A 
ATOM     30  F   UNL     1      -0.955   1.598  -1.433  0.00  0.00    -0.205 F 
ENDBRANCH  20  26
ENDBRANCH  19  21
ENDBRANCH  18  19
ENDBRANCH   1  18
TORSDOF 6
