REMARK  Name = ZINC20151617
REMARK  10 active torsions:
REMARK  status: ('A' for Active; 'I' for Inactive)
REMARK    1  A    between atoms: C_1  and  C_2
REMARK    2  A    between atoms: C_5  and  N_8
REMARK    3  A    between atoms: C_9  and  C_11
REMARK    4  A    between atoms: C_11  and  N_12
REMARK    5  A    between atoms: N_20  and  C_23
REMARK    6  A    between atoms: C_23  and  C_24
REMARK    7  A    between atoms: C_24  and  C_25
REMARK    8  A    between atoms: N_27  and  C_28
REMARK    9  A    between atoms: C_28  and  C_29
REMARK   10  A    between atoms: C_29  and  C_30
REMARK                            x       y       z     vdW  Elec       q    Type
REMARK                         _______ _______ _______ _____ _____    ______ ____
ROOT
ATOM      1  N   UNL     1       3.668   6.178   0.312  0.00  0.00    -0.284 N 
ATOM      2  C   UNL     1       4.275   6.323   1.570  0.00  0.00    +0.066 A 
ATOM      3  C   UNL     1       3.762   6.040   2.833  0.00  0.00    +0.034 A 
ATOM      4  C   UNL     1       4.522   6.248   3.933  0.00  0.00    +0.048 A 
ATOM      5  S   UNL     1       6.015   6.847   3.284  0.00  0.00    -0.090 S 
ATOM      6  C   UNL     1       5.587   6.806   1.564  0.00  0.00    +0.100 A 
ATOM      7  C   UNL     1       6.241   7.130   0.371  0.00  0.00    +0.271 A 
ATOM      8  O   UNL     1       7.383   7.554   0.388  0.00  0.00    -0.266 OA
ATOM      9  N   UNL     1       5.587   6.967  -0.801  0.00  0.00    -0.259 N 
ATOM     10  C   UNL     1       4.327   6.500  -0.810  0.00  0.00    +0.333 A 
ATOM     11  O   UNL     1       3.763   6.363  -1.879  0.00  0.00    -0.246 OA
ENDROOT
BRANCH   1  12
ATOM     12  C   UNL     1       2.295   5.673   0.225  0.00  0.00    +0.222 C 
BRANCH  12  14
ATOM     13  N   UNL     1       1.162   3.485   0.009  0.00  0.00    -0.284 N 
ATOM     14  C   UNL     1       2.318   4.171   0.104  0.00  0.00    +0.237 C 
ATOM     15  O   UNL     1       3.377   3.580   0.091  0.00  0.00    -0.274 OA
ATOM     16  H   UNL     1       0.206   4.025  -0.067  0.00  0.00    +0.155 HD
BRANCH  13  21
ATOM     17  C   UNL     1       1.221  -2.188   0.005  0.00  0.00    +0.044 C 
ATOM     18  C   UNL     1       1.206  -0.681   0.006  0.00  0.00    -0.050 A 
ATOM     19  C   UNL     1       2.145   0.019   0.741  0.00  0.00    +0.005 A 
ATOM     20  C   UNL     1       2.133   1.400   0.745  0.00  0.00    +0.023 A 
ATOM     21  C   UNL     1       1.177   2.086   0.008  0.00  0.00    +0.033 A 
ATOM     22  C   UNL     1       0.236   1.381  -0.731  0.00  0.00    +0.023 A 
ATOM     23  C   UNL     1       0.253  -0.000  -0.729  0.00  0.00    +0.005 A 
ENDBRANCH  13  21
ENDBRANCH  12  14
ENDBRANCH   1  12
BRANCH   9  24
ATOM     24  C   UNL     1       6.253   7.301  -2.063  0.00  0.00    +0.139 C 
BRANCH  24  25
ATOM     25  C   UNL     1       5.983   8.767  -2.410  0.00  0.00    +0.117 C 
BRANCH  25  26
ATOM     26  C   UNL     1       6.668   9.110  -3.708  0.00  0.00    +0.215 C 
ATOM     27  O   UNL     1       7.309   8.265  -4.297  0.00  0.00    -0.276 OA
ATOM     28  N   UNL     1       6.569  10.355  -4.213  0.00  0.00    -0.315 N 
ATOM     29  H   UNL     1       5.988  11.121  -3.679  0.00  0.00    +0.149 HD
BRANCH  28  30
ATOM     30  C   UNL     1       7.234  10.689  -5.475  0.00  0.00    +0.109 C 
BRANCH  30  31
ATOM     31  C   UNL     1       6.965  12.155  -5.822  0.00  0.00    +0.054 C 
BRANCH  31  32
ATOM     32  C   UNL     1       7.650  12.498  -7.119  0.00  0.00    -0.046 A 
ATOM     33  C   UNL     1       8.944  12.984  -7.110  0.00  0.00    +0.005 A 
ATOM     34  C   UNL     1       9.574  13.294  -8.301  0.00  0.00    +0.020 A 
ATOM     35  C   UNL     1       8.906  13.128  -9.501  0.00  0.00    +0.041 A 
ATOM     36  C   UNL     1       7.609  12.646  -9.509  0.00  0.00    +0.020 A 
ATOM     37  C   UNL     1       6.981  12.332  -8.318  0.00  0.00    +0.005 A 
ATOM     38 CL   UNL     1       9.695  13.523 -10.996  0.00  0.00    -0.084 Cl
ENDBRANCH  31  32
ENDBRANCH  30  31
ENDBRANCH  28  30
ENDBRANCH  25  26
ENDBRANCH  24  25
ENDBRANCH   9  24
TORSDOF 9
