REMARK  Name = ZINC39665542
REMARK  12 active torsions:
REMARK  status: ('A' for Active; 'I' for Inactive)
REMARK    1  A    between atoms: C_1  and  C_2
REMARK    2  A    between atoms: C_2  and  C_4
REMARK    3  A    between atoms: C_2  and  O_31
REMARK    4  A    between atoms: C_4  and  N_5
REMARK    5  A    between atoms: C_6  and  C_8
REMARK    6  A    between atoms: C_19  and  C_21
REMARK    7  A    between atoms: C_26  and  O_27
REMARK    8  A    between atoms: O_27  and  C_28
REMARK    9  A    between atoms: C_28  and  C_30
REMARK   10  A    between atoms: O_31  and  C_32
REMARK   11  A    between atoms: C_35  and  O_38
REMARK   12  A    between atoms: O_38  and  C_39
REMARK                            x       y       z     vdW  Elec       q    Type
REMARK                         _______ _______ _______ _____ _____    ______ ____
ROOT
ATOM      1  C   UNL     1       0.866  -4.290  -2.517  0.00  0.00    +0.100 C 
ATOM      2  C   UNL     1      -0.628  -4.677  -2.596  0.00  0.00    +0.121 C 
ATOM      3  N   UNL     1      -0.907  -4.793  -4.047  0.00  0.00    -0.296 N 
ATOM      4  C   UNL     1       0.305  -5.437  -4.606  0.00  0.00    +0.115 C 
ATOM      5  C   UNL     1       1.476  -4.793  -3.836  0.00  0.00    -0.004 C 
ATOM      6  C   UNL     1       2.050  -3.625  -4.632  0.00  0.00    -0.010 C 
ATOM      7  C   UNL     1       2.701  -4.156  -5.912  0.00  0.00    -0.082 C 
ATOM      8  N   UNL     1       3.763  -5.108  -5.564  0.00  0.00    +0.379 N 
ATOM      9  C   UNL     1       3.188  -6.273  -4.880  0.00  0.00    -0.082 C 
ATOM     10  C   UNL     1       2.558  -5.830  -3.557  0.00  0.00    -0.010 C 
ATOM     11  C   UNL     1      -2.015  -4.402  -4.709  0.00  0.00    +0.250 C 
ATOM     12  O   UNL     1      -2.120  -4.621  -5.900  0.00  0.00    -0.270 OA
ATOM     13  H   UNL     1       4.230  -5.410  -6.406  0.00  0.00    -0.086 HD
ATOM     14  H   UNL     1       4.430  -4.657  -4.956  0.00  0.00    -0.086 HD
ENDROOT
BRANCH  11  15
ATOM     15  C   UNL     1      -3.099  -3.709  -3.987  0.00  0.00    +0.079 A 
ATOM     16  C   UNL     1      -3.415  -4.072  -2.676  0.00  0.00    +0.017 A 
ATOM     17  C   UNL     1      -4.429  -3.421  -2.007  0.00  0.00    +0.001 A 
ATOM     18  C   UNL     1      -5.136  -2.405  -2.629  0.00  0.00    +0.004 A 
ATOM     19  C   UNL     1      -4.834  -2.036  -3.925  0.00  0.00    +0.047 A 
ATOM     20  C   UNL     1      -3.814  -2.678  -4.611  0.00  0.00    +0.144 A 
BRANCH  20  21
ATOM     21  O   UNL     1      -3.513  -2.312  -5.883  0.00  0.00    -0.425 OA
BRANCH  21  22
ATOM     22  C   UNL     1      -2.418  -1.560  -6.080  0.00  0.00    +0.309 C 
ATOM     23  O   UNL     1      -1.686  -1.303  -5.153  0.00  0.00    -0.251 OA
ATOM     24  C   UNL     1      -2.101  -1.036  -7.457  0.00  0.00    +0.136 C 
ENDBRANCH  21  22
ENDBRANCH  20  21
ENDBRANCH  11  15
BRANCH   1  26
ATOM     25  N   UNL     1       2.152  -2.264  -1.914  0.00  0.00    -0.312 N 
ATOM     26  C   UNL     1       1.015  -2.794  -2.407  0.00  0.00    +0.218 C 
ATOM     27  O   UNL     1       0.111  -2.067  -2.761  0.00  0.00    -0.275 OA
ATOM     28  H   UNL     1       2.875  -2.846  -1.630  0.00  0.00    +0.149 HD
BRANCH  25  29
ATOM     29  C   UNL     1       2.296  -0.811  -1.807  0.00  0.00    +0.148 C 
BRANCH  29  31
ATOM     30  C   UNL     1       3.774   1.033  -0.993  0.00  0.00    +0.053 C 
ATOM     31  C   UNL     1       3.670  -0.476  -1.221  0.00  0.00    +0.187 C 
BRANCH  31  32
ATOM     32  O   UNL     1       4.690  -0.892  -2.132  0.00  0.00    -0.488 OA
BRANCH  32  33
ATOM     33  C   UNL     1       5.918  -1.147  -1.609  0.00  0.00    +0.121 A 
ATOM     34  C   UNL     1       6.979  -1.457  -2.447  0.00  0.00    +0.049 A 
ATOM     35  C   UNL     1       8.227  -1.717  -1.915  0.00  0.00    +0.049 A 
ATOM     36  C   UNL     1       8.420  -1.668  -0.543  0.00  0.00    +0.120 A 
ATOM     37  C   UNL     1       7.360  -1.357   0.296  0.00  0.00    +0.049 A 
ATOM     38  C   UNL     1       6.113  -1.093  -0.236  0.00  0.00    +0.049 A 
BRANCH  36  39
ATOM     39  O   UNL     1       9.648  -1.924  -0.019  0.00  0.00    -0.495 OA
ATOM     40  C   UNL     1       9.775  -1.856   1.403  0.00  0.00    +0.277 C 
ENDBRANCH  36  39
ENDBRANCH  32  33
ENDBRANCH  31  32
ENDBRANCH  29  31
ENDBRANCH  25  29
ENDBRANCH   1  26
TORSDOF 9
