REMARK  Name = ZINC00888141
REMARK  7 active torsions:
REMARK  status: ('A' for Active; 'I' for Inactive)
REMARK    1  A    between atoms: C_1  and  C_2
REMARK    2  A    between atoms: C_9  and  N_15
REMARK    3  A    between atoms: C_10  and  C_11
REMARK    4  A    between atoms: C_11  and  O_13
REMARK    5  A    between atoms: O_13  and  C_14
REMARK    6  A    between atoms: C_16  and  C_18
REMARK    7  A    between atoms: N_21  and  C_23
REMARK                            x       y       z     vdW  Elec       q    Type
REMARK                         _______ _______ _______ _____ _____    ______ ____
ROOT
ATOM      1  C   UNL     1       0.095  -9.366   7.469  0.00  0.00    +0.008 C 
ATOM      2  C   UNL     1      -0.211  -7.960   6.951  0.00  0.00    -0.009 C 
ATOM      3  C   UNL     1       0.619  -6.932   7.727  0.00  0.00    +0.008 C 
ATOM      4  C   UNL     1       0.140  -5.518   7.393  0.00  0.00    +0.037 C 
ATOM      5  C   UNL     1       0.125  -5.351   5.878  0.00  0.00    -0.021 A 
ATOM      6  C   UNL     1       0.132  -6.425   5.060  0.00  0.00    -0.004 A 
ATOM      7  S   UNL     1       0.110  -5.749   3.424  0.00  0.00    -0.077 S 
ATOM      8  C   UNL     1       0.090  -4.062   3.818  0.00  0.00    +0.087 A 
ATOM      9  C   UNL     1       0.108  -4.062   5.207  0.00  0.00    +0.091 A 
ATOM     10  C   UNL     1       0.154  -7.868   5.463  0.00  0.00    +0.046 C 
ENDROOT
BRANCH   8  11
ATOM     11  N   UNL     1       0.068  -2.977   2.958  0.00  0.00    -0.274 N 
ATOM     12  C   UNL     1       0.059  -3.174   1.625  0.00  0.00    +0.270 C 
ATOM     13  O   UNL     1       0.070  -4.305   1.177  0.00  0.00    -0.268 OA
ATOM     14  H   UNL     1       0.059  -2.075   3.315  0.00  0.00    +0.156 HD
BRANCH  12  15
ATOM     15  C   UNL     1       0.036  -2.018   0.707  0.00  0.00    +0.161 A 
ATOM     16  C   UNL     1       0.024  -2.066  -0.707  0.00  0.00    +0.068 A 
ATOM     17  C   UNL     1      -0.003  -0.775  -1.114  0.00  0.00    +0.124 A 
ATOM     18  N   UNL     1       0.002  -0.004   0.002  0.00  0.00    -0.273 N 
ATOM     19  N   UNL     1       0.022  -0.745   1.051  0.00  0.00    -0.166 NA
ATOM     20  C   UNL     1      -0.018   1.461   0.010  0.00  0.00    +0.172 C 
ATOM     21 BR   UNL     1       0.035  -3.610  -1.800  0.00  0.00    -0.046 Br
ENDBRANCH  12  15
ENDBRANCH   8  11
BRANCH   9  22
ATOM     22  C   UNL     1       0.105  -2.810   5.967  0.00  0.00    +0.342 C 
ATOM     23  O   UNL     1      -0.949  -2.301   6.296  0.00  0.00    -0.245 OA
BRANCH  22  24
ATOM     24  O   UNL     1       1.272  -2.222   6.301  0.00  0.00    -0.464 OA
ATOM     25  C   UNL     1       1.193  -0.983   7.055  0.00  0.00    +0.280 C 
ENDBRANCH  22  24
ENDBRANCH   9  22
TORSDOF 4
