REMARK  Name = ZINC21581037
REMARK  6 active torsions:
REMARK  status: ('A' for Active; 'I' for Inactive)
REMARK    1  A    between atoms: C_4  and  O_28
REMARK    2  A    between atoms: C_5  and  C_7
REMARK    3  A    between atoms: C_9  and  C_19
REMARK    4  A    between atoms: N_11  and  C_12
REMARK    5  A    between atoms: C_12  and  N_13
REMARK    6  A    between atoms: C_20  and  C_21
REMARK                            x       y       z     vdW  Elec       q    Type
REMARK                         _______ _______ _______ _____ _____    ______ ____
ROOT
ATOM      1  C   UNL     1      -6.362  -0.733  -0.038  0.00  0.00    +0.161 A 
ATOM      2  N   UNL     1      -5.080  -0.443   0.022  0.00  0.00    -0.207 NA
ATOM      3  C   UNL     1      -4.920   0.885   0.100  0.00  0.00    +0.175 A 
ATOM      4  N   UNL     1      -6.105   1.462   0.081  0.00  0.00    -0.152 NA
ATOM      5  N   UNL     1      -7.058   0.435  -0.008  0.00  0.00    -0.261 N 
ENDROOT
BRANCH   1  10
ATOM      6  C   UNL     1      -8.468  -3.635  -1.157  0.00  0.00    +0.001 A 
ATOM      7  C   UNL     1      -8.033  -4.633  -0.302  0.00  0.00    +0.004 A 
ATOM      8  C   UNL     1      -7.057  -4.370   0.640  0.00  0.00    +0.046 A 
ATOM      9  C   UNL     1      -6.503  -3.103   0.730  0.00  0.00    +0.128 A 
ATOM     10  C   UNL     1      -6.943  -2.090  -0.130  0.00  0.00    +0.060 A 
ATOM     11  C   UNL     1      -7.929  -2.368  -1.076  0.00  0.00    +0.015 A 
BRANCH   9  12
ATOM     12  O   UNL     1      -5.539  -2.844   1.651  0.00  0.00    -0.506 OA
ATOM     13  H   UNL     1      -5.100  -1.838   1.720  0.00  0.00    +0.292 HD
ENDBRANCH   9  12
ENDBRANCH   1  10
BRANCH   3  14
ATOM     14  C   UNL     1      -3.627   1.588   0.188  0.00  0.00    +0.050 C 
ATOM     15  C   UNL     1      -2.482   0.888   0.199  0.00  0.00    +0.011 C 
BRANCH  15  16
ATOM     16  C   UNL     1      -1.189   1.591   0.286  0.00  0.00    -0.025 A 
ATOM     17  C   UNL     1       0.005   0.866   0.298  0.00  0.00    +0.009 A 
ATOM     18  C   UNL     1       1.211   1.530   0.374  0.00  0.00    +0.016 A 
ATOM     19  C   UNL     1       1.240   2.912   0.444  0.00  0.00    +0.018 A 
ATOM     20  C   UNL     1       0.060   3.638   0.438  0.00  0.00    +0.016 A 
ATOM     21  C   UNL     1      -1.153   2.986   0.362  0.00  0.00    +0.009 A 
ATOM     22 BR   UNL     1       2.899   3.815   0.547  0.00  0.00    -0.050 Br
ENDBRANCH  15  16
ENDBRANCH   3  14
BRANCH   5  23
ATOM     23  C   UNL     1      -8.514   0.590  -0.060  0.00  0.00    +0.071 C 
BRANCH  23  24
ATOM     24  N   UNL     1      -8.941   0.745  -1.457  0.00  0.00    +0.393 N 
ATOM     25  C   UNL     1      -8.430   1.998  -2.027  0.00  0.00    -0.076 C 
ATOM     26  C   UNL     1      -8.768   2.058  -3.519  0.00  0.00    -0.019 C 
ATOM     27  C   UNL     1     -10.287   1.976  -3.696  0.00  0.00    -0.004 C 
ATOM     28  C   UNL     1     -10.800   0.686  -3.051  0.00  0.00    -0.019 C 
ATOM     29  C   UNL     1     -10.402   0.666  -1.573  0.00  0.00    -0.076 C 
ATOM     30  H   UNL     1      -8.513  -0.086  -2.038  0.00  0.00    -0.079 HD
ENDBRANCH  23  24
ENDBRANCH   5  23
TORSDOF 6
