REMARK  Name = ZINC09824584
REMARK  7 active torsions:
REMARK  status: ('A' for Active; 'I' for Inactive)
REMARK    1  A    between atoms: C_1  and  N_2
REMARK    2  A    between atoms: N_2  and  C_3
REMARK    3  A    between atoms: N_2  and  S_4
REMARK    4  A    between atoms: S_4  and  C_7
REMARK    5  A    between atoms: C_17  and  C_19
REMARK    6  A    between atoms: N_22  and  S_25
REMARK    7  A    between atoms: S_25  and  C_28
REMARK                            x       y       z     vdW  Elec       q    Type
REMARK                         _______ _______ _______ _____ _____    ______ ____
ROOT
ATOM      1  C   UNL     1       1.682  -1.059  -1.905  0.00  0.00    +0.107 A 
ATOM      2  C   UNL     1       2.371  -2.193  -1.498  0.00  0.00    +0.030 A 
ATOM      3  C   UNL     1       3.679  -2.400  -1.849  0.00  0.00    +0.031 A 
ATOM      4  C   UNL     1       4.372  -1.457  -2.643  0.00  0.00    +0.080 A 
ATOM      5  C   UNL     1       3.639  -0.316  -3.039  0.00  0.00    +0.043 A 
ATOM      6  C   UNL     1       2.327  -0.119  -2.687  0.00  0.00    +0.045 A 
ATOM      7  S   UNL     1       4.834   0.589  -3.993  0.00  0.00    -0.052 S 
ATOM      8  C   UNL     1       6.186  -0.566  -3.813  0.00  0.00    +0.165 A 
ATOM      9  N   UNL     1       5.651  -1.510  -3.074  0.00  0.00    -0.225 NA
ATOM     10  N   UNL     1       7.472  -0.485  -4.322  0.00  0.00    -0.264 N 
ATOM     11  C   UNL     1       8.359  -1.469  -4.073  0.00  0.00    +0.222 C 
ATOM     12  O   UNL     1       8.031  -2.425  -3.403  0.00  0.00    -0.275 OA
ATOM     13  H   UNL     1       7.734   0.280  -4.858  0.00  0.00    +0.157 HD
ENDROOT
BRANCH  11  14
ATOM     14  C   UNL     1       9.757  -1.381  -4.628  0.00  0.00    +0.078 C 
ATOM     15  C   UNL     1       9.697  -1.314  -6.155  0.00  0.00    +0.030 C 
ATOM     16  C   UNL     1      11.118  -1.189  -6.714  0.00  0.00    +0.110 C 
ATOM     17  N   UNL     1      11.930  -2.296  -6.190  0.00  0.00    -0.176 NA
ATOM     18  C   UNL     1      11.984  -2.507  -4.737  0.00  0.00    +0.110 C 
ATOM     19  C   UNL     1      10.553  -2.616  -4.201  0.00  0.00    +0.030 C 
BRANCH  17  20
ATOM     20  S   UNL     1      12.768  -3.288  -7.218  0.00  0.00    +0.067 S 
ATOM     21  O   UNL     1      12.983  -2.547  -8.412  0.00  0.00    -0.152 OA
ATOM     22  O   UNL     1      13.836  -3.845  -6.464  0.00  0.00    -0.152 OA
BRANCH  20  23
ATOM     23  C   UNL     1      11.699  -4.623  -7.640  0.00  0.00    +0.143 A 
ATOM     24  C   UNL     1      10.817  -4.720  -8.664  0.00  0.00    +0.036 A 
ATOM     25  C   UNL     1      10.077  -5.879  -8.805  0.00  0.00    +0.010 A 
ATOM     26  C   UNL     1      10.248  -6.881  -7.909  0.00  0.00    +0.047 A 
ATOM     27  S   UNL     1      11.492  -6.198  -6.825  0.00  0.00    -0.077 S 
ENDBRANCH  20  23
ENDBRANCH  17  20
ENDBRANCH  11  14
BRANCH   1  28
ATOM     28  S   UNL     1      -0.000  -0.824  -1.437  0.00  0.00    +0.060 S 
ATOM     29  O   UNL     1      -0.531  -2.115  -1.167  0.00  0.00    -0.153 OA
ATOM     30  O   UNL     1      -0.572   0.049  -2.401  0.00  0.00    -0.153 OA
BRANCH  28  32
ATOM     31  C   UNL     1      -0.018   1.461   0.010  0.00  0.00    +0.131 C 
ATOM     32  N   UNL     1       0.002  -0.004   0.002  0.00  0.00    -0.183 NA
ATOM     33  C   UNL     1       0.024  -0.743   1.267  0.00  0.00    +0.131 C 
ENDBRANCH  28  32
ENDBRANCH   1  28
TORSDOF 5
