REMARK  Name = ZINC04520338
REMARK  8 active torsions:
REMARK  status: ('A' for Active; 'I' for Inactive)
REMARK    1  A    between atoms: C_1  and  C_2
REMARK    2  A    between atoms: N_4  and  C_5
REMARK    3  A    between atoms: C_5  and  C_7
REMARK    4  A    between atoms: C_5  and  C_18
REMARK    5  A    between atoms: C_7  and  C_8
REMARK    6  A    between atoms: N_20  and  C_21
REMARK    7  A    between atoms: C_21  and  C_22
REMARK    8  A    between atoms: C_22  and  C_23
REMARK                            x       y       z     vdW  Elec       q    Type
REMARK                         _______ _______ _______ _____ _____    ______ ____
ROOT
ATOM      1  C   UNL     1      -0.019   1.526   0.010  0.00  0.00    +0.163 C 
ENDROOT
BRANCH   1   5
ATOM      2  C   UNL     1      -0.933   2.158   3.674  0.00  0.00    +0.109 C 
ATOM      3  C   UNL     1      -0.228   1.672   2.434  0.00  0.00    +0.211 C 
ATOM      4  O   UNL     1       0.769   0.988   2.532  0.00  0.00    -0.276 OA
ATOM      5  N   UNL     1      -0.704   1.998   1.216  0.00  0.00    -0.304 N 
ATOM      6  H   UNL     1      -1.501   2.546   1.137  0.00  0.00    +0.149 HD
ENDBRANCH   1   5
BRANCH   1   7
ATOM      7  C   UNL     1       1.395   2.047  -0.000  0.00  0.00    +0.234 C 
ATOM      8  O   UNL     1       1.911   2.423   1.031  0.00  0.00    -0.274 OA
ATOM      9  N   UNL     1       2.087   2.097  -1.156  0.00  0.00    -0.313 N 
ATOM     10  H   UNL     1       1.674   1.796  -1.981  0.00  0.00    +0.149 HD
BRANCH   9  11
ATOM     11  C   UNL     1       3.461   2.604  -1.167  0.00  0.00    +0.109 C 
BRANCH  11  12
ATOM     12  C   UNL     1       4.013   2.553  -2.593  0.00  0.00    +0.056 C 
BRANCH  12  13
ATOM     13  C   UNL     1       5.426   3.075  -2.603  0.00  0.00    -0.021 A 
ATOM     14  C   UNL     1       5.812   4.329  -2.885  0.00  0.00    +0.087 A 
ATOM     15  N   UNL     1       7.174   4.430  -2.792  0.00  0.00    -0.360 N 
ATOM     16  H   UNL     1       7.685   5.239  -2.950  0.00  0.00    +0.165 HD
ATOM     17  C   UNL     1       7.712   3.210  -2.448  0.00  0.00    +0.047 A 
ATOM     18  C   UNL     1       6.640   2.307  -2.314  0.00  0.00    +0.003 A 
ATOM     19  C   UNL     1       6.888   0.979  -1.966  0.00  0.00    +0.010 A 
ATOM     20  C   UNL     1       8.173   0.561  -1.757  0.00  0.00    +0.001 A 
ATOM     21  C   UNL     1       9.233   1.447  -1.888  0.00  0.00    +0.002 A 
ATOM     22  C   UNL     1       9.010   2.763  -2.230  0.00  0.00    +0.026 A 
ENDBRANCH  12  13
ENDBRANCH  11  12
ENDBRANCH   9  11
ENDBRANCH   1   7
BRANCH   1  23
ATOM     23  C   UNL     1       0.002  -0.004   0.002  0.00  0.00    +0.069 C 
BRANCH  23  24
ATOM     24  C   UNL     1      -1.407  -0.525  -0.111  0.00  0.00    -0.020 A 
ATOM     25  C   UNL     1      -2.203  -0.902   0.902  0.00  0.00    +0.087 A 
ATOM     26  N   UNL     1      -3.413  -1.316   0.416  0.00  0.00    -0.360 N 
ATOM     27  H   UNL     1      -4.153  -1.633   0.958  0.00  0.00    +0.165 HD
ATOM     28  C   UNL     1      -3.423  -1.222  -0.958  0.00  0.00    +0.047 A 
ATOM     29  C   UNL     1      -2.167  -0.722  -1.348  0.00  0.00    +0.003 A 
ATOM     30  C   UNL     1      -1.887  -0.520  -2.701  0.00  0.00    +0.010 A 
ATOM     31  C   UNL     1      -2.837  -0.809  -3.640  0.00  0.00    +0.001 A 
ATOM     32  C   UNL     1      -4.077  -1.303  -3.260  0.00  0.00    +0.002 A 
ATOM     33  C   UNL     1      -4.374  -1.510  -1.931  0.00  0.00    +0.026 A 
ENDBRANCH  23  24
ENDBRANCH   1  23
TORSDOF 7
