REMARK  Name = ZINC45994794
REMARK  7 active torsions:
REMARK  status: ('A' for Active; 'I' for Inactive)
REMARK    1  A    between atoms: C_1  and  C_2
REMARK    2  A    between atoms: C_2  and  N_3
REMARK    3  A    between atoms: C_10  and  C_25
REMARK    4  A    between atoms: C_11  and  S_13
REMARK    5  A    between atoms: S_13  and  C_14
REMARK    6  A    between atoms: C_14  and  C_15
REMARK    7  A    between atoms: N_17  and  C_18
REMARK                            x       y       z     vdW  Elec       q    Type
REMARK                         _______ _______ _______ _____ _____    ______ ____
ROOT
ATOM      1  N   UNL     1      -1.337  -0.385   0.037  0.00  0.00    +0.380 N 
ATOM      2  C   UNL     1      -1.993  -0.000   1.292  0.00  0.00    -0.075 C 
ATOM      3  C   UNL     1      -3.448  -0.474   1.277  0.00  0.00    +0.035 C 
ATOM      4  C   UNL     1      -3.481  -1.994   1.116  0.00  0.00    +0.150 C 
ATOM      5  C   UNL     1      -2.723  -2.397  -0.149  0.00  0.00    +0.035 C 
ATOM      6  C   UNL     1      -1.296  -1.848  -0.078  0.00  0.00    -0.075 C 
ATOM      7  N   UNL     1      -2.883  -2.638   2.289  0.00  0.00    -0.251 NA
ATOM      8  C   UNL     1      -3.800  -3.385   2.829  0.00  0.00    +0.100 C 
ATOM      9  C   UNL     1      -5.052  -3.275   2.044  0.00  0.00    +0.120 C 
ATOM     10  N   UNL     1      -4.868  -2.464   1.044  0.00  0.00    -0.246 NA
ATOM     11  H   UNL     1      -1.854  -0.003  -0.741  0.00  0.00    -0.082 HD
ENDROOT
BRANCH   8  12
ATOM     12  C   UNL     1      -3.621  -4.215   4.041  0.00  0.00    +0.003 A 
ATOM     13  C   UNL     1      -4.421  -5.341   4.243  0.00  0.00    +0.011 A 
ATOM     14  C   UNL     1      -4.250  -6.111   5.374  0.00  0.00    +0.020 A 
ATOM     15  C   UNL     1      -3.286  -5.770   6.308  0.00  0.00    +0.041 A 
ATOM     16  C   UNL     1      -2.489  -4.654   6.113  0.00  0.00    +0.020 A 
ATOM     17  C   UNL     1      -2.647  -3.880   4.983  0.00  0.00    +0.011 A 
ATOM     18 CL   UNL     1      -3.077  -6.744   7.730  0.00  0.00    -0.084 Cl
ENDBRANCH   8  12
BRANCH   1  20
ATOM     19  C   UNL     1      -0.011   1.674   0.014  0.00  0.00    -0.017 C 
ATOM     20  C   UNL     1       0.033   0.144   0.020  0.00  0.00    -0.082 C 
ENDBRANCH   1  20
BRANCH   9  21
ATOM     21  S   UNL     1      -6.558  -4.114   2.410  0.00  0.00    -0.095 S 
BRANCH  21  22
ATOM     22  C   UNL     1      -7.691  -3.571   1.101  0.00  0.00    +0.172 C 
BRANCH  22  23
ATOM     23  C   UNL     1      -9.035  -4.223   1.298  0.00  0.00    +0.228 C 
ATOM     24  O   UNL     1      -9.211  -4.980   2.230  0.00  0.00    -0.275 OA
ATOM     25  N   UNL     1     -10.042  -3.966   0.439  0.00  0.00    -0.283 N 
ATOM     26  H   UNL     1      -9.879  -3.428  -0.351  0.00  0.00    +0.155 HD
BRANCH  25  27
ATOM     27  C   UNL     1     -11.322  -4.477   0.688  0.00  0.00    +0.069 A 
ATOM     28  C   UNL     1     -11.779  -4.606   1.992  0.00  0.00    +0.026 A 
ATOM     29  C   UNL     1     -13.042  -5.109   2.234  0.00  0.00    +0.002 A 
ATOM     30  C   UNL     1     -13.852  -5.486   1.179  0.00  0.00    +0.003 A 
ATOM     31  C   UNL     1     -13.402  -5.360  -0.122  0.00  0.00    +0.040 A 
ATOM     32  C   UNL     1     -12.140  -4.851  -0.372  0.00  0.00    +0.144 A 
ATOM     33  F   UNL     1     -11.702  -4.723  -1.644  0.00  0.00    -0.204 F 
ENDBRANCH  25  27
ENDBRANCH  22  23
ENDBRANCH  21  22
ENDBRANCH   9  21
TORSDOF 6
