REMARK  Name = ZINC01108655
REMARK  7 active torsions:
REMARK  status: ('A' for Active; 'I' for Inactive)
REMARK    1  A    between atoms: C_1  and  C_2
REMARK    2  A    between atoms: C_5  and  C_8
REMARK    3  A    between atoms: C_8  and  O_10
REMARK    4  A    between atoms: O_10  and  C_11
REMARK    5  A    between atoms: C_14  and  C_17
REMARK    6  A    between atoms: C_22  and  C_26
REMARK    7  A    between atoms: C_22  and  C_27
REMARK                            x       y       z     vdW  Elec       q    Type
REMARK                         _______ _______ _______ _____ _____    ______ ____
ROOT
ATOM      1  C   UNL     1       0.285 -10.522   0.504  0.00  0.00    +0.175 C 
ATOM      2  C   UNL     1      -0.963 -11.142   1.092  0.00  0.00    +0.041 C 
ATOM      3  C   UNL     1      -0.947 -11.822   2.259  0.00  0.00    +0.020 C 
ATOM      4  C   UNL     1      -2.210 -12.430   2.821  0.00  0.00    +0.058 C 
ATOM      5  C   UNL     1      -3.417 -11.587   2.406  0.00  0.00    -0.023 C 
ATOM      6  C   UNL     1      -3.462 -11.531   0.875  0.00  0.00    +0.086 C 
ATOM      7  C   UNL     1      -2.159 -10.979   0.369  0.00  0.00    +0.164 C 
ATOM      8  O   UNL     1      -2.137 -10.380  -0.688  0.00  0.00    -0.292 OA
ATOM      9  C   UNL     1      -4.701 -12.228   2.937  0.00  0.00    +0.011 C 
ATOM     10  C   UNL     1      -3.276 -10.171   2.969  0.00  0.00    +0.011 C 
ATOM     11  N   UNL     1       0.211 -11.996   2.979  0.00  0.00    -0.287 N 
ATOM     12  C   UNL     1       1.416 -11.730   2.349  0.00  0.00    +0.218 A 
ATOM     13  N   UNL     1       1.465 -11.043   1.183  0.00  0.00    -0.221 N 
ATOM     14  N   UNL     1       2.812 -10.964   0.831  0.00  0.00    -0.156 NA
ATOM     15  C   UNL     1       3.485 -11.581   1.771  0.00  0.00    +0.247 A 
ATOM     16  N   UNL     1       2.636 -12.042   2.687  0.00  0.00    -0.201 NA
ATOM     17  H   UNL     1       0.185 -12.296   3.901  0.00  0.00    +0.155 HD
ENDROOT
BRANCH   1  21
ATOM     18  C   UNL     1       0.126  -6.279   0.988  0.00  0.00    +0.132 A 
ATOM     19  C   UNL     1       0.204  -6.832  -0.283  0.00  0.00    +0.047 A 
ATOM     20  C   UNL     1       0.256  -8.203  -0.436  0.00  0.00    +0.009 A 
ATOM     21  C   UNL     1       0.230  -9.026   0.675  0.00  0.00    -0.018 A 
ATOM     22  C   UNL     1       0.152  -8.478   1.942  0.00  0.00    +0.009 A 
ATOM     23  C   UNL     1       0.105  -7.107   2.101  0.00  0.00    +0.047 A 
BRANCH  18  24
ATOM     24  O   UNL     1       0.075  -4.930   1.142  0.00  0.00    -0.422 OA
BRANCH  24  25
ATOM     25  C   UNL     1       1.198  -4.295   1.530  0.00  0.00    +0.344 C 
ATOM     26  O   UNL     1       2.189  -4.935   1.817  0.00  0.00    -0.245 OA
BRANCH  25  31
ATOM     27  C   UNL     1       1.298   1.450   1.824  0.00  0.00    +0.044 C 
ATOM     28  C   UNL     1       1.272  -0.055   1.747  0.00  0.00    -0.050 A 
ATOM     29  C   UNL     1       2.403  -0.781   2.076  0.00  0.00    +0.004 A 
ATOM     30  C   UNL     1       2.386  -2.159   2.007  0.00  0.00    +0.015 A 
ATOM     31  C   UNL     1       1.223  -2.820   1.606  0.00  0.00    +0.059 A 
ATOM     32  C   UNL     1       0.086  -2.081   1.276  0.00  0.00    +0.015 A 
ATOM     33  C   UNL     1       0.115  -0.704   1.353  0.00  0.00    +0.004 A 
ENDBRANCH  25  31
ENDBRANCH  24  25
ENDBRANCH  18  24
ENDBRANCH   1  21
TORSDOF 4
