REMARK  Name = ZINC37076838
REMARK  5 active torsions:
REMARK  status: ('A' for Active; 'I' for Inactive)
REMARK    1  A    between atoms: C_1  and  C_2
REMARK    2  A    between atoms: C_2  and  C_4
REMARK    3  A    between atoms: C_2  and  N_11
REMARK    4  A    between atoms: N_11  and  C_12
REMARK    5  A    between atoms: C_14  and  N_20
REMARK                            x       y       z     vdW  Elec       q    Type
REMARK                         _______ _______ _______ _____ _____    ______ ____
ROOT
ATOM      1  N   UNL     1       0.810  -0.458  -1.133  0.00  0.00    -0.335 N 
ATOM      2  H   UNL     1       0.387  -0.643  -1.986  0.00  0.00    +0.147 HD
ENDROOT
BRANCH   1   3
ATOM      3  C   UNL     1       2.192  -0.624  -0.987  0.00  0.00    +0.066 A 
ATOM      4  C   UNL     1       2.798  -0.365   0.235  0.00  0.00    +0.061 A 
ATOM      5  C   UNL     1       4.162  -0.530   0.378  0.00  0.00    +0.163 A 
ATOM      6  C   UNL     1       4.926  -0.954  -0.696  0.00  0.00    +0.156 A 
ATOM      7  C   UNL     1       4.325  -1.213  -1.917  0.00  0.00    +0.081 A 
ATOM      8  C   UNL     1       2.959  -1.054  -2.063  0.00  0.00    +0.147 A 
ATOM      9  F   UNL     1       2.372  -1.312  -3.252  0.00  0.00    -0.203 F 
ATOM     10  F   UNL     1       6.260  -1.115  -0.553  0.00  0.00    -0.203 F 
BRANCH   5  11
ATOM     11  N   UNL     1       4.808  -0.254   1.681  0.00  0.00    +0.059 N 
ATOM     12  O   UNL     1       4.141   0.116   2.619  0.00  0.00    -0.126 OA
ATOM     13  O   UNL     1       6.001  -0.398   1.807  0.00  0.00    -0.126 OA
ENDBRANCH   5  11
ENDBRANCH   1   3
BRANCH   1  15
ATOM     14  C   UNL     1       0.021   1.525   0.063  0.00  0.00    +0.033 C 
ATOM     15  C   UNL     1       0.002  -0.004   0.002  0.00  0.00    +0.099 C 
BRANCH  15  16
ATOM     16  C   UNL     1      -1.417  -0.483  -0.168  0.00  0.00    -0.014 A 
ATOM     17  C   UNL     1      -1.922  -0.712  -1.434  0.00  0.00    +0.006 A 
ATOM     18  C   UNL     1      -3.224  -1.151  -1.589  0.00  0.00    +0.000 A 
ATOM     19  C   UNL     1      -4.020  -1.363  -0.479  0.00  0.00    +0.001 A 
ATOM     20  C   UNL     1      -3.515  -1.134   0.787  0.00  0.00    +0.015 A 
ATOM     21  C   UNL     1      -2.211  -0.699   0.944  0.00  0.00    +0.023 A 
ATOM     22 BR   UNL     1      -1.518  -0.393   2.676  0.00  0.00    -0.050 Br
ENDBRANCH  15  16
ENDBRANCH   1  15
TORSDOF 4
