REMARK  Name = ZINC00704985
REMARK  6 active torsions:
REMARK  status: ('A' for Active; 'I' for Inactive)
REMARK    1  A    between atoms: C_3  and  C_6
REMARK    2  A    between atoms: C_7  and  C_27
REMARK    3  A    between atoms: C_8  and  N_16
REMARK    4  A    between atoms: C_10  and  C_11
REMARK    5  A    between atoms: C_17  and  C_18
REMARK    6  A    between atoms: C_23  and  O_24
REMARK                            x       y       z     vdW  Elec       q    Type
REMARK                         _______ _______ _______ _____ _____    ______ ____
ROOT
ATOM      1  C   UNL     1       3.572   0.618  -0.029  0.00  0.00    +0.083 A 
ATOM      2  C   UNL     1       4.464   1.104  -1.096  0.00  0.00    +0.128 A 
ATOM      3  C   UNL     1       5.758   0.850  -0.644  0.00  0.00    +0.239 A 
ATOM      4  O   UNL     1       5.684   0.272   0.567  0.00  0.00    -0.435 OA
ATOM      5  C   UNL     1       4.406   0.127   0.960  0.00  0.00    +0.153 A 
ENDROOT
BRANCH   1   8
ATOM      6  C   UNL     1      -0.016   1.343   0.009  0.00  0.00    +0.042 A 
ATOM      7  C   UNL     1       1.325   1.775  -0.001  0.00  0.00    +0.050 A 
ATOM      8  C   UNL     1       2.098   0.653  -0.015  0.00  0.00    +0.140 A 
ATOM      9  O   UNL     1       1.281  -0.418  -0.012  0.00  0.00    -0.463 OA
ATOM     10  C   UNL     1       0.002  -0.004   0.002  0.00  0.00    +0.196 A 
ENDBRANCH   1   8
BRANCH   5  11
ATOM     11  C   UNL     1       3.965  -0.464   2.237  0.00  0.00    +0.056 A 
ATOM     12  C   UNL     1       4.816  -0.991   3.313  0.00  0.00    +0.052 A 
ATOM     13  C   UNL     1       3.980  -1.422   4.271  0.00  0.00    +0.195 A 
ATOM     14  O   UNL     1       2.715  -1.207   3.878  0.00  0.00    -0.470 OA
ATOM     15  C   UNL     1       2.682  -0.630   2.668  0.00  0.00    +0.206 A 
ENDBRANCH   5  11
BRANCH   3  16
ATOM     16  N   UNL     1       6.893   1.136  -1.310  0.00  0.00    -0.219 NA
ATOM     17  C   UNL     1       8.055   0.848  -0.778  0.00  0.00    +0.126 C 
BRANCH  17  18
ATOM     18  C   UNL     1       9.292   1.160  -1.504  0.00  0.00    +0.037 A 
ATOM     19  C   UNL     1      10.536   0.848  -0.942  0.00  0.00    +0.028 A 
ATOM     20  C   UNL     1      11.693   1.144  -1.630  0.00  0.00    +0.020 A 
ATOM     21  C   UNL     1      11.632   1.749  -2.876  0.00  0.00    +0.034 A 
ATOM     22  C   UNL     1      10.410   2.063  -3.442  0.00  0.00    +0.061 A 
ATOM     23  C   UNL     1       9.235   1.768  -2.769  0.00  0.00    +0.139 A 
ATOM     24 BR   UNL     1      10.343   2.888  -5.142  0.00  0.00    -0.046 Br
ATOM     25 BR   UNL     1      13.373   0.723  -0.870  0.00  0.00    -0.050 Br
BRANCH  23  26
ATOM     26  O   UNL     1       8.035   2.070  -3.327  0.00  0.00    -0.505 OA
ATOM     27  H   UNL     1       7.710   2.954  -3.107  0.00  0.00    +0.292 HD
ENDBRANCH  23  26
ENDBRANCH  17  18
ENDBRANCH   3  16
BRANCH   2  28
ATOM     28  C   UNL     1       4.082   1.709  -2.337  0.00  0.00    +0.105 C 
ATOM     29  N   UNL     1       3.779   2.189  -3.321  0.00  0.00    -0.191 NA
ENDBRANCH   2  28
TORSDOF 6
