REMARK  Name = ZINC49452474
REMARK  4 active torsions:
REMARK  status: ('A' for Active; 'I' for Inactive)
REMARK    1  A    between atoms: C_3  and  N_8
REMARK    2  A    between atoms: C_11  and  C_14
REMARK    3  A    between atoms: C_14  and  C_15
REMARK    4  A    between atoms: N_17  and  C_18
REMARK                            x       y       z     vdW  Elec       q    Type
REMARK                         _______ _______ _______ _____ _____    ______ ____
ROOT
ATOM      1  N   UNL     1       3.595   2.001  -0.022  0.00  0.00    -0.279 N 
ATOM      2  C   UNL     1       3.628   3.385  -0.120  0.00  0.00    +0.164 A 
ATOM      3  N   UNL     1       4.676   4.171  -0.238  0.00  0.00    -0.229 NA
ATOM      4  C   UNL     1       4.539   5.482  -0.321  0.00  0.00    +0.059 A 
ATOM      5  C   UNL     1       3.277   5.974  -0.279  0.00  0.00    +0.072 A 
ATOM      6  S   UNL     1       2.337   4.464  -0.124  0.00  0.00    -0.060 S 
ATOM      7  H   UNL     1       4.423   1.499   0.041  0.00  0.00    +0.155 HD
ENDROOT
BRANCH   1  10
ATOM      8  C   UNL     1       1.130  -0.710  -0.018  0.00  0.00    +0.025 A 
ATOM      9  C   UNL     1       2.350  -0.058  -0.027  0.00  0.00    +0.045 A 
ATOM     10  C   UNL     1       2.374   1.333  -0.014  0.00  0.00    +0.124 A 
ATOM     11  N   UNL     1       1.247   2.026   0.006  0.00  0.00    -0.239 NA
ATOM     12  C   UNL     1       0.069   1.433   0.014  0.00  0.00    +0.132 A 
ATOM     13  C   UNL     1      -0.030   0.054   0.003  0.00  0.00    +0.059 A 
ATOM     14 CL   UNL     1      -1.587  -0.714   0.013  0.00  0.00    -0.082 Cl
ENDBRANCH   1  10
BRANCH   4  15
ATOM     15  C   UNL     1       5.733   6.392  -0.456  0.00  0.00    +0.151 C 
BRANCH  15  16
ATOM     16  C   UNL     1       6.696   6.128   0.673  0.00  0.00    +0.219 C 
ATOM     17  O   UNL     1       6.438   5.284   1.505  0.00  0.00    -0.275 OA
ATOM     18  N   UNL     1       7.844   6.829   0.758  0.00  0.00    -0.312 N 
ATOM     19  H   UNL     1       8.050   7.504   0.092  0.00  0.00    +0.149 HD
BRANCH  18  20
ATOM     20  C   UNL     1       8.780   6.572   1.855  0.00  0.00    +0.073 C 
ATOM     21  C   UNL     1       9.693   5.403   1.483  0.00  0.00    +0.022 C 
ATOM     22  C   UNL     1      10.671   5.134   2.629  0.00  0.00    +0.002 C 
ATOM     23  C   UNL     1      11.518   6.383   2.880  0.00  0.00    +0.000 C 
ATOM     24  C   UNL     1      10.604   7.553   3.252  0.00  0.00    +0.002 C 
ATOM     25  C   UNL     1       9.627   7.821   2.106  0.00  0.00    +0.022 C 
ENDBRANCH  18  20
ENDBRANCH  15  16
ENDBRANCH   4  15
TORSDOF 4
