REMARK  Name = ZINC22607122
REMARK  3 active torsions:
REMARK  status: ('A' for Active; 'I' for Inactive)
REMARK    1  A    between atoms: C_1  and  C_2
REMARK    2  A    between atoms: C_3  and  C_21
REMARK    3  A    between atoms: C_10  and  C_11
REMARK                            x       y       z     vdW  Elec       q    Type
REMARK                         _______ _______ _______ _____ _____    ______ ____
ROOT
ATOM      1  C   UNL     1      -1.512   2.670  -2.816  0.00  0.00    +0.068 C 
ATOM      2  C   UNL     1      -1.724   3.247  -1.440  0.00  0.00    +0.070 A 
ATOM      3  C   UNL     1      -0.710   3.571  -0.518  0.00  0.00    +0.047 A 
ATOM      4  C   UNL     1      -1.328   4.077   0.616  0.00  0.00    +0.148 A 
ATOM      5  N   UNL     1      -0.790   4.543   1.802  0.00  0.00    -0.306 N 
ATOM      6  H   UNL     1       0.300   4.545   1.949  0.00  0.00    +0.170 HD
ATOM      7  C   UNL     1      -1.576   4.999   2.797  0.00  0.00    +0.263 A 
ATOM      8  O   UNL     1      -1.091   5.407   3.837  0.00  0.00    -0.267 OA
ATOM      9  C   UNL     1      -3.038   4.994   2.596  0.00  0.00    +0.106 A 
ATOM     10  C   UNL     1      -3.897   5.448   3.576  0.00  0.00    +0.026 C 
ATOM     11  C   UNL     1      -3.548   4.485   1.311  0.00  0.00    +0.286 A 
ATOM     12  O   UNL     1      -4.743   4.456   1.089  0.00  0.00    -0.265 OA
ATOM     13  N   UNL     1      -2.667   4.051   0.384  0.00  0.00    -0.179 N 
ATOM     14  N   UNL     1      -2.878   3.527  -0.900  0.00  0.00    -0.166 NA
ENDROOT
BRANCH  10  15
ATOM     15  C   UNL     1      -3.388   5.738   4.920  0.00  0.00    -0.024 A 
ATOM     16  C   UNL     1      -2.538   4.828   5.563  0.00  0.00    +0.008 A 
ATOM     17  C   UNL     1      -2.060   5.111   6.824  0.00  0.00    +0.001 A 
ATOM     18  C   UNL     1      -2.425   6.286   7.460  0.00  0.00    +0.000 A 
ATOM     19  C   UNL     1      -3.268   7.189   6.834  0.00  0.00    +0.001 A 
ATOM     20  C   UNL     1      -3.752   6.925   5.571  0.00  0.00    +0.008 A 
ENDBRANCH  10  15
BRANCH   3  21
ATOM     21  C   UNL     1       0.750   3.407  -0.724  0.00  0.00    -0.013 A 
ATOM     22  C   UNL     1       1.578   4.527  -0.782  0.00  0.00    +0.009 A 
ATOM     23  C   UNL     1       2.935   4.369  -0.978  0.00  0.00    +0.001 A 
ATOM     24  C   UNL     1       3.473   3.102  -1.119  0.00  0.00    +0.000 A 
ATOM     25  C   UNL     1       2.656   1.987  -1.063  0.00  0.00    +0.001 A 
ATOM     26  C   UNL     1       1.298   2.133  -0.866  0.00  0.00    +0.009 A 
ENDBRANCH   3  21
TORSDOF 2
