REMARK  Name = ZINC67045551
REMARK  7 active torsions:
REMARK  status: ('A' for Active; 'I' for Inactive)
REMARK    1  A    between atoms: C_1  and  C_2
REMARK    2  A    between atoms: C_2  and  C_3
REMARK    3  A    between atoms: C_3  and  C_5
REMARK    4  A    between atoms: C_3  and  N_15
REMARK    5  A    between atoms: N_18  and  C_19
REMARK    6  A    between atoms: C_19  and  C_21
REMARK    7  A    between atoms: C_19  and  C_22
REMARK                            x       y       z     vdW  Elec       q    Type
REMARK                         _______ _______ _______ _____ _____    ______ ____
ROOT
ATOM      1  N   UNL     1      -2.105  -0.148  -1.230  0.00  0.00    -0.290 N 
ATOM      2  C   UNL     1      -2.690   1.062  -1.334  0.00  0.00    +0.301 C 
ATOM      3  O   UNL     1      -2.659   1.834  -0.395  0.00  0.00    -0.253 OA
ATOM      4  N   UNL     1      -3.308   1.416  -2.478  0.00  0.00    -0.292 N 
ATOM      5  H   UNL     1      -2.130  -0.764  -1.980  0.00  0.00    +0.151 HD
ATOM      6  H   UNL     1      -3.333   0.800  -3.227  0.00  0.00    +0.151 HD
ENDROOT
BRANCH   4   7
ATOM      7  C   UNL     1      -3.943   2.732  -2.590  0.00  0.00    +0.108 C 
ATOM      8  C   UNL     1      -5.361   2.664  -2.017  0.00  0.00    +0.033 C 
BRANCH   7   9
ATOM      9  C   UNL     1      -4.007   3.137  -4.040  0.00  0.00    +0.011 A 
ATOM     10  C   UNL     1      -3.791   4.354  -4.595  0.00  0.00    +0.014 A 
ATOM     11  C   UNL     1      -3.905   4.495  -5.966  0.00  0.00    +0.028 A 
ATOM     12  C   UNL     1      -4.230   3.411  -6.713  0.00  0.00    +0.078 A 
ATOM     13  S   UNL     1      -4.378   2.137  -5.471  0.00  0.00    -0.080 S 
ATOM     14 CL   UNL     1      -4.442   3.291  -8.432  0.00  0.00    -0.076 Cl
ENDBRANCH   7   9
ENDBRANCH   4   7
BRANCH   1  15
ATOM     15  C   UNL     1      -1.433  -0.534   0.013  0.00  0.00    +0.140 C 
BRANCH  15  16
ATOM     16  C   UNL     1      -1.414  -2.036   0.129  0.00  0.00    +0.129 A 
ATOM     17  N   UNL     1      -2.066  -2.753   1.083  0.00  0.00    -0.340 N 
ATOM     18  H   UNL     1      -2.616  -2.393   1.796  0.00  0.00    +0.167 HD
ATOM     19  C   UNL     1      -1.800  -4.087   0.848  0.00  0.00    +0.066 A 
ATOM     20  C   UNL     1      -2.174  -5.271   1.469  0.00  0.00    +0.028 A 
ATOM     21  C   UNL     1      -1.723  -6.475   0.970  0.00  0.00    +0.002 A 
ATOM     22  C   UNL     1      -0.899  -6.510  -0.146  0.00  0.00    +0.002 A 
ATOM     23  C   UNL     1      -0.521  -5.355  -0.769  0.00  0.00    +0.030 A 
ATOM     24  C   UNL     1      -0.966  -4.123  -0.282  0.00  0.00    +0.089 A 
ATOM     25  N   UNL     1      -0.775  -2.837  -0.673  0.00  0.00    -0.231 NA
ENDBRANCH  15  16
BRANCH  15  27
ATOM     26  C   UNL     1      -0.019   1.526   0.010  0.00  0.00    +0.006 C 
ATOM     27  C   UNL     1       0.002  -0.004   0.002  0.00  0.00    +0.027 C 
ENDBRANCH  15  27
ENDBRANCH   1  15
TORSDOF 5
