REMARK  Name = ZINC16292511
REMARK  8 active torsions:
REMARK  status: ('A' for Active; 'I' for Inactive)
REMARK    1  A    between atoms: C_1  and  C_2
REMARK    2  A    between atoms: C_5  and  C_8
REMARK    3  A    between atoms: C_8  and  C_9
REMARK    4  A    between atoms: C_14  and  S_18
REMARK    5  A    between atoms: C_16  and  O_17
REMARK    6  A    between atoms: S_18  and  C_19
REMARK    7  A    between atoms: C_19  and  C_20
REMARK    8  A    between atoms: N_22  and  C_23
REMARK                            x       y       z     vdW  Elec       q    Type
REMARK                         _______ _______ _______ _____ _____    ______ ____
ROOT
ATOM      1  C   UNL     1      -0.760   1.602  -1.195  0.00  0.00    +0.082 A 
ATOM      2  C   UNL     1      -1.849   0.892  -1.715  0.00  0.00    +0.259 A 
ATOM      3  O   UNL     1      -2.230  -0.138  -1.182  0.00  0.00    -0.267 OA
ATOM      4  N   UNL     1      -2.470   1.367  -2.815  0.00  0.00    -0.302 N 
ATOM      5  H   UNL     1      -3.226   0.888  -3.189  0.00  0.00    +0.171 HD
ATOM      6  C   UNL     1      -2.036   2.518  -3.400  0.00  0.00    +0.173 A 
ATOM      7  N   UNL     1      -1.012   3.189  -2.915  0.00  0.00    -0.189 NA
ATOM      8  C   UNL     1      -0.363   2.769  -1.825  0.00  0.00    +0.223 A 
ENDROOT
BRANCH   8   9
ATOM      9  O   UNL     1       0.682   3.480  -1.342  0.00  0.00    -0.492 OA
ATOM     10  H   UNL     1       0.883   4.278  -1.849  0.00  0.00    +0.294 HD
ENDBRANCH   8   9
BRANCH   1  11
ATOM     11  C   UNL     1      -0.037   1.108   0.032  0.00  0.00    +0.081 C 
BRANCH  11  16
ATOM     12  C   UNL     1      -2.777   2.973   4.765  0.00  0.00    +0.044 C 
ATOM     13  C   UNL     1      -2.062   2.486   3.531  0.00  0.00    -0.050 A 
ATOM     14  C   UNL     1      -2.410   1.275   2.964  0.00  0.00    +0.003 A 
ATOM     15  C   UNL     1      -1.754   0.828   1.831  0.00  0.00    +0.004 A 
ATOM     16  C   UNL     1      -0.752   1.594   1.266  0.00  0.00    -0.043 A 
ATOM     17  C   UNL     1      -0.401   2.804   1.836  0.00  0.00    +0.004 A 
ATOM     18  C   UNL     1      -1.060   3.252   2.966  0.00  0.00    +0.003 A 
ENDBRANCH  11  16
ENDBRANCH   1  11
BRANCH   6  19
ATOM     19  S   UNL     1      -2.861   3.120  -4.836  0.00  0.00    -0.078 S 
BRANCH  19  20
ATOM     20  C   UNL     1      -1.888   4.612  -5.155  0.00  0.00    +0.173 C 
BRANCH  20  21
ATOM     21  C   UNL     1      -2.429   5.313  -6.374  0.00  0.00    +0.227 C 
ATOM     22  O   UNL     1      -3.378   4.849  -6.970  0.00  0.00    -0.275 OA
ATOM     23  N   UNL     1      -1.857   6.456  -6.804  0.00  0.00    -0.285 N 
ATOM     24  H   UNL     1      -1.141   6.863  -6.291  0.00  0.00    +0.155 HD
BRANCH  23  25
ATOM     25  C   UNL     1      -2.295   7.055  -7.990  0.00  0.00    +0.033 A 
ATOM     26  C   UNL     1      -1.390   7.710  -8.814  0.00  0.00    +0.024 A 
ATOM     27  C   UNL     1      -1.825   8.296  -9.987  0.00  0.00    +0.017 A 
ATOM     28  C   UNL     1      -3.162   8.240 -10.336  0.00  0.00    +0.018 A 
ATOM     29  C   UNL     1      -4.067   7.592  -9.514  0.00  0.00    +0.017 A 
ATOM     30  C   UNL     1      -3.637   7.000  -8.343  0.00  0.00    +0.024 A 
ATOM     31 BR   UNL     1      -3.755   9.049 -11.939  0.00  0.00    -0.050 Br
ENDBRANCH  23  25
ENDBRANCH  20  21
ENDBRANCH  19  20
ENDBRANCH   6  19
TORSDOF 7
