REMARK  Name = ZINC06804086
REMARK  12 active torsions:
REMARK  status: ('A' for Active; 'I' for Inactive)
REMARK    1  A    between atoms: C_1  and  C_2
REMARK    2  A    between atoms: C_2  and  C_3
REMARK    3  A    between atoms: C_7  and  C_30
REMARK    4  A    between atoms: C_8  and  N_9
REMARK    5  A    between atoms: N_9  and  C_10
REMARK    6  A    between atoms: C_10  and  C_12
REMARK    7  A    between atoms: C_10  and  C_24
REMARK    8  A    between atoms: C_12  and  N_13
REMARK    9  A    between atoms: N_13  and  S_14
REMARK   10  A    between atoms: S_14  and  C_17
REMARK   11  A    between atoms: C_20  and  C_23
REMARK   12  A    between atoms: C_30  and  C_31
REMARK                            x       y       z     vdW  Elec       q    Type
REMARK                         _______ _______ _______ _____ _____    ______ ____
ROOT
ATOM      1  C   UNL     1      -1.211   1.387  -0.056  0.00  0.00    +0.116 C 
ENDROOT
BRANCH   1   2
ATOM      2  C   UNL     1      -1.324   0.168  -0.934  0.00  0.00    -0.026 A 
ATOM      3  C   UNL     1      -1.225  -1.095  -0.380  0.00  0.00    +0.005 A 
ATOM      4  C   UNL     1      -1.332  -2.213  -1.185  0.00  0.00    +0.000 A 
ATOM      5  C   UNL     1      -1.530  -2.069  -2.546  0.00  0.00    +0.000 A 
ATOM      6  C   UNL     1      -1.624  -0.807  -3.100  0.00  0.00    +0.000 A 
ATOM      7  C   UNL     1      -1.520   0.312  -2.295  0.00  0.00    +0.005 A 
ENDBRANCH   1   2
BRANCH   1   8
ATOM      8  N   UNL     1      -0.016   1.272   0.791  0.00  0.00    -0.335 N 
ATOM      9  H   UNL     1       0.134   0.316   1.077  0.00  0.00    +0.147 HD
BRANCH   8  15
ATOM     10  C   UNL     1       2.135   0.930  -0.248  0.00  0.00    -0.027 A 
ATOM     11  C   UNL     1       3.245   1.438  -0.895  0.00  0.00    +0.005 A 
ATOM     12  C   UNL     1       3.340   2.794  -1.147  0.00  0.00    +0.001 A 
ATOM     13  C   UNL     1       2.323   3.646  -0.756  0.00  0.00    +0.005 A 
ATOM     14  C   UNL     1       1.208   3.144  -0.114  0.00  0.00    -0.027 A 
ATOM     15  C   UNL     1       1.110   1.782   0.141  0.00  0.00    +0.034 A 
BRANCH  10  17
ATOM     16  C   UNL     1       1.607  -1.280  -1.242  0.00  0.00    +0.009 C 
ATOM     17  C   UNL     1       2.035  -0.547   0.032  0.00  0.00    +0.033 C 
ENDBRANCH  10  17
BRANCH  14  18
ATOM     18  C   UNL     1       0.101   4.074   0.310  0.00  0.00    +0.033 C 
ATOM     19  C   UNL     1       0.327   4.509   1.760  0.00  0.00    +0.009 C 
ENDBRANCH  14  18
ENDBRANCH   8  15
ENDBRANCH   1   8
BRANCH   1  20
ATOM     20  C   UNL     1      -2.454   1.495   0.829  0.00  0.00    +0.132 C 
BRANCH  20  21
ATOM     21  N   UNL     1      -2.292   2.610   1.765  0.00  0.00    -0.188 NA
ATOM     22  H   UNL     1      -1.416   3.002   1.905  0.00  0.00    +0.148 HD
BRANCH  21  23
ATOM     23  S   UNL     1      -3.605   3.201   2.584  0.00  0.00    +0.058 S 
ATOM     24  O   UNL     1      -3.125   4.245   3.421  0.00  0.00    -0.153 OA
ATOM     25  O   UNL     1      -4.627   3.408   1.618  0.00  0.00    -0.153 OA
BRANCH  23  26
ATOM     26  C   UNL     1      -4.173   1.920   3.652  0.00  0.00    +0.105 A 
ATOM     27  C   UNL     1      -5.122   1.019   3.206  0.00  0.00    +0.029 A 
ATOM     28  C   UNL     1      -5.564   0.011   4.043  0.00  0.00    +0.005 A 
ATOM     29  C   UNL     1      -5.065  -0.090   5.328  0.00  0.00    -0.050 A 
ATOM     30  C   UNL     1      -4.119   0.814   5.775  0.00  0.00    +0.005 A 
ATOM     31  C   UNL     1      -3.674   1.820   4.937  0.00  0.00    +0.029 A 
ATOM     32  C   UNL     1      -5.550  -1.186   6.241  0.00  0.00    +0.044 C 
ENDBRANCH  23  26
ENDBRANCH  21  23
ENDBRANCH  20  21
ENDBRANCH   1  20
TORSDOF 9
