REMARK  Name = ZINC63676495
REMARK  8 active torsions:
REMARK  status: ('A' for Active; 'I' for Inactive)
REMARK    1  A    between atoms: C_1  and  C_2
REMARK    2  A    between atoms: C_5  and  S_8
REMARK    3  A    between atoms: S_8  and  N_11
REMARK    4  A    between atoms: N_14  and  C_15
REMARK    5  A    between atoms: C_15  and  C_16
REMARK    6  A    between atoms: C_16  and  C_17
REMARK    7  A    between atoms: C_20  and  C_28
REMARK    8  A    between atoms: C_25  and  C_27
REMARK                            x       y       z     vdW  Elec       q    Type
REMARK                         _______ _______ _______ _____ _____    ______ ____
ROOT
ATOM      1  N   UNL     1       1.651  -4.999  -0.034  0.00  0.00    -0.093 NA
ATOM      2  C   UNL     1       1.956  -6.267  -0.043  0.00  0.00    +0.215 C 
ATOM      3  N   UNL     1       0.960  -7.214  -0.042  0.00  0.00    -0.369 N 
ATOM      4  N   UNL     1       3.275  -6.656  -0.052  0.00  0.00    -0.355 N 
ATOM      5  H   UNL     1       0.029  -6.939  -0.036  0.00  0.00    +0.159 HD
ATOM      6  H   UNL     1       3.978  -5.988  -0.052  0.00  0.00    +0.163 HD
ATOM      7  H   UNL     1       1.187  -8.157  -0.049  0.00  0.00    +0.159 HD
ENDROOT
BRANCH   1   8
ATOM      8  S   UNL     1       0.063  -4.530  -0.023  0.00  0.00    +0.102 S 
ATOM      9  O   UNL     1      -0.476  -4.950   1.223  0.00  0.00    -0.146 OA
ATOM     10  O   UNL     1      -0.490  -4.937  -1.267  0.00  0.00    -0.146 OA
BRANCH   8  15
ATOM     11  C   UNL     1      -0.018   1.503   0.010  0.00  0.00    +0.044 C 
ATOM     12  C   UNL     1       0.002  -0.004   0.002  0.00  0.00    -0.050 A 
ATOM     13  C   UNL     1       0.006  -0.689  -1.199  0.00  0.00    +0.005 A 
ATOM     14  C   UNL     1       0.025  -2.071  -1.206  0.00  0.00    +0.029 A 
ATOM     15  C   UNL     1       0.040  -2.768  -0.013  0.00  0.00    +0.113 A 
ATOM     16  C   UNL     1       0.037  -2.084   1.188  0.00  0.00    +0.029 A 
ATOM     17  C   UNL     1       0.023  -0.702   1.195  0.00  0.00    +0.005 A 
ENDBRANCH   8  15
ENDBRANCH   1   8
BRANCH   4  18
ATOM     18  C   UNL     1       3.618  -8.080  -0.062  0.00  0.00    +0.120 C 
BRANCH  18  19
ATOM     19  C   UNL     1       5.139  -8.238  -0.071  0.00  0.00    +0.054 C 
BRANCH  19  20
ATOM     20  C   UNL     1       5.492  -9.703  -0.081  0.00  0.00    -0.037 C 
ATOM     21  C   UNL     1       4.632 -10.747  -0.088  0.00  0.00    -0.001 A 
ATOM     22  C   UNL     1       3.166 -10.827  -0.087  0.00  0.00    +0.013 A 
ATOM     23  C   UNL     1       2.576 -12.044  -0.095  0.00  0.00    -0.050 A 
ATOM     24  C   UNL     1       3.327 -13.228  -0.103  0.00  0.00    +0.005 A 
ATOM     25  C   UNL     1       4.677 -13.235  -0.104  0.00  0.00    +0.026 A 
ATOM     26  C   UNL     1       5.402 -12.011  -0.097  0.00  0.00    +0.043 A 
ATOM     27  N   UNL     1       6.689 -11.759  -0.096  0.00  0.00    -0.378 N 
ATOM     28  C   UNL     1       6.880 -10.304  -0.092  0.00  0.00    +0.103 C 
ATOM     29  C   UNL     1       7.648  -9.880   1.161  0.00  0.00    +0.035 C 
ATOM     30  C   UNL     1       1.071 -12.130  -0.094  0.00  0.00    +0.044 C 
ATOM     31  H   UNL     1       7.396 -12.423  -0.101  0.00  0.00    +0.160 HD
ENDBRANCH  19  20
ENDBRANCH  18  19
ENDBRANCH   4  18
TORSDOF 5
