REMARK  Name = ZINC39499280
REMARK  5 active torsions:
REMARK  status: ('A' for Active; 'I' for Inactive)
REMARK    1  A    between atoms: C_4  and  C_7
REMARK    2  A    between atoms: C_11  and  S_19
REMARK    3  A    between atoms: N_16  and  O_17
REMARK    4  A    between atoms: S_19  and  O_22
REMARK    5  A    between atoms: O_22  and  C_23
REMARK                            x       y       z     vdW  Elec       q    Type
REMARK                         _______ _______ _______ _____ _____    ______ ____
ROOT
ATOM      1  C   UNL     1       4.250  -1.770  -0.524  0.00  0.00    +0.036 C 
ATOM      2  C   UNL     1       4.056  -3.087  -0.294  0.00  0.00    +0.073 C 
ATOM      3  C   UNL     1       2.742  -3.739  -0.135  0.00  0.00    +0.007 A 
ATOM      4  C   UNL     1       1.439  -3.236  -0.171  0.00  0.00    +0.042 A 
ATOM      5  C   UNL     1       0.369  -4.085   0.013  0.00  0.00    +0.143 A 
ATOM      6  C   UNL     1       0.581  -5.436   0.233  0.00  0.00    +0.046 A 
ATOM      7  C   UNL     1       1.870  -5.942   0.271  0.00  0.00    +0.023 A 
ATOM      8  C   UNL     1       2.946  -5.102   0.089  0.00  0.00    -0.015 A 
ATOM      9  C   UNL     1       4.435  -5.339   0.073  0.00  0.00    +0.184 C 
ATOM     10  N   UNL     1       5.063  -4.037  -0.176  0.00  0.00    -0.251 N 
ATOM     11 BR   UNL     1      -0.894  -6.593   0.484  0.00  0.00    -0.048 Br
ENDROOT
BRANCH   1  15
ATOM     12  C   UNL     1       1.053   0.968  -0.003  0.00  0.00    +0.000 A 
ATOM     13  C   UNL     1       1.276  -0.018   0.943  0.00  0.00    +0.001 A 
ATOM     14  C   UNL     1       2.314  -0.911   0.781  0.00  0.00    +0.008 A 
ATOM     15  C   UNL     1       3.140  -0.821  -0.344  0.00  0.00    -0.023 A 
ATOM     16  C   UNL     1       2.908   0.177  -1.295  0.00  0.00    +0.008 A 
ATOM     17  C   UNL     1       1.867   1.064  -1.118  0.00  0.00    +0.001 A 
ENDBRANCH   1  15
BRANCH   5  18
ATOM     18  S   UNL     1      -1.274  -3.450  -0.033  0.00  0.00    +0.152 S 
ATOM     19  O   UNL     1      -1.680  -3.277   1.318  0.00  0.00    -0.131 OA
ATOM     20  O   UNL     1      -1.270  -2.382  -0.970  0.00  0.00    -0.131 OA
BRANCH  18  21
ATOM     21  O   UNL     1      -2.161  -4.540  -0.618  0.00  0.00    -0.342 OA
BRANCH  21  22
ATOM     22  C   UNL     1      -2.071  -4.660  -1.969  0.00  0.00    +0.157 A 
ATOM     23  C   UNL     1      -2.984  -4.011  -2.787  0.00  0.00    +0.048 A 
ATOM     24  C   UNL     1      -2.889  -4.136  -4.160  0.00  0.00    +0.004 A 
ATOM     25  C   UNL     1      -1.886  -4.906  -4.718  0.00  0.00    +0.000 A 
ATOM     26  C   UNL     1      -0.975  -5.554  -3.904  0.00  0.00    +0.004 A 
ATOM     27  C   UNL     1      -1.062  -5.428  -2.531  0.00  0.00    +0.048 A 
ENDBRANCH  21  22
ENDBRANCH  18  21
ENDBRANCH   5  18
BRANCH  10  28
ATOM     28  O   UNL     1       6.454  -3.790  -0.277  0.00  0.00    -0.286 OA
ATOM     29  H   UNL     1       7.002  -4.579  -0.167  0.00  0.00    +0.244 HD
ENDBRANCH  10  28
TORSDOF 5
