REMARK  Name = ZINC44196882
REMARK  5 active torsions:
REMARK  status: ('A' for Active; 'I' for Inactive)
REMARK    1  A    between atoms: C_1  and  C_2
REMARK    2  A    between atoms: C_2  and  C_3
REMARK    3  A    between atoms: C_6  and  O_9
REMARK    4  A    between atoms: O_9  and  C_10
REMARK    5  A    between atoms: C_20  and  O_22
REMARK                            x       y       z     vdW  Elec       q    Type
REMARK                         _______ _______ _______ _____ _____    ______ ____
ROOT
ATOM      1  C   UNL     1       1.964  -2.005   5.766  0.00  0.00    +0.243 C 
ATOM      2  C   UNL     1       1.474  -3.452   5.909  0.00  0.00    +0.276 C 
ATOM      3  O   UNL     1       0.633  -3.532   7.060  0.00  0.00    -0.488 OA
ATOM      4  C   UNL     1       1.092  -2.995   8.220  0.00  0.00    +0.126 A 
ATOM      5  C   UNL     1       0.480  -3.369   9.413  0.00  0.00    +0.046 A 
ATOM      6  C   UNL     1       0.916  -2.843  10.611  0.00  0.00    +0.004 A 
ATOM      7  C   UNL     1       1.963  -1.940  10.629  0.00  0.00    +0.001 A 
ATOM      8  C   UNL     1       2.574  -1.568   9.448  0.00  0.00    +0.010 A 
ATOM      9  C   UNL     1       2.143  -2.095   8.242  0.00  0.00    +0.026 A 
ATOM     10  C   UNL     1       2.842  -1.673   6.974  0.00  0.00    +0.192 C 
ENDROOT
BRANCH  10  11
ATOM     11  O   UNL     1       3.086  -0.265   7.012  0.00  0.00    -0.383 OA
ATOM     12  H   UNL     1       3.637   0.019   7.753  0.00  0.00    +0.210 HD
ENDBRANCH  10  11
BRANCH   1  13
ATOM     13  O   UNL     1       2.726  -1.871   4.565  0.00  0.00    -0.483 OA
BRANCH  13  17
ATOM     14  C   UNL     1       0.631  -1.122   1.091  0.00  0.00    -0.047 A 
ATOM     15  C   UNL     1      -0.051  -1.374   2.267  0.00  0.00    +0.007 A 
ATOM     16  C   UNL     1       0.649  -1.625   3.432  0.00  0.00    +0.046 A 
ATOM     17  C   UNL     1       2.036  -1.625   3.420  0.00  0.00    +0.121 A 
ATOM     18  C   UNL     1       2.717  -1.372   2.239  0.00  0.00    +0.046 A 
ATOM     19  C   UNL     1       2.014  -1.127   1.075  0.00  0.00    +0.007 A 
BRANCH  14  21
ATOM     20  C   UNL     1      -0.401  -2.166  -0.908  0.00  0.00    +0.009 C 
ATOM     21  C   UNL     1      -0.134  -0.848  -0.178  0.00  0.00    +0.032 C 
ENDBRANCH  14  21
ENDBRANCH  13  17
ENDBRANCH   1  13
TORSDOF 4
