REMARK  Name = ZINC01260330
REMARK  7 active torsions:
REMARK  status: ('A' for Active; 'I' for Inactive)
REMARK    1  A    between atoms: C_1  and  C_2
REMARK    2  A    between atoms: C_2  and  C_24
REMARK    3  A    between atoms: C_6  and  O_22
REMARK    4  A    between atoms: C_7  and  O_20
REMARK    5  A    between atoms: N_11  and  C_12
REMARK    6  A    between atoms: O_20  and  C_21
REMARK    7  A    between atoms: O_22  and  C_23
REMARK                            x       y       z     vdW  Elec       q    Type
REMARK                         _______ _______ _______ _____ _____    ______ ____
ROOT
ATOM      1  C   UNL     1       2.578  -4.251  -0.312  0.00  0.00    +0.031 C 
ATOM      2  C   UNL     1       2.503  -2.746  -0.578  0.00  0.00    +0.032 C 
ATOM      3  C   UNL     1       1.196  -2.191  -0.014  0.00  0.00    +0.061 C 
ATOM      4  C   UNL     1       1.205  -0.686  -0.016  0.00  0.00    -0.031 A 
ATOM      5  C   UNL     1       0.002  -0.004   0.002  0.00  0.00    +0.053 A 
ATOM      6  C   UNL     1      -0.017   1.382   0.010  0.00  0.00    +0.162 A 
ATOM      7  C   UNL     1       1.177   2.102   0.002  0.00  0.00    +0.162 A 
ATOM      8  C   UNL     1       2.384   1.429  -0.016  0.00  0.00    +0.061 A 
ATOM      9  C   UNL     1       2.400   0.034  -0.028  0.00  0.00    +0.022 A 
ATOM     10  C   UNL     1       3.692  -0.690  -0.060  0.00  0.00    +0.127 C 
ATOM     11  N   UNL     1       4.833  -0.060  -0.217  0.00  0.00    -0.231 NA
ATOM     12  N   UNL     1       3.634  -2.072   0.083  0.00  0.00    -0.323 N 
ATOM     13  C   UNL     1       2.563  -2.486  -2.085  0.00  0.00    +0.031 C 
ATOM     14  H   UNL     1       4.299  -2.563   0.590  0.00  0.00    +0.148 HD
ENDROOT
BRANCH  11  15
ATOM     15  C   UNL     1       6.006  -0.764  -0.241  0.00  0.00    +0.080 A 
ATOM     16  C   UNL     1       6.074  -1.990  -0.906  0.00  0.00    +0.029 A 
ATOM     17  C   UNL     1       7.260  -2.695  -0.927  0.00  0.00    +0.002 A 
ATOM     18  C   UNL     1       8.381  -2.190  -0.292  0.00  0.00    +0.001 A 
ATOM     19  C   UNL     1       8.321  -0.976   0.369  0.00  0.00    +0.017 A 
ATOM     20  C   UNL     1       7.143  -0.257   0.394  0.00  0.00    +0.043 A 
ATOM     21 BR   UNL     1       7.065   1.406   1.290  0.00  0.00    -0.048 Br
ENDBRANCH  11  15
BRANCH   7  22
ATOM     22  O   UNL     1       1.154   3.462   0.012  0.00  0.00    -0.491 OA
ATOM     23  C   UNL     1       2.416   4.132   0.004  0.00  0.00    +0.277 C 
ENDBRANCH   7  22
BRANCH   6  24
ATOM     24  O   UNL     1      -1.204   2.042   0.019  0.00  0.00    -0.491 OA
ATOM     25  C   UNL     1      -2.390   1.244   0.020  0.00  0.00    +0.277 C 
ENDBRANCH   6  24
TORSDOF 3
