REMARK  Name = ZINC63385551
REMARK  5 active torsions:
REMARK  status: ('A' for Active; 'I' for Inactive)
REMARK    1  A    between atoms: C_1  and  C_2
REMARK    2  A    between atoms: C_2  and  C_3
REMARK    3  A    between atoms: C_2  and  C_4
REMARK    4  A    between atoms: C_4  and  C_5
REMARK    5  A    between atoms: C_5  and  N_6
REMARK                            x       y       z     vdW  Elec       q    Type
REMARK                         _______ _______ _______ _____ _____    ______ ____
ROOT
ATOM      1  N   UNL     1       2.873  -0.545  -2.413  0.00  0.00    -0.269 N 
ATOM      2  C   UNL     1       3.495  -1.778  -2.516  0.00  0.00    +0.042 A 
ATOM      3  C   UNL     1       3.614  -2.793  -1.566  0.00  0.00    +0.025 A 
ATOM      4  C   UNL     1       4.298  -3.938  -1.942  0.00  0.00    +0.017 A 
ATOM      5  C   UNL     1       4.846  -4.080  -3.201  0.00  0.00    +0.018 A 
ATOM      6  C   UNL     1       4.736  -3.076  -4.158  0.00  0.00    +0.023 A 
ATOM      7  C   UNL     1       4.056  -1.934  -3.790  0.00  0.00    +0.006 A 
ATOM      8  C   UNL     1       3.750  -0.677  -4.539  0.00  0.00    +0.148 C 
ATOM      9  C   UNL     1       2.968   0.167  -3.555  0.00  0.00    +0.247 C 
ATOM     10  O   UNL     1       2.514   1.274  -3.755  0.00  0.00    -0.273 OA
ATOM     11  C   UNL     1       5.030   0.042  -4.954  0.00  0.00    +0.140 C 
ATOM     12  C   UNL     1       5.656  -0.802  -6.059  0.00  0.00    -0.035 C 
ATOM     13  C   UNL     1       6.904  -1.044  -5.684  0.00  0.00    -0.001 A 
ATOM     14  C   UNL     1       8.019  -1.724  -6.362  0.00  0.00    +0.010 A 
ATOM     15  C   UNL     1       9.183  -1.810  -5.666  0.00  0.00    +0.001 A 
ATOM     16  C   UNL     1       9.348  -1.293  -4.377  0.00  0.00    +0.002 A 
ATOM     17  C   UNL     1       8.379  -0.646  -3.680  0.00  0.00    +0.026 A 
ATOM     18  C   UNL     1       7.111  -0.489  -4.311  0.00  0.00    +0.043 A 
ATOM     19  N   UNL     1       6.020   0.110  -3.881  0.00  0.00    -0.375 N 
ATOM     20  C   UNL     1       4.848  -1.281  -7.241  0.00  0.00    +0.048 C 
ATOM     21  C   UNL     1       3.556  -1.886  -6.663  0.00  0.00    +0.086 C 
ATOM     22  N   UNL     1       2.932  -0.948  -5.725  0.00  0.00    -0.297 NA
ATOM     23 BR   UNL     1       5.765  -5.675  -3.636  0.00  0.00    -0.050 Br
ATOM     24  H   UNL     1       2.009  -1.259  -5.464  0.00  0.00    +0.123 HD
ATOM     25  H   UNL     1       5.888   0.520  -3.012  0.00  0.00    +0.160 HD
ENDROOT
BRANCH   1  26
ATOM     26  C   UNL     1       2.187  -0.073  -1.207  0.00  0.00    +0.114 C 
BRANCH  26  27
ATOM     27  C   UNL     1       0.718  -0.497  -1.257  0.00  0.00    +0.022 C 
BRANCH  27  29
ATOM     28  C   UNL     1      -0.019   1.526   0.010  0.00  0.00    +0.007 C 
ATOM     29  C   UNL     1       0.002  -0.004   0.002  0.00  0.00    -0.016 C 
ATOM     30  C   UNL     1      -1.433  -0.534   0.013  0.00  0.00    +0.007 C 
ENDBRANCH  27  29
ENDBRANCH  26  27
ENDBRANCH   1  26
TORSDOF 3
