REMARK  Name = ZINC14159785
REMARK  9 active torsions:
REMARK  status: ('A' for Active; 'I' for Inactive)
REMARK    1  A    between atoms: C_1  and  C_2
REMARK    2  A    between atoms: C_4  and  C_29
REMARK    3  A    between atoms: N_10  and  C_11
REMARK    4  A    between atoms: C_11  and  N_13
REMARK    5  A    between atoms: N_13  and  C_14
REMARK    6  A    between atoms: C_14  and  C_15
REMARK    7  A    between atoms: C_15  and  O_16
REMARK    8  A    between atoms: O_16  and  C_17
REMARK    9  A    between atoms: N_21  and  C_24
REMARK                            x       y       z     vdW  Elec       q    Type
REMARK                         _______ _______ _______ _____ _____    ______ ____
ROOT
ATOM      1  C   UNL     1      -3.733   2.784  -0.043  0.00  0.00    +0.066 C 
ATOM      2  C   UNL     1      -2.547   3.701   0.106  0.00  0.00    +0.044 A 
ATOM      3  C   UNL     1      -2.731   5.063   0.287  0.00  0.00    +0.046 A 
ATOM      4  C   UNL     1      -1.613   5.871   0.419  0.00  0.00    +0.044 A 
ATOM      5  N   UNL     1      -0.411   5.322   0.369  0.00  0.00    -0.219 NA
ATOM      6  C   UNL     1      -0.270   4.016   0.195  0.00  0.00    +0.222 A 
ATOM      7  N   UNL     1      -1.317   3.217   0.060  0.00  0.00    -0.219 NA
ATOM      8  N   UNL     1       1.008   3.474   0.147  0.00  0.00    -0.258 N 
ATOM      9  C   UNL     1       1.172   2.127  -0.032  0.00  0.00    +0.180 C 
ATOM     10  N   UNL     1       0.118   1.329  -0.058  0.00  0.00    -0.164 NA
ATOM     11  N   UNL     1       2.425   1.607  -0.185  0.00  0.00    -0.302 N 
ATOM     12  C   UNL     1       2.674   0.501  -1.123  0.00  0.00    +0.126 C 
ATOM     13  C   UNL     1       3.851   0.895  -2.030  0.00  0.00    +0.125 C 
ATOM     14  N   UNL     1       5.000   1.273  -1.196  0.00  0.00    -0.314 N 
ATOM     15  C   UNL     1       4.701   2.458  -0.382  0.00  0.00    +0.125 C 
ATOM     16  C   UNL     1       3.560   2.132   0.588  0.00  0.00    +0.126 C 
ATOM     17  C   UNL     1      -1.764   7.357   0.618  0.00  0.00    +0.066 C 
ATOM     18  H   UNL     1       1.783   4.049   0.240  0.00  0.00    +0.157 HD
ENDROOT
BRANCH  14  19
ATOM     19  C   UNL     1       6.134   1.476  -1.974  0.00  0.00    +0.099 A 
ATOM     20  C   UNL     1       6.582   0.464  -2.818  0.00  0.00    +0.042 A 
ATOM     21  C   UNL     1       7.712   0.680  -3.586  0.00  0.00    +0.005 A 
ATOM     22  C   UNL     1       8.359   1.905  -3.484  0.00  0.00    +0.018 A 
ATOM     23  C   UNL     1       7.859   2.864  -2.626  0.00  0.00    +0.084 A 
ATOM     24  N   UNL     1       6.748   2.689  -1.861  0.00  0.00    -0.350 N 
ATOM     25  H   UNL     1       6.394   3.424  -1.238  0.00  0.00    +0.166 HD
ENDBRANCH  14  19
BRANCH  10  26
ATOM     26  C   UNL     1       0.284  -0.001  -0.075  0.00  0.00    +0.157 C 
ATOM     27  S   UNL     1       1.199  -0.765   1.154  0.00  0.00    -0.017 S 
BRANCH  26  28
ATOM     28  N   UNL     1      -0.270  -0.737  -1.059  0.00  0.00    -0.323 N 
ATOM     29  H   UNL     1      -0.789  -0.304  -1.755  0.00  0.00    +0.148 HD
BRANCH  28  30
ATOM     30  C   UNL     1      -0.089  -2.190  -1.077  0.00  0.00    +0.131 C 
BRANCH  30  31
ATOM     31  C   UNL     1      -0.813  -2.779  -2.289  0.00  0.00    +0.178 C 
BRANCH  31  32
ATOM     32  O   UNL     1      -0.197  -2.306  -3.489  0.00  0.00    -0.381 OA
ATOM     33  C   UNL     1      -0.801  -2.799  -4.686  0.00  0.00    +0.194 C 
ENDBRANCH  31  32
ENDBRANCH  30  31
ENDBRANCH  28  30
ENDBRANCH  26  28
ENDBRANCH  10  26
TORSDOF 6
