REMARK  Name = ZINC13880731
REMARK  11 active torsions:
REMARK  status: ('A' for Active; 'I' for Inactive)
REMARK    1  A    between atoms: C_1  and  C_2
REMARK    2  A    between atoms: C_2  and  O_3
REMARK    3  A    between atoms: O_3  and  C_4
REMARK    4  A    between atoms: C_7  and  N_10
REMARK    5  A    between atoms: C_16  and  C_17
REMARK    6  A    between atoms: C_20  and  O_26
REMARK    7  A    between atoms: C_21  and  O_23
REMARK    8  A    between atoms: O_23  and  C_24
REMARK    9  A    between atoms: C_24  and  C_25
REMARK   10  A    between atoms: O_26  and  C_27
REMARK   11  A    between atoms: C_27  and  C_28
REMARK                            x       y       z     vdW  Elec       q    Type
REMARK                         _______ _______ _______ _____ _____    ______ ____
ROOT
ATOM      1  N   UNL     1       0.968  -5.933  -1.792  0.00  0.00    -0.226 NA
ATOM      2  C   UNL     1       0.687  -6.484  -2.950  0.00  0.00    +0.166 C 
ATOM      3  N   UNL     1       0.019  -5.932  -4.022  0.00  0.00    -0.260 N 
ATOM      4  C   UNL     1      -0.181  -6.634  -5.125  0.00  0.00    +0.256 C 
ATOM      5  O   UNL     1      -0.769  -6.163  -6.081  0.00  0.00    -0.269 OA
ATOM      6  C   UNL     1       0.340  -8.014  -5.144  0.00  0.00    +0.078 C 
ATOM      7  C   UNL     1       0.278  -8.945  -6.130  0.00  0.00    +0.028 C 
ATOM      8  S   UNL     1       1.083  -8.128  -3.523  0.00  0.00    -0.049 S 
ATOM      9  H   UNL     1      -0.308  -5.021  -3.967  0.00  0.00    +0.157 HD
ENDROOT
BRANCH   1  13
ATOM     10  C   UNL     1      -0.213  -2.042  -1.008  0.00  0.00    +0.121 A 
ATOM     11  C   UNL     1      -0.401  -3.028  -0.050  0.00  0.00    +0.048 A 
ATOM     12  C   UNL     1      -0.010  -4.326  -0.307  0.00  0.00    +0.031 A 
ATOM     13  C   UNL     1       0.577  -4.646  -1.533  0.00  0.00    +0.067 A 
ATOM     14  C   UNL     1       0.765  -3.650  -2.494  0.00  0.00    +0.031 A 
ATOM     15  C   UNL     1       0.365  -2.357  -2.230  0.00  0.00    +0.048 A 
BRANCH  10  16
ATOM     16  O   UNL     1      -0.601  -0.764  -0.751  0.00  0.00    -0.492 OA
BRANCH  16  18
ATOM     17  C   UNL     1      -1.557   0.972   0.631  0.00  0.00    +0.048 C 
ATOM     18  C   UNL     1      -1.188  -0.509   0.526  0.00  0.00    +0.225 C 
ENDBRANCH  16  18
ENDBRANCH  10  16
ENDBRANCH   1  13
BRANCH   7  19
ATOM     19  C   UNL     1      -0.231  -8.575  -7.457  0.00  0.00    -0.020 A 
ATOM     20  C   UNL     1       0.113  -7.341  -8.022  0.00  0.00    +0.012 A 
ATOM     21  C   UNL     1      -0.365  -6.998  -9.268  0.00  0.00    +0.050 A 
ATOM     22  C   UNL     1      -1.188  -7.872  -9.966  0.00  0.00    +0.163 A 
ATOM     23  C   UNL     1      -1.534  -9.104  -9.410  0.00  0.00    +0.162 A 
ATOM     24  C   UNL     1      -1.055  -9.459  -8.164  0.00  0.00    +0.057 A 
BRANCH  23  25
ATOM     25  O   UNL     1      -2.340  -9.957 -10.097  0.00  0.00    -0.489 OA
BRANCH  25  26
ATOM     26  C   UNL     1      -2.654 -11.200  -9.468  0.00  0.00    +0.226 C 
ATOM     27  C   UNL     1      -3.564 -12.020 -10.386  0.00  0.00    +0.048 C 
ENDBRANCH  25  26
ENDBRANCH  23  25
BRANCH  22  28
ATOM     28  O   UNL     1      -1.656  -7.528 -11.193  0.00  0.00    -0.479 OA
BRANCH  28  29
ATOM     29  C   UNL     1      -1.263  -6.252 -11.703  0.00  0.00    +0.324 C 
BRANCH  29  30
ATOM     30  C   UNL     1      -1.874  -6.045 -13.065  0.00  0.00    +0.248 C 
ATOM     31  O   UNL     1      -2.577  -6.905 -13.551  0.00  0.00    -0.272 OA
ATOM     32  N   UNL     1      -1.639  -4.904 -13.743  0.00  0.00    -0.327 N 
ATOM     33  H   UNL     1      -1.076  -4.216 -13.354  0.00  0.00    +0.145 HD
ATOM     34  H   UNL     1      -2.032  -4.771 -14.619  0.00  0.00    +0.145 HD
ENDBRANCH  29  30
ENDBRANCH  28  29
ENDBRANCH  22  28
ENDBRANCH   7  19
TORSDOF 9
