REMARK  Name = ZINC01153415
REMARK  6 active torsions:
REMARK  status: ('A' for Active; 'I' for Inactive)
REMARK    1  A    between atoms: C_4  and  C_7
REMARK    2  A    between atoms: C_7  and  C_9
REMARK    3  A    between atoms: C_11  and  C_23
REMARK    4  A    between atoms: C_17  and  C_18
REMARK    5  A    between atoms: C_17  and  O_22
REMARK    6  A    between atoms: C_26  and  C_28
REMARK                            x       y       z     vdW  Elec       q    Type
REMARK                         _______ _______ _______ _____ _____    ______ ____
ROOT
ATOM      1  C   UNL     1      -1.080   2.314   0.578  0.00  0.00    +0.147 C 
ATOM      2  C   UNL     1      -0.713   3.763   0.237  0.00  0.00    +0.156 C 
ATOM      3  N   UNL     1       0.737   3.929   0.344  0.00  0.00    -0.289 N 
ATOM      4  C   UNL     1       1.575   2.906   0.120  0.00  0.00    +0.302 C 
ATOM      5  O   UNL     1       2.772   3.100   0.212  0.00  0.00    -0.253 OA
ATOM      6  N   UNL     1       1.145   1.676  -0.201  0.00  0.00    -0.264 N 
ATOM      7  C   UNL     1      -0.282   1.382  -0.344  0.00  0.00    +0.243 C 
ATOM      8  H   UNL     1       1.100   4.797   0.582  0.00  0.00    +0.151 HD
ATOM      9  H   UNL     1       1.792   0.969  -0.345  0.00  0.00    +0.153 HD
ENDROOT
BRANCH   2  10
ATOM     10  C   UNL     1      -1.154   4.077  -1.169  0.00  0.00    +0.127 A 
ATOM     11  C   UNL     1      -0.418   4.716  -2.099  0.00  0.00    +0.047 A 
ATOM     12  C   UNL     1      -1.206   4.798  -3.264  0.00  0.00    +0.050 A 
ATOM     13  C   UNL     1      -2.392   4.198  -2.979  0.00  0.00    +0.135 A 
ATOM     14  O   UNL     1      -2.344   3.760  -1.706  0.00  0.00    -0.458 OA
BRANCH  13  15
ATOM     15  C   UNL     1      -3.533   4.047  -3.905  0.00  0.00    +0.017 A 
ATOM     16  C   UNL     1      -3.452   4.549  -5.205  0.00  0.00    +0.013 A 
ATOM     17  C   UNL     1      -4.518   4.401  -6.067  0.00  0.00    +0.021 A 
ATOM     18  C   UNL     1      -5.672   3.764  -5.642  0.00  0.00    +0.041 A 
ATOM     19  C   UNL     1      -5.761   3.269  -4.352  0.00  0.00    +0.021 A 
ATOM     20  C   UNL     1      -4.699   3.406  -3.483  0.00  0.00    +0.013 A 
ATOM     21 CL   UNL     1      -7.013   3.588  -6.731  0.00  0.00    -0.084 Cl
ENDBRANCH  13  15
ENDBRANCH   2  10
BRANCH   7  22
ATOM     22  C   UNL     1      -0.707   1.606  -1.797  0.00  0.00    +0.436 C 
ATOM     23  F   UNL     1      -0.403   0.469  -2.553  0.00  0.00    -0.166 F 
ATOM     24  F   UNL     1      -2.084   1.846  -1.849  0.00  0.00    -0.166 F 
ATOM     25  F   UNL     1      -0.022   2.709  -2.318  0.00  0.00    -0.166 F 
ENDBRANCH   7  22
BRANCH   1  26
ATOM     26  C   UNL     1      -0.733   2.029   2.016  0.00  0.00    +0.173 C 
ATOM     27  O   UNL     1       0.366   1.603   2.301  0.00  0.00    -0.292 OA
BRANCH  26  31
ATOM     28  C   UNL     1      -3.598   2.719   5.067  0.00  0.00    +0.000 A 
ATOM     29  C   UNL     1      -2.345   2.231   5.397  0.00  0.00    +0.001 A 
ATOM     30  C   UNL     1      -1.408   2.005   4.411  0.00  0.00    +0.011 A 
ATOM     31  C   UNL     1      -1.727   2.268   3.075  0.00  0.00    +0.018 A 
ATOM     32  C   UNL     1      -2.993   2.765   2.750  0.00  0.00    +0.011 A 
ATOM     33  C   UNL     1      -3.921   2.982   3.747  0.00  0.00    +0.001 A 
ENDBRANCH  26  31
ENDBRANCH   1  26
BRANCH   7  34
ATOM     34  O   UNL     1      -0.529   0.023   0.022  0.00  0.00    -0.364 OA
ATOM     35  H   UNL     1      -0.050  -0.622  -0.515  0.00  0.00    +0.212 HD
ENDBRANCH   7  34
TORSDOF 6
