REMARK  Name = ZINC13940995
REMARK  5 active torsions:
REMARK  status: ('A' for Active; 'I' for Inactive)
REMARK    1  A    between atoms: C_6  and  N_7
REMARK    2  A    between atoms: N_7  and  N_8
REMARK    3  A    between atoms: C_10  and  C_20
REMARK    4  A    between atoms: C_15  and  O_19
REMARK    5  A    between atoms: N_22  and  C_23
REMARK                            x       y       z     vdW  Elec       q    Type
REMARK                         _______ _______ _______ _____ _____    ______ ____
ROOT
ATOM      1  N   UNL     1      -0.047   5.917  -0.346  0.00  0.00    -0.143 NA
ATOM      2  C   UNL     1       1.020   6.390   0.236  0.00  0.00    +0.248 A 
ATOM      3  C   UNL     1       2.295   5.637   0.223  0.00  0.00    +0.101 A 
ATOM      4  C   UNL     1       3.458   6.367   0.321  0.00  0.00    +0.030 A 
ATOM      5  C   UNL     1       3.338   7.823   0.435  0.00  0.00    +0.018 A 
ATOM      6  C   UNL     1       4.458   8.647   0.268  0.00  0.00    +0.015 A 
ATOM      7  C   UNL     1       4.326  10.002   0.374  0.00  0.00    +0.046 A 
ATOM      8  C   UNL     1       3.085  10.571   0.648  0.00  0.00    +0.120 A 
ATOM      9  C   UNL     1       1.965   9.769   0.818  0.00  0.00    +0.092 A 
ATOM     10  C   UNL     1       2.082   8.395   0.715  0.00  0.00    +0.141 A 
ATOM     11  O   UNL     1       0.999   7.595   0.882  0.00  0.00    -0.436 OA
ENDROOT
BRANCH   3  12
ATOM     12  C   UNL     1       2.317   4.171   0.104  0.00  0.00    +0.253 C 
ATOM     13  O   UNL     1       3.380   3.579   0.091  0.00  0.00    -0.270 OA
ATOM     14  N   UNL     1       1.161   3.485   0.010  0.00  0.00    -0.281 N 
ATOM     15  H   UNL     1       0.318   3.961  -0.046  0.00  0.00    +0.155 HD
BRANCH  14  16
ATOM     16  C   UNL     1       1.178   2.086  -0.007  0.00  0.00    +0.034 A 
ATOM     17  C   UNL     1       0.155   1.371   0.601  0.00  0.00    +0.024 A 
ATOM     18  C   UNL     1       0.174  -0.010   0.582  0.00  0.00    +0.017 A 
ATOM     19  C   UNL     1       1.211  -0.681  -0.042  0.00  0.00    +0.018 A 
ATOM     20  C   UNL     1       2.232   0.030  -0.648  0.00  0.00    +0.017 A 
ATOM     21  C   UNL     1       2.218   1.411  -0.632  0.00  0.00    +0.024 A 
ATOM     22 BR   UNL     1       1.233  -2.571  -0.065  0.00  0.00    -0.050 Br
ENDBRANCH  14  16
ENDBRANCH   3  12
BRANCH   1  23
ATOM     23  N   UNL     1      -1.242   6.648  -0.320  0.00  0.00    -0.234 N 
ATOM     24  H   UNL     1      -1.276   7.506   0.131  0.00  0.00    +0.174 HD
BRANCH  23  30
ATOM     25  C   UNL     1      -2.334   4.915  -1.594  0.00  0.00    +0.026 A 
ATOM     26  C   UNL     1      -3.467   4.414  -2.204  0.00  0.00    +0.022 A 
ATOM     27  C   UNL     1      -4.647   5.137  -2.177  0.00  0.00    +0.041 A 
ATOM     28  C   UNL     1      -4.697   6.362  -1.535  0.00  0.00    +0.022 A 
ATOM     29  C   UNL     1      -3.569   6.866  -0.917  0.00  0.00    +0.026 A 
ATOM     30  C   UNL     1      -2.382   6.142  -0.942  0.00  0.00    +0.048 A 
ATOM     31 CL   UNL     1      -6.067   4.507  -2.951  0.00  0.00    -0.084 Cl
ENDBRANCH  23  30
ENDBRANCH   1  23
BRANCH   8  32
ATOM     32  O   UNL     1       2.970  11.920   0.750  0.00  0.00    -0.507 OA
ATOM     33  H   UNL     1       3.104  12.260   1.645  0.00  0.00    +0.292 HD
ENDBRANCH   8  32
TORSDOF 5
