REMARK  Name = ZINC08834866
REMARK  12 active torsions:
REMARK  status: ('A' for Active; 'I' for Inactive)
REMARK    1  A    between atoms: C_1  and  C_2
REMARK    2  A    between atoms: C_2  and  N_62
REMARK    3  A    between atoms: C_3  and  C_4
REMARK    4  A    between atoms: C_3  and  N_62
REMARK    5  A    between atoms: C_5  and  C_6
REMARK    6  A    between atoms: C_5  and  N_62
REMARK    7  A    between atoms: C_6  and  C_7
REMARK    8  A    between atoms: C_7  and  N_8
REMARK    9  A    between atoms: C_9  and  C_25
REMARK   10  A    between atoms: C_28  and  O_31
REMARK   11  A    between atoms: O_31  and  C_32
REMARK   12  A    between atoms: C_32  and  C_33
REMARK                            x       y       z     vdW  Elec       q    Type
REMARK                         _______ _______ _______ _____ _____    ______ ____
ROOT
ATOM      1  N   UNL     1      -0.201  -4.400   0.857  0.00  0.00    -0.284 N 
ATOM      2  C   UNL     1      -1.510  -4.113   0.256  0.00  0.00    +0.144 C 
ATOM      3  C   UNL     1      -1.398  -4.508  -1.193  0.00  0.00    +0.072 A 
ATOM      4  C   UNL     1      -2.344  -4.467  -2.311  0.00  0.00    +0.199 A 
ATOM      5  O   UNL     1      -3.481  -4.054  -2.170  0.00  0.00    -0.287 OA
ATOM      6  C   UNL     1      -1.851  -4.951  -3.615  0.00  0.00    +0.065 A 
ATOM      7  C   UNL     1      -2.669  -4.958  -4.744  0.00  0.00    +0.030 A 
ATOM      8  C   UNL     1      -2.169  -5.420  -5.942  0.00  0.00    +0.019 A 
ATOM      9  C   UNL     1      -0.859  -5.875  -6.023  0.00  0.00    +0.019 A 
ATOM     10  C   UNL     1      -0.042  -5.872  -4.914  0.00  0.00    +0.048 A 
ATOM     11  C   UNL     1      -0.526  -5.411  -3.693  0.00  0.00    +0.140 A 
ATOM     12  O   UNL     1       0.263  -5.405  -2.603  0.00  0.00    -0.450 OA
ATOM     13  C   UNL     1      -0.139  -4.974  -1.391  0.00  0.00    +0.199 A 
ATOM     14  C   UNL     1       0.595  -4.901  -0.103  0.00  0.00    +0.283 C 
ATOM     15  O   UNL     1       1.749  -5.244   0.060  0.00  0.00    -0.267 OA
ATOM     16 BR   UNL     1      -3.268  -5.434  -7.480  0.00  0.00    -0.050 Br
ENDROOT
BRANCH   2  17
ATOM     17  C   UNL     1      -1.823  -2.644   0.371  0.00  0.00    -0.022 A 
ATOM     18  C   UNL     1      -3.111  -2.233   0.658  0.00  0.00    +0.009 A 
ATOM     19  C   UNL     1      -3.401  -0.886   0.764  0.00  0.00    +0.046 A 
ATOM     20  C   UNL     1      -2.397   0.054   0.583  0.00  0.00    +0.121 A 
ATOM     21  C   UNL     1      -1.106  -0.360   0.290  0.00  0.00    +0.046 A 
ATOM     22  C   UNL     1      -0.821  -1.708   0.190  0.00  0.00    +0.009 A 
BRANCH  20  23
ATOM     23  O   UNL     1      -2.680   1.379   0.687  0.00  0.00    -0.492 OA
BRANCH  23  24
ATOM     24  C   UNL     1      -1.597   2.291   0.488  0.00  0.00    +0.225 C 
ATOM     25  C   UNL     1      -2.104   3.726   0.643  0.00  0.00    +0.048 C 
ENDBRANCH  23  24
ENDBRANCH  20  23
ENDBRANCH   2  17
BRANCH   1  26
ATOM     26  C   UNL     1       0.171  -4.180   2.257  0.00  0.00    +0.107 C 
BRANCH  26  27
ATOM     27  C   UNL     1      -0.142  -5.436   3.072  0.00  0.00    +0.000 C 
BRANCH  27  28
ATOM     28  C   UNL     1       0.247  -5.207   4.534  0.00  0.00    -0.077 C 
BRANCH  28  29
ATOM     29  N   UNL     1      -0.081  -6.420   5.311  0.00  0.00    +0.379 N 
ATOM     30  H   UNL     1      -1.058  -6.680   5.128  0.00  0.00    -0.082 HD
BRANCH  29  32
ATOM     31  C   UNL     1       2.266  -7.176   5.135  0.00  0.00    -0.017 C 
ATOM     32  C   UNL     1       0.797  -7.536   4.900  0.00  0.00    -0.082 C 
ENDBRANCH  29  32
BRANCH  29  33
ATOM     33  C   UNL     1       0.082  -6.154   6.756  0.00  0.00    -0.082 C 
ATOM     34  C   UNL     1      -0.601  -7.275   7.542  0.00  0.00    -0.017 C 
ENDBRANCH  29  33
ENDBRANCH  28  29
ENDBRANCH  27  28
ENDBRANCH  26  27
ENDBRANCH   1  26
TORSDOF 9
