REMARK  Name = ZINC39884978
REMARK  6 active torsions:
REMARK  status: ('A' for Active; 'I' for Inactive)
REMARK    1  A    between atoms: C_3  and  C_9
REMARK    2  A    between atoms: C_12  and  C_14
REMARK    3  A    between atoms: C_15  and  C_16
REMARK    4  A    between atoms: C_15  and  C_18
REMARK    5  A    between atoms: N_20  and  C_21
REMARK    6  A    between atoms: C_22  and  C_30
REMARK                            x       y       z     vdW  Elec       q    Type
REMARK                         _______ _______ _______ _____ _____    ______ ____
ROOT
ATOM      1  C   UNL     1       5.936   6.439  -2.956  0.00  0.00    +0.259 C 
ATOM      2  O   UNL     1       7.060   6.756  -2.614  0.00  0.00    -0.269 OA
ATOM      3  N   UNL     1       5.329   7.094  -3.966  0.00  0.00    -0.275 N 
ATOM      4  H   UNL     1       4.433   6.841  -4.239  0.00  0.00    +0.156 HD
ENDROOT
BRANCH   3   5
ATOM      5  C   UNL     1       5.984   8.128  -4.614  0.00  0.00    +0.085 A 
ATOM      6  C   UNL     1       5.518   8.910  -5.659  0.00  0.00    +0.068 A 
ATOM      7  C   UNL     1       6.409   9.940  -6.166  0.00  0.00    -0.023 A 
ATOM      8  C   UNL     1       7.601   9.998  -5.536  0.00  0.00    -0.004 A 
ATOM      9  S   UNL     1       7.523   8.727  -4.308  0.00  0.00    -0.077 S 
ATOM     10  C   UNL     1       8.727  10.943  -5.825  0.00  0.00    +0.043 C 
ATOM     11  C   UNL     1       8.473  11.590  -7.195  0.00  0.00    +0.005 C 
ATOM     12  C   UNL     1       7.024  12.084  -7.249  0.00  0.00    +0.005 C 
ATOM     13  C   UNL     1       6.069  10.890  -7.305  0.00  0.00    +0.037 C 
BRANCH   6  14
ATOM     14  C   UNL     1       4.183   8.706  -6.229  0.00  0.00    +0.244 C 
ATOM     15  O   UNL     1       3.229   9.308  -5.774  0.00  0.00    -0.270 OA
ATOM     16  N   UNL     1       4.013   7.851  -7.258  0.00  0.00    -0.325 N 
ATOM     17  H   UNL     1       4.774   7.372  -7.620  0.00  0.00    +0.145 HD
ATOM     18  H   UNL     1       3.130   7.717  -7.635  0.00  0.00    +0.145 HD
ENDBRANCH   6  14
ENDBRANCH   3   5
BRANCH   1  20
ATOM     19  C   UNL     1       5.867   4.669  -1.230  0.00  0.00    +0.070 C 
ATOM     20  C   UNL     1       5.242   5.344  -2.270  0.00  0.00    +0.117 C 
BRANCH  19  24
ATOM     21  C   UNL     1       3.654   2.161  -0.022  0.00  0.00    +0.137 A 
ATOM     22  C   UNL     1       4.724   1.944   0.822  0.00  0.00    +0.050 A 
ATOM     23  C   UNL     1       5.710   2.868   0.477  0.00  0.00    +0.050 A 
ATOM     24  C   UNL     1       5.203   3.621  -0.573  0.00  0.00    +0.130 A 
ATOM     25  O   UNL     1       3.963   3.169  -0.856  0.00  0.00    -0.455 OA
BRANCH  21  28
ATOM     26  C   UNL     1      -0.017   1.381   0.010  0.00  0.00    +0.021 A 
ATOM     27  C   UNL     1       1.166   2.090   0.002  0.00  0.00    +0.014 A 
ATOM     28  C   UNL     1       2.386   1.409  -0.013  0.00  0.00    +0.036 A 
ATOM     29  C   UNL     1       2.398   0.010  -0.021  0.00  0.00    +0.053 A 
ATOM     30  C   UNL     1       1.207  -0.687  -0.013  0.00  0.00    +0.040 A 
ATOM     31  C   UNL     1       0.002  -0.004   0.002  0.00  0.00    +0.042 A 
ATOM     32 CL   UNL     1      -1.492  -0.888   0.012  0.00  0.00    -0.083 Cl
ATOM     33 CL   UNL     1       3.908  -0.847  -0.040  0.00  0.00    -0.083 Cl
ENDBRANCH  21  28
ENDBRANCH  19  24
BRANCH  20  34
ATOM     34  C   UNL     1       3.920   4.971  -2.673  0.00  0.00    +0.104 C 
ATOM     35  N   UNL     1       2.870   4.674  -2.992  0.00  0.00    -0.191 NA
ENDBRANCH  20  34
ENDBRANCH   1  20
TORSDOF 6
