REMARK  Name = ZINC28967416
REMARK  6 active torsions:
REMARK  status: ('A' for Active; 'I' for Inactive)
REMARK    1  A    between atoms: C_1  and  C_2
REMARK    2  A    between atoms: C_5  and  C_8
REMARK    3  A    between atoms: C_12  and  N_14
REMARK    4  A    between atoms: C_15  and  C_17
REMARK    5  A    between atoms: C_17  and  C_18
REMARK    6  A    between atoms: C_21  and  N_24
REMARK                            x       y       z     vdW  Elec       q    Type
REMARK                         _______ _______ _______ _____ _____    ______ ____
ROOT
ATOM      1  N   UNL     1       0.098  -7.382   1.536  0.00  0.00    -0.176 NA
ATOM      2  C   UNL     1       0.095  -7.204   2.826  0.00  0.00    +0.254 C 
ATOM      3  O   UNL     1       0.080  -5.957   3.334  0.00  0.00    -0.270 OA
ENDROOT
BRANCH   1   8
ATOM      4  C   UNL     1       0.058  -4.256  -0.021  0.00  0.00    +0.183 A 
ATOM      5  N   UNL     1       0.068  -5.012  -1.097  0.00  0.00    -0.151 NA
ATOM      6  H   UNL     1       0.096  -7.141  -1.218  0.00  0.00    +0.192 HD
ATOM      7  N   UNL     1       0.085  -6.347  -0.660  0.00  0.00    -0.243 N 
ATOM      8  C   UNL     1       0.085  -6.305   0.700  0.00  0.00    +0.249 A 
ATOM      9  N   UNL     1       0.074  -5.038   1.065  0.00  0.00    -0.190 NA
BRANCH   4  14
ATOM     10  C   UNL     1      -0.018   1.503   0.010  0.00  0.00    +0.044 C 
ATOM     11  C   UNL     1       0.002  -0.004   0.002  0.00  0.00    -0.050 A 
ATOM     12  C   UNL     1       0.006  -0.686  -1.201  0.00  0.00    +0.004 A 
ATOM     13  C   UNL     1       0.024  -2.067  -1.214  0.00  0.00    +0.012 A 
ATOM     14  C   UNL     1       0.039  -2.772  -0.013  0.00  0.00    +0.021 A 
ATOM     15  C   UNL     1       0.036  -2.080   1.196  0.00  0.00    +0.012 A 
ATOM     16  C   UNL     1       0.023  -0.700   1.198  0.00  0.00    +0.004 A 
ENDBRANCH   4  14
ENDBRANCH   1   8
BRANCH   2  17
ATOM     17  C   UNL     1       0.110  -8.394   3.751  0.00  0.00    +0.135 C 
BRANCH  17  18
ATOM     18  C   UNL     1       0.126  -9.663   2.937  0.00  0.00    -0.038 A 
ATOM     19  C   UNL     1      -1.065 -10.255   2.559  0.00  0.00    +0.006 A 
ATOM     20  C   UNL     1      -1.053 -11.418   1.813  0.00  0.00    +0.026 A 
ATOM     21  C   UNL     1       0.156 -11.991   1.442  0.00  0.00    +0.046 A 
ATOM     22  C   UNL     1       1.350 -11.393   1.823  0.00  0.00    +0.026 A 
ATOM     23  C   UNL     1       1.332 -10.228   2.564  0.00  0.00    +0.006 A 
BRANCH  21  24
ATOM     24  N   UNL     1       0.171 -13.171   0.685  0.00  0.00    -0.323 N 
ATOM     25  C   UNL     1      -0.930 -13.849   0.246  0.00  0.00    +0.091 A 
ATOM     26  C   UNL     1      -0.512 -14.929  -0.445  0.00  0.00    +0.019 A 
ATOM     27  C   UNL     1       0.898 -14.919  -0.433  0.00  0.00    +0.019 A 
ATOM     28  C   UNL     1       1.289 -13.830   0.260  0.00  0.00    +0.091 A 
ENDBRANCH  21  24
ENDBRANCH  17  18
ENDBRANCH   2  17
TORSDOF 5
