REMARK  Name = ZINC36242781
REMARK  6 active torsions:
REMARK  status: ('A' for Active; 'I' for Inactive)
REMARK    1  A    between atoms: C_8  and  C_36
REMARK    2  A    between atoms: C_9  and  C_34
REMARK    3  A    between atoms: C_10  and  C_11
REMARK    4  A    between atoms: C_26  and  C_28
REMARK    5  A    between atoms: C_34  and  O_35
REMARK    6  A    between atoms: C_36  and  O_37
REMARK                            x       y       z     vdW  Elec       q    Type
REMARK                         _______ _______ _______ _____ _____    ______ ____
ROOT
ATOM      1  C   UNL     1       4.272   1.976  -0.654  0.00  0.00    -0.012 A 
ATOM      2  C   UNL     1       5.131   1.924  -1.758  0.00  0.00    +0.028 A 
ATOM      3  C   UNL     1       6.473   2.190  -1.579  0.00  0.00    +0.114 A 
ATOM      4  N   UNL     1       6.952   2.490  -0.387  0.00  0.00    -0.236 NA
ATOM      5  C   UNL     1       6.178   2.550   0.685  0.00  0.00    +0.158 A 
ATOM      6  C   UNL     1       4.815   2.302   0.591  0.00  0.00    +0.057 A 
ATOM      7  N   UNL     1       6.736   2.871   1.923  0.00  0.00    -0.177 N 
ATOM      8  C   UNL     1       8.060   3.120   2.000  0.00  0.00    +0.281 A 
ATOM      9  O   UNL     1       8.758   3.066   1.004  0.00  0.00    -0.265 OA
ATOM     10  C   UNL     1       8.645   3.458   3.303  0.00  0.00    +0.051 A 
ATOM     11  C   UNL     1      10.005   3.727   3.453  0.00  0.00    +0.014 A 
ATOM     12  C   UNL     1      10.503   4.039   4.699  0.00  0.00    +0.001 A 
ATOM     13  C   UNL     1       9.664   4.088   5.805  0.00  0.00    +0.001 A 
ATOM     14  C   UNL     1       8.318   3.825   5.679  0.00  0.00    +0.011 A 
ATOM     15  C   UNL     1       7.792   3.508   4.428  0.00  0.00    +0.015 A 
ATOM     16  C   UNL     1       6.363   3.220   4.238  0.00  0.00    +0.101 A 
ATOM     17  N   UNL     1       5.910   2.931   3.045  0.00  0.00    -0.161 NA
ENDROOT
BRANCH   1  27
ATOM     18  C   UNL     1      -0.030   4.686  -0.124  0.00  0.00    +0.001 A 
ATOM     19  C   UNL     1       1.326   4.969   0.023  0.00  0.00    +0.001 A 
ATOM     20  C   UNL     1       2.269   4.011  -0.194  0.00  0.00    +0.009 A 
ATOM     21  C   UNL     1       1.873   2.719  -0.570  0.00  0.00    -0.010 A 
ATOM     22  C   UNL     1       0.495   2.429  -0.718  0.00  0.00    -0.017 A 
ATOM     23  C   UNL     1      -0.451   3.443  -0.487  0.00  0.00    +0.008 A 
ATOM     24  C   UNL     1       0.097   1.135  -1.093  0.00  0.00    +0.014 A 
ATOM     25  C   UNL     1       1.032   0.169  -1.312  0.00  0.00    -0.016 A 
ATOM     26  C   UNL     1       2.389   0.437  -1.170  0.00  0.00    -0.009 A 
ATOM     27  C   UNL     1       2.825   1.698  -0.802  0.00  0.00    -0.004 A 
BRANCH  26  28
ATOM     28  C   UNL     1       3.396  -0.656  -1.419  0.00  0.00    +0.192 C 
BRANCH  28  29
ATOM     29  O   UNL     1       3.779  -0.646  -2.795  0.00  0.00    -0.390 OA
ATOM     30  H   UNL     1       4.427  -1.325  -3.028  0.00  0.00    +0.210 HD
ENDBRANCH  28  29
ENDBRANCH  26  28
BRANCH  25  31
ATOM     31  C   UNL     1       0.589  -1.214  -1.714  0.00  0.00    +0.191 C 
BRANCH  31  32
ATOM     32  O   UNL     1      -0.837  -1.253  -1.795  0.00  0.00    -0.390 OA
ATOM     33  H   UNL     1      -1.193  -2.115  -2.050  0.00  0.00    +0.210 HD
ENDBRANCH  31  32
ENDBRANCH  25  31
ENDBRANCH   1  27
BRANCH  16  34
ATOM     34  C   UNL     1       5.437   3.262   5.394  0.00  0.00    +0.021 A 
ATOM     35  C   UNL     1       4.160   3.819   5.263  0.00  0.00    +0.013 A 
ATOM     36  C   UNL     1       3.334   3.834   6.372  0.00  0.00    +0.020 A 
ATOM     37  C   UNL     1       3.792   3.303   7.565  0.00  0.00    +0.111 A 
ATOM     38  N   UNL     1       5.001   2.785   7.659  0.00  0.00    -0.263 NA
ATOM     39  C   UNL     1       5.822   2.743   6.630  0.00  0.00    +0.120 A 
ENDBRANCH  16  34
TORSDOF 6
