REMARK  Name = ZINC08193030
REMARK  3 active torsions:
REMARK  status: ('A' for Active; 'I' for Inactive)
REMARK    1  A    between atoms: C_8  and  C_10
REMARK    2  A    between atoms: C_13  and  C_15
REMARK    3  A    between atoms: N_17  and  N_18
REMARK                            x       y       z     vdW  Elec       q    Type
REMARK                         _______ _______ _______ _____ _____    ______ ____
ROOT
ATOM      1  C   UNL     1       3.713  10.133   0.015  0.00  0.00    +0.296 C 
ATOM      2  O   UNL     1       3.485  11.329   0.022  0.00  0.00    -0.265 OA
ATOM      3  N   UNL     1       4.986   9.690  -0.000  0.00  0.00    -0.217 N 
ATOM      4  H   UNL     1       5.167   8.737  -0.006  0.00  0.00    +0.174 HD
ENDROOT
BRANCH   3   5
ATOM      5  N   UNL     1       6.046  10.605  -0.007  0.00  0.00    -0.137 N 
ATOM      6  C   UNL     1       6.820  10.877   1.064  0.00  0.00    +0.263 C 
ATOM      7  O   UNL     1       6.734  10.395   2.173  0.00  0.00    -0.271 OA
ATOM      8  C   UNL     1       7.817  11.909   0.590  0.00  0.00    +0.114 C 
ATOM      9  C   UNL     1       9.238  11.370   0.710  0.00  0.00    +0.035 C 
ATOM     10  C   UNL     1      10.230  12.418   0.199  0.00  0.00    +0.003 C 
ATOM     11  C   UNL     1      10.083  13.700   1.020  0.00  0.00    +0.000 C 
ATOM     12  C   UNL     1       8.660  14.243   0.870  0.00  0.00    +0.003 C 
ATOM     13  C   UNL     1       7.662  13.202   1.384  0.00  0.00    +0.035 C 
ATOM     14  N   UNL     1       7.465  12.125  -0.819  0.00  0.00    -0.284 N 
ATOM     15  C   UNL     1       6.421  11.314  -1.079  0.00  0.00    +0.326 C 
ATOM     16  O   UNL     1       5.879  11.237  -2.164  0.00  0.00    -0.251 OA
ATOM     17  H   UNL     1       7.901  12.728  -1.441  0.00  0.00    +0.151 HD
ENDBRANCH   3   5
BRANCH   1  21
ATOM     18  C   UNL     1       1.494   7.276   0.024  0.00  0.00    +0.161 A 
ATOM     19  C   UNL     1       0.558   8.286   0.033  0.00  0.00    +0.053 A 
ATOM     20  C   UNL     1       1.262   9.494   0.037  0.00  0.00    +0.055 A 
ATOM     21  C   UNL     1       2.602   9.175   0.022  0.00  0.00    +0.191 A 
ATOM     22  O   UNL     1       2.719   7.832   0.015  0.00  0.00    -0.448 OA
BRANCH  18  30
ATOM     23  C   UNL     1      -1.221   1.760   0.017  0.00  0.00    +0.002 A 
ATOM     24  C   UNL     1      -0.013   1.076   0.008  0.00  0.00    +0.001 A 
ATOM     25  C   UNL     1       1.171   1.790   0.001  0.00  0.00    +0.017 A 
ATOM     26  C   UNL     1       1.131   3.163   0.008  0.00  0.00    +0.040 A 
ATOM     27  C   UNL     1      -0.084   3.890   0.023  0.00  0.00    +0.079 A 
ATOM     28  C   UNL     1      -1.272   3.118   0.030  0.00  0.00    +0.029 A 
ATOM     29  N   UNL     1       0.036   5.225   0.028  0.00  0.00    -0.236 NA
ATOM     30  C   UNL     1       1.204   5.833   0.021  0.00  0.00    +0.145 A 
ATOM     31  S   UNL     1       2.346   4.459   0.003  0.00  0.00    -0.064 S 
ENDBRANCH  18  30
ENDBRANCH   1  21
TORSDOF 3
