REMARK  Name = ZINC02679207
REMARK  4 active torsions:
REMARK  status: ('A' for Active; 'I' for Inactive)
REMARK    1  A    between atoms: C_4  and  N_7
REMARK    2  A    between atoms: C_16  and  S_17
REMARK    3  A    between atoms: S_17  and  C_18
REMARK    4  A    between atoms: C_18  and  C_19
REMARK                            x       y       z     vdW  Elec       q    Type
REMARK                         _______ _______ _______ _____ _____    ______ ____
ROOT
ATOM      1  N   UNL     1       4.416   1.835  -0.030  0.00  0.00    -0.255 N 
ATOM      2  C   UNL     1       3.716   0.905   0.646  0.00  0.00    +0.268 A 
ATOM      3  O   UNL     1       4.290   0.011   1.244  0.00  0.00    -0.267 OA
ATOM      4  C   UNL     1       2.288   0.983   0.653  0.00  0.00    +0.076 A 
ATOM      5  C   UNL     1       1.336   0.080   1.321  0.00  0.00    -0.023 A 
ATOM      6  C   UNL     1       0.031   0.363   1.182  0.00  0.00    -0.004 A 
ATOM      7  S   UNL     1      -0.018   1.824   0.169  0.00  0.00    -0.073 S 
ATOM      8  C   UNL     1       1.726   2.049  -0.063  0.00  0.00    +0.117 A 
ATOM      9  N   UNL     1       2.472   2.936  -0.713  0.00  0.00    -0.215 NA
ATOM     10  C   UNL     1       3.786   2.843  -0.705  0.00  0.00    +0.178 A 
ATOM     11  C   UNL     1      -0.845  -0.622   1.909  0.00  0.00    +0.043 C 
ATOM     12  C   UNL     1       0.107  -1.333   2.895  0.00  0.00    +0.010 C 
ATOM     13  C   UNL     1       1.466  -1.177   2.185  0.00  0.00    +0.037 C 
ENDROOT
BRANCH   1  17
ATOM     14  C   UNL     1       8.579   1.634  -0.069  0.00  0.00    +0.000 A 
ATOM     15  C   UNL     1       7.932   2.349   0.923  0.00  0.00    +0.002 A 
ATOM     16  C   UNL     1       6.552   2.417   0.938  0.00  0.00    +0.026 A 
ATOM     17  C   UNL     1       5.815   1.767  -0.043  0.00  0.00    +0.052 A 
ATOM     18  C   UNL     1       6.468   1.046  -1.034  0.00  0.00    +0.026 A 
ATOM     19  C   UNL     1       7.848   0.986  -1.047  0.00  0.00    +0.002 A 
ENDBRANCH   1  17
BRANCH  10  20
ATOM     20  S   UNL     1       4.746   4.036  -1.577  0.00  0.00    -0.083 S 
BRANCH  20  21
ATOM     21  C   UNL     1       3.424   5.077  -2.243  0.00  0.00    +0.112 C 
BRANCH  21  22
ATOM     22  C   UNL     1       4.026   6.199  -3.050  0.00  0.00    -0.033 A 
ATOM     23  C   UNL     1       4.338   7.398  -2.438  0.00  0.00    +0.008 A 
ATOM     24  C   UNL     1       4.896   8.428  -3.172  0.00  0.00    +0.050 A 
ATOM     25  C   UNL     1       5.131   8.264  -4.528  0.00  0.00    +0.166 A 
ATOM     26  C   UNL     1       4.811   7.058  -5.146  0.00  0.00    +0.167 A 
ATOM     27  C   UNL     1       4.258   6.028  -4.402  0.00  0.00    +0.054 A 
ATOM     28  O   UNL     1       5.135   7.146  -6.469  0.00  0.00    -0.453 OA
ATOM     29  C   UNL     1       5.276   8.554  -6.737  0.00  0.00    +0.466 C 
ATOM     30  O   UNL     1       5.655   9.108  -5.463  0.00  0.00    -0.453 OA
ENDBRANCH  21  22
ENDBRANCH  20  21
ENDBRANCH  10  20
TORSDOF 4
