REMARK  Name = ZINC38980084
REMARK  10 active torsions:
REMARK  status: ('A' for Active; 'I' for Inactive)
REMARK    1  A    between atoms: C_1  and  O_2
REMARK    2  A    between atoms: O_2  and  C_3
REMARK    3  A    between atoms: C_6  and  S_9
REMARK    4  A    between atoms: S_9  and  N_12
REMARK    5  A    between atoms: C_14  and  N_24
REMARK    6  A    between atoms: N_24  and  C_25
REMARK    7  A    between atoms: C_27  and  O_33
REMARK    8  A    between atoms: C_30  and  O_31
REMARK    9  A    between atoms: O_31  and  C_32
REMARK   10  A    between atoms: O_33  and  C_34
REMARK                            x       y       z     vdW  Elec       q    Type
REMARK                         _______ _______ _______ _____ _____    ______ ____
ROOT
ATOM      1  N   UNL     1       1.326  -3.058   5.336  0.00  0.00    -0.110 NA
ATOM      2  C   UNL     1       1.778  -3.452   6.490  0.00  0.00    +0.192 C 
ATOM      3  C   UNL     1       0.844  -3.598   7.670  0.00  0.00    +0.237 C 
ATOM      4  N   UNL     1       1.418  -4.048   8.948  0.00  0.00    -0.359 N 
ATOM      5  C   UNL     1       2.696  -4.297   9.003  0.00  0.00    +0.063 A 
ATOM      6  C   UNL     1       3.318  -4.749  10.256  0.00  0.00    +0.027 A 
ATOM      7  C   UNL     1       4.646  -4.998  10.274  0.00  0.00    +0.002 A 
ATOM      8  C   UNL     1       5.443  -4.836   9.129  0.00  0.00    +0.002 A 
ATOM      9  C   UNL     1       4.944  -4.425   7.943  0.00  0.00    +0.030 A 
ATOM     10  C   UNL     1       3.562  -4.135   7.809  0.00  0.00    +0.089 A 
ATOM     11  N   UNL     1       3.079  -3.739   6.650  0.00  0.00    -0.226 NA
ATOM     12  H   UNL     1       0.857  -4.156   9.733  0.00  0.00    +0.162 HD
ENDROOT
BRANCH   1  13
ATOM     13  S   UNL     1       2.358  -2.909   4.050  0.00  0.00    +0.100 S 
ATOM     14  O   UNL     1       2.808  -4.220   3.735  0.00  0.00    -0.146 OA
ATOM     15  O   UNL     1       3.253  -1.852   4.368  0.00  0.00    -0.146 OA
BRANCH  13  19
ATOM     16  C   UNL     1      -0.100  -1.503   0.516  0.00  0.00    +0.120 A 
ATOM     17  C   UNL     1       0.492  -0.577   1.363  0.00  0.00    +0.047 A 
ATOM     18  C   UNL     1       1.241  -1.008   2.441  0.00  0.00    +0.032 A 
ATOM     19  C   UNL     1       1.402  -2.362   2.675  0.00  0.00    +0.113 A 
ATOM     20  C   UNL     1       0.813  -3.286   1.832  0.00  0.00    +0.032 A 
ATOM     21  C   UNL     1       0.058  -2.860   0.756  0.00  0.00    +0.047 A 
BRANCH  16  23
ATOM     22  C   UNL     1      -0.957   0.331  -0.731  0.00  0.00    +0.277 C 
ATOM     23  O   UNL     1      -0.838  -1.081  -0.544  0.00  0.00    -0.495 OA
ENDBRANCH  16  23
ENDBRANCH  13  19
ENDBRANCH   1  13
BRANCH   3  24
ATOM     24  N   UNL     1      -0.207  -4.547   7.294  0.00  0.00    -0.315 N 
ATOM     25  H   UNL     1       0.023  -5.363   6.822  0.00  0.00    +0.149 HD
BRANCH  24  26
ATOM     26  C   UNL     1      -1.542  -4.277   7.615  0.00  0.00    +0.075 A 
ATOM     27  C   UNL     1      -1.859  -3.178   8.399  0.00  0.00    +0.072 A 
ATOM     28  C   UNL     1      -3.182  -2.913   8.716  0.00  0.00    +0.122 A 
ATOM     29  C   UNL     1      -4.188  -3.745   8.249  0.00  0.00    +0.049 A 
ATOM     30  C   UNL     1      -3.875  -4.842   7.468  0.00  0.00    +0.051 A 
ATOM     31  C   UNL     1      -2.555  -5.108   7.143  0.00  0.00    +0.141 A 
BRANCH  31  32
ATOM     32  O   UNL     1      -2.248  -6.184   6.368  0.00  0.00    -0.493 OA
ATOM     33  C   UNL     1      -3.337  -6.992   5.919  0.00  0.00    +0.277 C 
ENDBRANCH  31  32
BRANCH  28  34
ATOM     34  O   UNL     1      -3.494  -1.835   9.485  0.00  0.00    -0.495 OA
ATOM     35  C   UNL     1      -4.877  -1.622   9.772  0.00  0.00    +0.277 C 
ENDBRANCH  28  34
ENDBRANCH  24  26
ENDBRANCH   3  24
TORSDOF 7
