REMARK  Name = ZINC19827480
REMARK  7 active torsions:
REMARK  status: ('A' for Active; 'I' for Inactive)
REMARK    1  A    between atoms: C_1  and  C_2
REMARK    2  A    between atoms: C_2  and  N_3
REMARK    3  A    between atoms: C_4  and  S_14
REMARK    4  A    between atoms: N_5  and  C_6
REMARK    5  A    between atoms: S_14  and  C_15
REMARK    6  A    between atoms: N_20  and  C_23
REMARK    7  A    between atoms: C_26  and  C_29
REMARK                            x       y       z     vdW  Elec       q    Type
REMARK                         _______ _______ _______ _____ _____    ______ ____
ROOT
ATOM      1  C   UNL     1       0.614  -4.888   0.846  0.00  0.00    +0.149 C 
ATOM      2  C   UNL     1      -0.223  -5.732  -0.137  0.00  0.00    +0.120 C 
ATOM      3  C   UNL     1      -1.306  -6.325   0.738  0.00  0.00    +0.228 C 
ATOM      4  O   UNL     1      -2.189  -7.063   0.359  0.00  0.00    -0.275 OA
ATOM      5  N   UNL     1      -1.134  -5.905   1.998  0.00  0.00    -0.209 N 
ATOM      6  C   UNL     1      -0.081  -5.092   2.175  0.00  0.00    +0.240 C 
ATOM      7  O   UNL     1       0.260  -4.598   3.228  0.00  0.00    -0.274 OA
ENDROOT
BRANCH   5   8
ATOM      8  C   UNL     1      -1.980  -6.283   3.043  0.00  0.00    +0.044 A 
ATOM      9  C   UNL     1      -1.988  -7.602   3.486  0.00  0.00    +0.025 A 
ATOM     10  C   UNL     1      -2.820  -7.979   4.515  0.00  0.00    +0.017 A 
ATOM     11  C   UNL     1      -3.658  -7.034   5.117  0.00  0.00    +0.063 A 
ATOM     12  C   UNL     1      -3.647  -5.709   4.668  0.00  0.00    +0.017 A 
ATOM     13  C   UNL     1      -2.808  -5.339   3.642  0.00  0.00    +0.025 A 
BRANCH  11  14
ATOM     14  C   UNL     1      -4.551  -7.433   6.218  0.00  0.00    +0.387 C 
ATOM     15  O   UNL     1      -4.560  -8.592   6.609  0.00  0.00    -0.241 OA
ATOM     16  O   UNL     1      -5.283  -6.605   6.743  0.00  0.00    -0.241 OA
ENDBRANCH  11  14
ENDBRANCH   5   8
BRANCH   1  17
ATOM     17  S   UNL     1       0.583  -3.138   0.371  0.00  0.00    -0.077 S 
BRANCH  17  19
ATOM     18  N   UNL     1       1.859  -1.004   1.480  0.00  0.00    -0.324 N 
ATOM     19  C   UNL     1       1.645  -2.359   1.542  0.00  0.00    +0.155 C 
ATOM     20  N   UNL     1       2.232  -3.075   2.474  0.00  0.00    -0.226 NA
ATOM     21  H   UNL     1       2.431  -0.573   2.135  0.00  0.00    +0.148 HD
BRANCH  20  22
ATOM     22  C   UNL     1       2.976  -2.458   3.445  0.00  0.00    +0.068 A 
ATOM     23  C   UNL     1       2.403  -1.464   4.240  0.00  0.00    +0.029 A 
ATOM     24  C   UNL     1       3.156  -0.846   5.217  0.00  0.00    +0.023 A 
ATOM     25  C   UNL     1       4.478  -1.210   5.410  0.00  0.00    +0.059 A 
ATOM     26  C   UNL     1       5.053  -2.195   4.624  0.00  0.00    +0.061 A 
ATOM     27  C   UNL     1       4.307  -2.826   3.647  0.00  0.00    +0.049 A 
ATOM     28 CL   UNL     1       6.711  -2.645   4.872  0.00  0.00    -0.082 Cl
ATOM     29 CL   UNL     1       5.419  -0.427   6.641  0.00  0.00    -0.082 Cl
ENDBRANCH  20  22
BRANCH  18  31
ATOM     30  C   UNL     1       1.625   1.259   0.583  0.00  0.00    +0.024 C 
ATOM     31  C   UNL     1       1.225  -0.209   0.425  0.00  0.00    +0.100 C 
ENDBRANCH  18  31
ENDBRANCH  17  19
ENDBRANCH   1  17
TORSDOF 6
