REMARK  Name = ZINC21077937
REMARK  7 active torsions:
REMARK  status: ('A' for Active; 'I' for Inactive)
REMARK    1  A    between atoms: C_5  and  N_7
REMARK    2  A    between atoms: C_8  and  C_10
REMARK    3  A    between atoms: C_10  and  C_11
REMARK    4  A    between atoms: C_11  and  S_12
REMARK    5  A    between atoms: S_12  and  C_13
REMARK    6  A    between atoms: N_18  and  N_19
REMARK    7  A    between atoms: C_20  and  C_21
REMARK                            x       y       z     vdW  Elec       q    Type
REMARK                         _______ _______ _______ _____ _____    ______ ____
ROOT
ATOM      1  C   UNL     1       0.005  -0.005   0.043  0.00  0.00    +0.210 A 
ATOM      2  N   UNL     1      -0.013   1.361   0.061  0.00  0.00    -0.186 NA
ATOM      3  C   UNL     1       1.282   1.800   0.051  0.00  0.00    +0.232 A 
ATOM      4  N   UNL     1       2.066   0.750   0.029  0.00  0.00    -0.245 N 
ATOM      5  N   UNL     1       1.258  -0.394   0.023  0.00  0.00    -0.144 NA
ATOM      6  N   UNL     1       1.693   3.125   0.063  0.00  0.00    -0.205 N 
ATOM      7  H   UNL     1       0.946   3.933   0.082  0.00  0.00    +0.177 HD
ATOM      8  H   UNL     1       3.158   0.880   0.017  0.00  0.00    +0.192 HD
ENDROOT
BRANCH   6   9
ATOM      9  N   UNL     1       3.059   3.435   0.051  0.00  0.00    -0.188 NA
ATOM     10  C   UNL     1       3.444   4.675   0.062  0.00  0.00    +0.138 C 
BRANCH  10  11
ATOM     11  C   UNL     1       4.882   5.001   0.049  0.00  0.00    -0.005 A 
ATOM     12  C   UNL     1       5.833   3.978   0.031  0.00  0.00    +0.011 A 
ATOM     13  C   UNL     1       7.176   4.289   0.014  0.00  0.00    +0.020 A 
ATOM     14  C   UNL     1       7.583   5.613   0.026  0.00  0.00    +0.041 A 
ATOM     15  C   UNL     1       6.646   6.632   0.050  0.00  0.00    +0.020 A 
ATOM     16  C   UNL     1       5.299   6.334   0.061  0.00  0.00    +0.011 A 
ATOM     17 CL   UNL     1       9.276   5.996   0.012  0.00  0.00    -0.084 Cl
ENDBRANCH  10  11
ENDBRANCH   6   9
BRANCH   1  18
ATOM     18  S   UNL     1      -1.407  -1.060   0.046  0.00  0.00    -0.084 S 
BRANCH  18  19
ATOM     19  C   UNL     1      -0.706  -2.732   0.017  0.00  0.00    +0.086 C 
BRANCH  19  20
ATOM     20  C   UNL     1      -1.839  -3.760   0.016  0.00  0.00    +0.107 C 
BRANCH  20  22
ATOM     21  N   UNL     1      -2.071  -6.223  -0.012  0.00  0.00    -0.285 N 
ATOM     22  C   UNL     1      -1.256  -5.150  -0.008  0.00  0.00    +0.218 C 
ATOM     23  O   UNL     1      -0.053  -5.303  -0.024  0.00  0.00    -0.275 OA
ATOM     24  H   UNL     1      -3.159  -6.087   0.076  0.00  0.00    +0.155 HD
BRANCH  21  29
ATOM     25  C   UNL     1       0.218  -9.079   0.334  0.00  0.00    +0.002 A 
ATOM     26  C   UNL     1      -0.471 -10.054  -0.363  0.00  0.00    +0.001 A 
ATOM     27  C   UNL     1      -1.691  -9.761  -0.945  0.00  0.00    +0.017 A 
ATOM     28  C   UNL     1      -2.225  -8.491  -0.830  0.00  0.00    +0.039 A 
ATOM     29  C   UNL     1      -1.534  -7.510  -0.130  0.00  0.00    +0.047 A 
ATOM     30  C   UNL     1      -0.307  -7.807   0.449  0.00  0.00    +0.024 A 
ATOM     31 BR   UNL     1      -3.892  -8.090  -1.627  0.00  0.00    -0.048 Br
ENDBRANCH  21  29
ENDBRANCH  20  22
ENDBRANCH  19  20
ENDBRANCH  18  19
ENDBRANCH   1  18
TORSDOF 7
