REMARK  Name = ZINC15452782
REMARK  7 active torsions:
REMARK  status: ('A' for Active; 'I' for Inactive)
REMARK    1  A    between atoms: C_1  and  O_2
REMARK    2  A    between atoms: O_2  and  C_3
REMARK    3  A    between atoms: C_6  and  C_9
REMARK    4  A    between atoms: N_14  and  C_15
REMARK    5  A    between atoms: C_15  and  C_16
REMARK    6  A    between atoms: N_21  and  C_22
REMARK    7  A    between atoms: C_22  and  C_23
REMARK                            x       y       z     vdW  Elec       q    Type
REMARK                         _______ _______ _______ _____ _____    ______ ____
ROOT
ATOM      1  C   UNL     1       2.505  -2.503  -4.381  0.00  0.00    -0.037 C 
ATOM      2  C   UNL     1       1.439  -3.007  -5.377  0.00  0.00    -0.013 C 
ATOM      3  C   UNL     1       2.022  -4.362  -5.857  0.00  0.00    -0.020 C 
ATOM      4  C   UNL     1       2.701  -4.886  -4.567  0.00  0.00    -0.077 C 
ATOM      5  N   UNL     1       3.267  -3.678  -3.921  0.00  0.00    +0.390 N 
ATOM      6  H   UNL     1       3.191  -3.761  -2.918  0.00  0.00    -0.080 HD
ENDROOT
BRANCH   1  10
ATOM      7  C   UNL     1       0.606  -0.607  -1.056  0.00  0.00    +0.120 A 
ATOM      8  C   UNL     1       1.173   0.161  -2.062  0.00  0.00    +0.046 A 
ATOM      9  C   UNL     1       1.786  -0.455  -3.136  0.00  0.00    +0.005 A 
ATOM     10  C   UNL     1       1.835  -1.835  -3.209  0.00  0.00    -0.061 A 
ATOM     11  C   UNL     1       1.270  -2.602  -2.207  0.00  0.00    +0.005 A 
ATOM     12  C   UNL     1       0.661  -1.992  -1.128  0.00  0.00    +0.046 A 
BRANCH   7  14
ATOM     13  C   UNL     1      -0.017   1.425   0.010  0.00  0.00    +0.277 C 
ATOM     14  O   UNL     1       0.002  -0.004   0.002  0.00  0.00    -0.495 OA
ENDBRANCH   7  14
ENDBRANCH   1  10
BRANCH   5  15
ATOM     15  C   UNL     1       4.680  -3.529  -4.296  0.00  0.00    +0.020 C 
BRANCH  15  16
ATOM     16  C   UNL     1       5.476  -4.670  -3.718  0.00  0.00    +0.204 C 
ATOM     17  O   UNL     1       4.923  -5.523  -3.059  0.00  0.00    -0.277 OA
ATOM     18  N   UNL     1       6.805  -4.742  -3.934  0.00  0.00    -0.242 N 
ATOM     19  C   UNL     1       7.518  -5.762  -3.417  0.00  0.00    +0.306 C 
ATOM     20  O   UNL     1       6.962  -6.617  -2.756  0.00  0.00    -0.252 OA
ATOM     21  N   UNL     1       8.846  -5.834  -3.633  0.00  0.00    -0.291 N 
ATOM     22  H   UNL     1       7.248  -4.059  -4.462  0.00  0.00    +0.159 HD
ATOM     23  H   UNL     1       9.289  -5.151  -4.161  0.00  0.00    +0.151 HD
BRANCH  21  24
ATOM     24  C   UNL     1       9.620  -6.943  -3.071  0.00  0.00    +0.219 C 
BRANCH  24  25
ATOM     25  C   UNL     1      11.091  -6.788  -3.462  0.00  0.00    +0.405 C 
ATOM     26  F   UNL     1      11.581  -5.576  -2.962  0.00  0.00    -0.169 F 
ATOM     27  F   UNL     1      11.831  -7.847  -2.925  0.00  0.00    -0.169 F 
ATOM     28  F   UNL     1      11.207  -6.797  -4.856  0.00  0.00    -0.169 F 
ENDBRANCH  24  25
ENDBRANCH  21  24
ENDBRANCH  15  16
ENDBRANCH   5  15
TORSDOF 6
