REMARK  Name = ZINC35697122
REMARK  3 active torsions:
REMARK  status: ('A' for Active; 'I' for Inactive)
REMARK    1  A    between atoms: C_5  and  C_7
REMARK    2  A    between atoms: C_9  and  C_12
REMARK    3  A    between atoms: C_16  and  N_18
REMARK                            x       y       z     vdW  Elec       q    Type
REMARK                         _______ _______ _______ _____ _____    ______ ____
ROOT
ATOM      1  C   UNL     1       1.249  -2.160  -0.023  0.00  0.00    +0.260 A 
ATOM      2  N   UNL     1       0.200  -2.949  -0.022  0.00  0.00    -0.187 NA
ATOM      3  C   UNL     1       0.593  -4.233  -0.033  0.00  0.00    +0.202 A 
ATOM      4  N   UNL     1       1.903  -4.274  -0.040  0.00  0.00    -0.056 NA
ATOM      5  O   UNL     1       2.353  -2.928  -0.040  0.00  0.00    -0.332 OA
ENDROOT
BRANCH   1  10
ATOM      6  C   UNL     1      -0.017   1.375   0.010  0.00  0.00    +0.001 A 
ATOM      7  C   UNL     1       1.170   2.087   0.002  0.00  0.00    +0.001 A 
ATOM      8  C   UNL     1       2.383   1.421  -0.013  0.00  0.00    +0.015 A 
ATOM      9  C   UNL     1       2.416   0.041  -0.022  0.00  0.00    +0.026 A 
ATOM     10  C   UNL     1       1.222  -0.682  -0.014  0.00  0.00    +0.053 A 
ATOM     11  C   UNL     1       0.002  -0.004   0.002  0.00  0.00    +0.014 A 
ATOM     12  I   UNL     1       4.253  -0.965  -0.047  0.00  0.00    -0.043 I 
ENDBRANCH   1  10
BRANCH   3  13
ATOM     13  C   UNL     1      -0.308  -5.412  -0.035  0.00  0.00    +0.024 A 
ATOM     14  C   UNL     1      -1.691  -5.234  -0.032  0.00  0.00    +0.012 A 
ATOM     15  C   UNL     1      -2.528  -6.332  -0.034  0.00  0.00    +0.002 A 
ATOM     16  C   UNL     1      -2.001  -7.609  -0.039  0.00  0.00    +0.023 A 
ATOM     17  C   UNL     1      -0.624  -7.796  -0.042  0.00  0.00    +0.025 A 
ATOM     18  C   UNL     1       0.224  -6.698  -0.046  0.00  0.00    +0.034 A 
BRANCH  17  19
ATOM     19  N   UNL     1      -0.094  -9.088  -0.047  0.00  0.00    -0.358 N 
ATOM     20  H   UNL     1      -0.687  -9.856  -0.048  0.00  0.00    +0.142 HD
ATOM     21  H   UNL     1       0.868  -9.218  -0.048  0.00  0.00    +0.142 HD
ENDBRANCH  17  19
ENDBRANCH   3  13
TORSDOF 3
