REMARK  Name = ZINC39494858
REMARK  11 active torsions:
REMARK  status: ('A' for Active; 'I' for Inactive)
REMARK    1  A    between atoms: C_1  and  C_2
REMARK    2  A    between atoms: C_2  and  C_3
REMARK    3  A    between atoms: C_3  and  C_5
REMARK    4  A    between atoms: C_5  and  C_7
REMARK    5  A    between atoms: C_5  and  C_14
REMARK    6  A    between atoms: C_12  and  O_13
REMARK    7  A    between atoms: C_14  and  C_16
REMARK    8  A    between atoms: C_14  and  N_22
REMARK    9  A    between atoms: C_23  and  S_25
REMARK   10  A    between atoms: S_25  and  O_28
REMARK   11  A    between atoms: O_28  and  C_29
REMARK                            x       y       z     vdW  Elec       q    Type
REMARK                         _______ _______ _______ _____ _____    ______ ____
ROOT
ATOM      1  C   UNL     1      -1.567  -2.425  -1.574  0.00  0.00    +0.119 C 
ENDROOT
BRANCH   1   2
ATOM      2  C   UNL     1      -2.430  -1.620  -2.512  0.00  0.00    -0.026 A 
ATOM      3  C   UNL     1      -1.980  -0.406  -2.995  0.00  0.00    +0.005 A 
ATOM      4  C   UNL     1      -2.772   0.332  -3.855  0.00  0.00    +0.000 A 
ATOM      5  C   UNL     1      -4.014  -0.144  -4.232  0.00  0.00    +0.000 A 
ATOM      6  C   UNL     1      -4.463  -1.359  -3.749  0.00  0.00    +0.000 A 
ATOM      7  C   UNL     1      -3.670  -2.099  -2.893  0.00  0.00    +0.005 A 
ENDBRANCH   1   2
BRANCH   1   8
ATOM      8  N   UNL     1      -0.170  -2.345  -2.008  0.00  0.00    -0.286 N 
ATOM      9  C   UNL     1       0.286  -3.176  -2.966  0.00  0.00    +0.391 C 
ATOM     10  O   UNL     1      -0.460  -3.989  -3.470  0.00  0.00    -0.246 OA
ATOM     11  H   UNL     1       0.427  -1.695  -1.605  0.00  0.00    +0.151 HD
BRANCH   9  12
ATOM     12  S   UNL     1       1.967  -3.081  -3.488  0.00  0.00    +0.203 S 
ATOM     13  O   UNL     1       2.086  -3.918  -4.630  0.00  0.00    -0.127 OA
ATOM     14  O   UNL     1       2.306  -1.701  -3.517  0.00  0.00    -0.127 OA
BRANCH  12  15
ATOM     15  O   UNL     1       2.814  -3.714  -2.394  0.00  0.00    -0.339 OA
BRANCH  15  16
ATOM     16  C   UNL     1       2.751  -5.072  -2.361  0.00  0.00    +0.157 A 
ATOM     17  C   UNL     1       1.784  -5.704  -1.593  0.00  0.00    +0.048 A 
ATOM     18  C   UNL     1       1.721  -7.083  -1.562  0.00  0.00    +0.004 A 
ATOM     19  C   UNL     1       2.621  -7.834  -2.296  0.00  0.00    +0.000 A 
ATOM     20  C   UNL     1       3.586  -7.207  -3.062  0.00  0.00    +0.004 A 
ATOM     21  C   UNL     1       3.649  -5.827  -3.101  0.00  0.00    +0.048 A 
ENDBRANCH  15  16
ENDBRANCH  12  15
ENDBRANCH   9  12
ENDBRANCH   1   8
BRANCH   1  22
ATOM     22  C   UNL     1      -1.693  -1.864  -0.157  0.00  0.00    +0.113 C 
BRANCH  22  23
ATOM     23  C   UNL     1      -3.100  -2.072   0.343  0.00  0.00    +0.006 A 
ATOM     24  C   UNL     1      -4.165  -1.514  -0.338  0.00  0.00    +0.008 A 
ATOM     25  C   UNL     1      -5.455  -1.705   0.120  0.00  0.00    +0.001 A 
ATOM     26  C   UNL     1      -5.684  -2.454   1.259  0.00  0.00    +0.004 A 
ATOM     27  C   UNL     1      -4.623  -3.015   1.943  0.00  0.00    +0.046 A 
ATOM     28  C   UNL     1      -3.327  -2.829   1.482  0.00  0.00    +0.121 A 
BRANCH  28  29
ATOM     29  O   UNL     1      -2.281  -3.384   2.150  0.00  0.00    -0.506 OA
ATOM     30  H   UNL     1      -1.910  -2.818   2.840  0.00  0.00    +0.292 HD
ENDBRANCH  28  29
ENDBRANCH  22  23
BRANCH  22  31
ATOM     31  C   UNL     1      -1.378  -0.390  -0.169  0.00  0.00    +0.143 C 
ATOM     32  O   UNL     1      -2.262   0.415  -0.343  0.00  0.00    -0.297 OA
BRANCH  31  34
ATOM     33  C   UNL     1       0.064   1.607   0.119  0.00  0.00    +0.012 C 
ATOM     34  C   UNL     1       0.039   0.079   0.035  0.00  0.00    +0.071 C 
ENDBRANCH  31  34
ENDBRANCH  22  31
ENDBRANCH   1  22
TORSDOF 10
