REMARK  Name = ZINC40742465
REMARK  14 active torsions:
REMARK  status: ('A' for Active; 'I' for Inactive)
REMARK    1  A    between atoms: C_1  and  C_2
REMARK    2  A    between atoms: C_7  and  C_8
REMARK    3  A    between atoms: C_8  and  O_9
REMARK    4  A    between atoms: O_9  and  C_10
REMARK    5  A    between atoms: C_11  and  O_34
REMARK    6  A    between atoms: C_13  and  C_17
REMARK    7  A    between atoms: C_17  and  N_18
REMARK    8  A    between atoms: N_18  and  C_19
REMARK    9  A    between atoms: C_19  and  C_20
REMARK   10  A    between atoms: C_20  and  C_21
REMARK   11  A    between atoms: C_21  and  S_22
REMARK   12  A    between atoms: S_22  and  C_23
REMARK   13  A    between atoms: N_27  and  C_28
REMARK   14  A    between atoms: O_34  and  C_35
REMARK                            x       y       z     vdW  Elec       q    Type
REMARK                         _______ _______ _______ _____ _____    ______ ____
ROOT
ATOM      1  C   UNL     1       0.065   1.236   8.807  0.00  0.00    -0.047 C 
ENDROOT
BRANCH   1   5
ATOM      2  C   UNL     1       0.053  -0.376   4.845  0.00  0.00    +0.181 A 
ATOM      3  C   UNL     1       1.260  -0.092   5.477  0.00  0.00    +0.163 A 
ATOM      4  C   UNL     1       1.260   0.431   6.760  0.00  0.00    +0.051 A 
ATOM      5  C   UNL     1       0.063   0.668   7.411  0.00  0.00    -0.059 A 
ATOM      6  C   UNL     1      -1.136   0.385   6.784  0.00  0.00    +0.025 A 
ATOM      7  C   UNL     1      -1.144  -0.131   5.500  0.00  0.00    +0.086 A 
ATOM      8 CL   UNL     1      -2.651  -0.477   4.712  0.00  0.00    -0.080 Cl
BRANCH   3   9
ATOM      9  O   UNL     1       2.436  -0.326   4.837  0.00  0.00    -0.491 OA
ATOM     10  C   UNL     1       3.635  -0.010   5.547  0.00  0.00    +0.277 C 
ENDBRANCH   3   9
BRANCH   2  11
ATOM     11  O   UNL     1       0.048  -0.889   3.585  0.00  0.00    -0.482 OA
BRANCH  11  12
ATOM     12  C   UNL     1       0.025   0.045   2.504  0.00  0.00    +0.265 C 
BRANCH  12  19
ATOM     13  C   UNL     1      -0.018   1.503   0.010  0.00  0.00    +0.044 C 
ATOM     14  C   UNL     1       0.002  -0.004   0.002  0.00  0.00    -0.044 A 
ATOM     15  C   UNL     1       0.006  -0.689  -1.199  0.00  0.00    +0.004 A 
ATOM     16  C   UNL     1       0.025  -2.071  -1.207  0.00  0.00    +0.000 A 
ATOM     17  C   UNL     1       0.040  -2.768  -0.013  0.00  0.00    +0.000 A 
ATOM     18  C   UNL     1       0.037  -2.084   1.188  0.00  0.00    +0.007 A 
ATOM     19  C   UNL     1       0.023  -0.702   1.195  0.00  0.00    -0.007 A 
ENDBRANCH  12  19
ENDBRANCH  11  12
ENDBRANCH   2  11
ENDBRANCH   1   5
BRANCH   1  20
ATOM     20  N   UNL     1       0.037   2.703   8.739  0.00  0.00    +0.382 N 
ATOM     21  H   UNL     1       0.850   3.033   8.240  0.00  0.00    -0.085 HD
ATOM     22  H   UNL     1      -0.797   3.001   8.256  0.00  0.00    -0.085 HD
BRANCH  20  23
ATOM     23  C   UNL     1       0.040   3.257  10.099  0.00  0.00    -0.081 C 
BRANCH  23  24
ATOM     24  C   UNL     1       0.010   4.785  10.028  0.00  0.00    -0.008 C 
BRANCH  24  25
ATOM     25  C   UNL     1       0.013   5.361  11.445  0.00  0.00    +0.075 C 
BRANCH  25  26
ATOM     26  S   UNL     1      -0.022   7.173  11.361  0.00  0.00    -0.084 S 
BRANCH  26  27
ATOM     27  C   UNL     1      -0.016   7.678  13.049  0.00  0.00    +0.214 A 
ATOM     28  N   UNL     1       0.015   6.890  14.102  0.00  0.00    -0.101 NA
ATOM     29  N   UNL     1       0.011   7.582  15.183  0.00  0.00    -0.022 NA
ATOM     30  N   UNL     1      -0.022   8.841  14.911  0.00  0.00    -0.038 NA
ATOM     31  N   UNL     1      -0.035   8.955  13.509  0.00  0.00    -0.187 N 
BRANCH  31  32
ATOM     32  C   UNL     1      -0.065  10.133  12.750  0.00  0.00    +0.070 A 
ATOM     33  C   UNL     1       0.607  10.197  11.537  0.00  0.00    +0.028 A 
ATOM     34  C   UNL     1       0.575  11.359  10.791  0.00  0.00    +0.002 A 
ATOM     35  C   UNL     1      -0.124  12.459  11.252  0.00  0.00    +0.000 A 
ATOM     36  C   UNL     1      -0.794  12.399  12.460  0.00  0.00    +0.002 A 
ATOM     37  C   UNL     1      -0.771  11.238  13.208  0.00  0.00    +0.028 A 
ENDBRANCH  31  32
ENDBRANCH  26  27
ENDBRANCH  25  26
ENDBRANCH  24  25
ENDBRANCH  23  24
ENDBRANCH  20  23
ENDBRANCH   1  20
TORSDOF 12
