REMARK  Name = ZINC12150861
REMARK  5 active torsions:
REMARK  status: ('A' for Active; 'I' for Inactive)
REMARK    1  A    between atoms: C_1  and  O_2
REMARK    2  A    between atoms: O_2  and  C_3
REMARK    3  A    between atoms: C_10  and  C_22
REMARK    4  A    between atoms: N_14  and  C_15
REMARK    5  A    between atoms: C_15  and  C_16
REMARK                            x       y       z     vdW  Elec       q    Type
REMARK                         _______ _______ _______ _____ _____    ______ ____
ROOT
ATOM      1  C   UNL     1      -0.718   5.761  -1.269  0.00  0.00    +0.121 A 
ATOM      2  C   UNL     1       0.211   5.066  -0.509  0.00  0.00    +0.047 A 
ATOM      3  C   UNL     1       0.206   3.684  -0.480  0.00  0.00    +0.028 A 
ATOM      4  C   UNL     1      -0.741   2.982  -1.219  0.00  0.00    +0.044 A 
ATOM      5  C   UNL     1      -1.668   3.682  -1.967  0.00  0.00    +0.033 A 
ATOM      6  C   UNL     1      -1.667   5.064  -2.006  0.00  0.00    +0.062 A 
ATOM      7  S   UNL     1      -2.882   2.760  -2.879  0.00  0.00    -0.115 S 
ATOM      8  C   UNL     1      -1.849   1.894  -4.106  0.00  0.00    +0.084 C 
ATOM      9  C   UNL     1      -1.174   0.705  -3.449  0.00  0.00    +0.038 C 
ATOM     10  C   UNL     1      -0.124   1.033  -2.410  0.00  0.00    +0.107 C 
ATOM     11  N   UNL     1      -0.723   1.572  -1.182  0.00  0.00    -0.323 N 
ENDROOT
BRANCH   8  12
ATOM     12  C   UNL     1      -2.715   1.415  -5.243  0.00  0.00    -0.012 A 
ATOM     13  C   UNL     1      -4.061   1.179  -5.033  0.00  0.00    +0.055 A 
ATOM     14  C   UNL     1      -4.859   0.743  -6.078  0.00  0.00    +0.167 A 
ATOM     15  C   UNL     1      -4.301   0.534  -7.337  0.00  0.00    +0.168 A 
ATOM     16  C   UNL     1      -2.951   0.768  -7.540  0.00  0.00    +0.069 A 
ATOM     17  C   UNL     1      -2.160   1.208  -6.493  0.00  0.00    +0.049 A 
ATOM     18 CL   UNL     1      -0.468   1.500  -6.750  0.00  0.00    -0.083 Cl
ATOM     19  O   UNL     1      -5.283   0.105  -8.183  0.00  0.00    -0.453 OA
ATOM     20  C   UNL     1      -6.524   0.444  -7.537  0.00  0.00    +0.466 C 
ATOM     21  O   UNL     1      -6.191   0.444  -6.136  0.00  0.00    -0.453 OA
ENDBRANCH   8  12
BRANCH   1  23
ATOM     22  C   UNL     1       0.305   7.769  -0.510  0.00  0.00    +0.277 C 
ATOM     23  O   UNL     1      -0.700   7.120  -1.292  0.00  0.00    -0.495 OA
ENDBRANCH   1  23
BRANCH  11  24
ATOM     24  C   UNL     1      -0.013   1.086   0.008  0.00  0.00    +0.162 C 
BRANCH  24  25
ATOM     25  C   UNL     1      -0.341  -0.368   0.229  0.00  0.00    +0.080 A 
ATOM     26  C   UNL     1       0.414  -1.457  -0.221  0.00  0.00    +0.045 A 
ATOM     27  C   UNL     1      -0.208  -2.589   0.181  0.00  0.00    +0.105 A 
ATOM     28  N   UNL     1      -1.322  -2.230   0.853  0.00  0.00    -0.284 N 
ATOM     29  H   UNL     1      -1.986  -2.853   1.266  0.00  0.00    +0.188 HD
ATOM     30  N   UNL     1      -1.383  -0.831   0.870  0.00  0.00    -0.177 NA
ENDBRANCH  24  25
ENDBRANCH  11  24
TORSDOF 4
