REMARK  Name = ZINC14459259
REMARK  7 active torsions:
REMARK  status: ('A' for Active; 'I' for Inactive)
REMARK    1  A    between atoms: C_1  and  O_2
REMARK    2  A    between atoms: O_2  and  C_3
REMARK    3  A    between atoms: C_5  and  C_10
REMARK    4  A    between atoms: C_8  and  O_9
REMARK    5  A    between atoms: C_21  and  O_26
REMARK    6  A    between atoms: O_26  and  C_27
REMARK    7  A    between atoms: C_27  and  C_28
REMARK                            x       y       z     vdW  Elec       q    Type
REMARK                         _______ _______ _______ _____ _____    ______ ____
ROOT
ATOM      1  C   UNL     1      -2.513   0.975   0.019  0.00  0.00    +0.105 C 
ATOM      2  C   UNL     1      -2.857   0.526  -1.390  0.00  0.00    +0.029 C 
ATOM      3  C   UNL     1      -2.898   1.607  -2.479  0.00  0.00    +0.033 C 
ATOM      4  C   UNL     1      -2.515   0.804  -3.724  0.00  0.00    -0.030 C 
ATOM      5  C   UNL     1      -1.790  -0.253  -3.377  0.00  0.00    -0.023 C 
ATOM      6  C   UNL     1      -1.597  -0.234  -1.904  0.00  0.00    +0.049 C 
ATOM      7  C   UNL     1      -1.466  -1.479  -1.117  0.00  0.00    -0.016 A 
ATOM      8  C   UNL     1      -0.977  -2.648  -1.660  0.00  0.00    +0.051 A 
ATOM      9  C   UNL     1      -0.839  -3.781  -0.873  0.00  0.00    +0.121 A 
ATOM     10  C   UNL     1      -1.197  -3.738   0.467  0.00  0.00    +0.047 A 
ATOM     11  C   UNL     1      -1.694  -2.573   1.014  0.00  0.00    +0.027 A 
ATOM     12  C   UNL     1      -1.840  -1.435   0.230  0.00  0.00    +0.032 A 
ATOM     13  N   UNL     1      -2.363  -0.268   0.807  0.00  0.00    -0.336 N 
ATOM     14  H   UNL     1      -2.631  -0.276   1.739  0.00  0.00    +0.147 HD
ENDROOT
BRANCH   1  17
ATOM     15  C   UNL     1      -0.049   3.832  -0.174  0.00  0.00    +0.162 A 
ATOM     16  C   UNL     1      -1.237   3.119  -0.166  0.00  0.00    +0.054 A 
ATOM     17  C   UNL     1      -1.220   1.749   0.017  0.00  0.00    -0.023 A 
ATOM     18  C   UNL     1      -0.020   1.089   0.205  0.00  0.00    +0.009 A 
ATOM     19  C   UNL     1       1.169   1.794   0.198  0.00  0.00    +0.049 A 
ATOM     20  C   UNL     1       1.159   3.166   0.009  0.00  0.00    +0.158 A 
BRANCH  15  22
ATOM     21  C   UNL     1      -1.340   5.795  -0.542  0.00  0.00    +0.277 C 
ATOM     22  O   UNL     1      -0.063   5.179  -0.360  0.00  0.00    -0.491 OA
ENDBRANCH  15  22
BRANCH  20  23
ATOM     23  O   UNL     1       2.328   3.862   0.003  0.00  0.00    -0.503 OA
ATOM     24  H   UNL     1       2.733   3.943  -0.872  0.00  0.00    +0.292 HD
ENDBRANCH  20  23
ENDBRANCH   1  17
BRANCH   9  25
ATOM     25  O   UNL     1      -0.355  -4.931  -1.413  0.00  0.00    -0.487 OA
BRANCH  25  26
ATOM     26  C   UNL     1      -0.241  -6.059  -0.542  0.00  0.00    +0.264 C 
BRANCH  26  27
ATOM     27  C   UNL     1       0.309  -7.233  -1.310  0.00  0.00    -0.010 A 
ATOM     28  C   UNL     1      -0.552  -8.109  -1.944  0.00  0.00    +0.007 A 
ATOM     29  C   UNL     1      -0.048  -9.183  -2.652  0.00  0.00    +0.000 A 
ATOM     30  C   UNL     1       1.318  -9.388  -2.718  0.00  0.00    +0.000 A 
ATOM     31  C   UNL     1       2.179  -8.515  -2.080  0.00  0.00    +0.000 A 
ATOM     32  C   UNL     1       1.675  -7.438  -1.376  0.00  0.00    +0.007 A 
ENDBRANCH  26  27
ENDBRANCH  25  26
ENDBRANCH   9  25
TORSDOF 6
