REMARK  Name = ZINC02737028
REMARK  8 active torsions:
REMARK  status: ('A' for Active; 'I' for Inactive)
REMARK    1  A    between atoms: C_1  and  C_2
REMARK    2  A    between atoms: C_2  and  C_3
REMARK    3  A    between atoms: C_3  and  O_4
REMARK    4  A    between atoms: O_4  and  C_5
REMARK    5  A    between atoms: C_5  and  C_7
REMARK    6  A    between atoms: C_11  and  N_12
REMARK    7  A    between atoms: C_13  and  C_15
REMARK    8  A    between atoms: C_27  and  C_31
REMARK                            x       y       z     vdW  Elec       q    Type
REMARK                         _______ _______ _______ _____ _____    ______ ____
ROOT
ATOM      1  C   UNL     1      -1.248  -2.096   0.003  0.00  0.00    +0.091 A 
ATOM      2  C   UNL     1      -1.289  -2.843  -1.244  0.00  0.00    -0.021 A 
ATOM      3  C   UNL     1      -1.339  -4.185  -1.108  0.00  0.00    -0.004 A 
ATOM      4  S   UNL     1      -1.333  -4.465   0.640  0.00  0.00    -0.077 S 
ATOM      5  C   UNL     1      -1.259  -2.822   1.186  0.00  0.00    +0.087 A 
ATOM      6  C   UNL     1      -1.388  -5.203  -2.206  0.00  0.00    +0.046 C 
ATOM      7  C   UNL     1      -0.995  -4.514  -3.521  0.00  0.00    -0.009 C 
ATOM      8  C   UNL     1      -1.784  -3.208  -3.648  0.00  0.00    +0.008 C 
ATOM      9  C   UNL     1      -1.279  -2.193  -2.622  0.00  0.00    +0.037 C 
ATOM     10  C   UNL     1      -1.328  -5.431  -4.700  0.00  0.00    +0.008 C 
ENDROOT
BRANCH   5  11
ATOM     11  N   UNL     1      -1.222  -2.349   2.487  0.00  0.00    -0.275 N 
ATOM     12  C   UNL     1      -1.240  -3.215   3.520  0.00  0.00    +0.254 C 
ATOM     13  O   UNL     1      -1.289  -4.412   3.310  0.00  0.00    -0.270 OA
ATOM     14  H   UNL     1      -1.178  -1.267   2.678  0.00  0.00    +0.156 HD
BRANCH  12  15
ATOM     15  C   UNL     1      -1.201  -2.711   4.905  0.00  0.00    +0.113 A 
ATOM     16  C   UNL     1      -2.392  -2.419   5.581  0.00  0.00    +0.176 A 
ATOM     17  C   UNL     1      -2.348  -1.952   6.881  0.00  0.00    +0.197 A 
ATOM     18  C   UNL     1      -1.127  -1.762   7.512  0.00  0.00    +0.199 A 
ATOM     19  C   UNL     1       0.057  -2.043   6.846  0.00  0.00    +0.197 A 
ATOM     20  C   UNL     1       0.027  -2.517   5.548  0.00  0.00    +0.176 A 
ATOM     21  F   UNL     1       1.181  -2.791   4.901  0.00  0.00    -0.201 F 
ATOM     22  F   UNL     1       1.241  -1.856   7.468  0.00  0.00    -0.199 F 
ATOM     23  F   UNL     1      -1.091  -1.300   8.781  0.00  0.00    -0.199 F 
ATOM     24  F   UNL     1      -3.496  -1.675   7.537  0.00  0.00    -0.199 F 
ATOM     25  F   UNL     1      -3.581  -2.598   4.965  0.00  0.00    -0.201 F 
ENDBRANCH  12  15
ENDBRANCH   5  11
BRANCH   1  26
ATOM     26  C   UNL     1      -1.191  -0.633   0.010  0.00  0.00    +0.342 C 
ATOM     27  O   UNL     1      -2.220   0.016   0.023  0.00  0.00    -0.245 OA
BRANCH  26  28
ATOM     28  O   UNL     1       0.002  -0.004   0.002  0.00  0.00    -0.461 OA
BRANCH  28  29
ATOM     29  C   UNL     1      -0.018   1.448   0.010  0.00  0.00    +0.232 C 
BRANCH  29  31
ATOM     30  C   UNL     1       1.397   3.507   0.008  0.00  0.00    +0.007 C 
ATOM     31  C   UNL     1       1.418   1.977  -0.001  0.00  0.00    +0.038 C 
ENDBRANCH  29  31
ENDBRANCH  28  29
ENDBRANCH  26  28
ENDBRANCH   1  26
TORSDOF 6
