REMARK  Name = ZINC40943101
REMARK  14 active torsions:
REMARK  status: ('A' for Active; 'I' for Inactive)
REMARK    1  A    between atoms: C_1  and  C_2
REMARK    2  A    between atoms: C_4  and  O_12
REMARK    3  A    between atoms: C_5  and  C_9
REMARK    4  A    between atoms: C_9  and  C_10
REMARK    5  A    between atoms: C_9  and  C_11
REMARK    6  A    between atoms: O_12  and  C_13
REMARK    7  A    between atoms: C_13  and  C_14
REMARK    8  A    between atoms: N_16  and  C_17
REMARK    9  A    between atoms: C_18  and  C_30
REMARK   10  A    between atoms: C_24  and  C_26
REMARK   11  A    between atoms: C_26  and  O_28
REMARK   12  A    between atoms: O_28  and  C_29
REMARK   13  A    between atoms: C_30  and  O_32
REMARK   14  A    between atoms: O_32  and  C_33
REMARK                            x       y       z     vdW  Elec       q    Type
REMARK                         _______ _______ _______ _____ _____    ______ ____
ROOT
ATOM      1  C   UNL     1       0.018  -2.879  -4.780  0.00  0.00    +0.255 C 
ATOM      2  O   UNL     1       0.035  -4.082  -4.626  0.00  0.00    -0.272 OA
ATOM      3  N   UNL     1       0.004  -2.358  -6.023  0.00  0.00    -0.277 N 
ATOM      4  H   UNL     1      -0.010  -1.396  -6.146  0.00  0.00    +0.155 HD
ENDROOT
BRANCH   3   5
ATOM      5  C   UNL     1       0.010  -3.198  -7.126  0.00  0.00    +0.086 A 
ATOM      6  C   UNL     1       0.004  -2.845  -8.464  0.00  0.00    +0.092 A 
ATOM      7  C   UNL     1       0.012  -3.932  -9.442  0.00  0.00    -0.008 A 
ATOM      8  C   UNL     1       0.024  -5.161  -8.897  0.00  0.00    -0.004 A 
ATOM      9  S   UNL     1       0.034  -4.875  -7.145  0.00  0.00    -0.077 S 
ATOM     10  C   UNL     1       0.028  -6.240  -9.946  0.00  0.00    +0.044 C 
ATOM     11  C   UNL     1      -0.416  -5.526 -11.242  0.00  0.00    +0.024 C 
ATOM     12  C   UNL     1       0.014  -4.072 -10.963  0.00  0.00    +0.130 C 
BRANCH  12  13
ATOM     13  C   UNL     1      -0.971  -3.110 -11.576  0.00  0.00    +0.314 C 
ATOM     14  O   UNL     1      -1.619  -2.376 -10.869  0.00  0.00    -0.250 OA
BRANCH  13  15
ATOM     15  O   UNL     1      -1.127  -3.069 -12.909  0.00  0.00    -0.468 OA
ATOM     16  C   UNL     1      -2.078  -2.133 -13.422  0.00  0.00    +0.280 C 
ENDBRANCH  13  15
ENDBRANCH  12  13
BRANCH   6  17
ATOM     17  C   UNL     1      -0.012  -1.442  -8.882  0.00  0.00    +0.342 C 
ATOM     18  O   UNL     1       1.036  -0.849  -9.059  0.00  0.00    -0.245 OA
BRANCH  17  19
ATOM     19  O   UNL     1      -1.187  -0.808  -9.072  0.00  0.00    -0.464 OA
ATOM     20  C   UNL     1      -1.127   0.560  -9.480  0.00  0.00    +0.280 C 
ENDBRANCH  17  19
ENDBRANCH   6  17
ENDBRANCH   3   5
BRANCH   1  21
ATOM     21  C   UNL     1       0.011  -1.966  -3.581  0.00  0.00    +0.324 C 
BRANCH  21  22
ATOM     22  O   UNL     1       0.028  -2.749  -2.386  0.00  0.00    -0.482 OA
BRANCH  22  26
ATOM     23  C   UNL     1      -0.018   1.503   0.010  0.00  0.00    +0.045 C 
ATOM     24  C   UNL     1       0.002  -0.004   0.002  0.00  0.00    -0.033 A 
ATOM     25  C   UNL     1       0.006  -0.688  -1.199  0.00  0.00    +0.050 A 
ATOM     26  C   UNL     1       0.025  -2.075  -1.206  0.00  0.00    +0.125 A 
ATOM     27  C   UNL     1       0.041  -2.772  -0.006  0.00  0.00    -0.002 A 
ATOM     28  C   UNL     1       0.037  -2.085   1.192  0.00  0.00    +0.023 A 
ATOM     29  C   UNL     1       0.023  -0.702   1.196  0.00  0.00    +0.021 A 
ATOM     30 BR   UNL     1       0.025   0.237   2.838  0.00  0.00    -0.050 Br
BRANCH  27  31
ATOM     31  C   UNL     1       0.061  -4.279  -0.011  0.00  0.00    +0.016 C 
ATOM     32  C   UNL     1       1.321  -4.774   0.702  0.00  0.00    +0.012 C 
ATOM     33  C   UNL     1      -1.177  -4.809   0.715  0.00  0.00    +0.012 C 
ENDBRANCH  27  31
ENDBRANCH  22  26
ENDBRANCH  21  22
ENDBRANCH   1  21
TORSDOF 9
