REMARK  Name = ZINC14003200
REMARK  8 active torsions:
REMARK  status: ('A' for Active; 'I' for Inactive)
REMARK    1  A    between atoms: C_4  and  C_7
REMARK    2  A    between atoms: C_7  and  C_8
REMARK    3  A    between atoms: C_7  and  C_14
REMARK    4  A    between atoms: N_16  and  C_17
REMARK    5  A    between atoms: C_17  and  N_19
REMARK    6  A    between atoms: N_19  and  N_20
REMARK    7  A    between atoms: C_21  and  C_23
REMARK    8  A    between atoms: C_23  and  C_24
REMARK                            x       y       z     vdW  Elec       q    Type
REMARK                         _______ _______ _______ _____ _____    ______ ____
ROOT
ATOM      1  C   UNL     1      -0.722  -0.290   1.292  0.00  0.00    +0.230 C 
ATOM      2  O   UNL     1      -1.798  -0.850   1.273  0.00  0.00    -0.274 OA
ATOM      3  N   UNL     1      -0.175   0.077   2.468  0.00  0.00    -0.266 N 
ATOM      4  H   UNL     1       0.685   0.525   2.483  0.00  0.00    +0.157 HD
ENDROOT
BRANCH   3   5
ATOM      5  C   UNL     1      -0.823  -0.178   3.622  0.00  0.00    +0.153 C 
ATOM      6  S   UNL     1      -2.341  -0.969   3.594  0.00  0.00    -0.017 S 
BRANCH   5   7
ATOM      7  N   UNL     1      -0.275   0.189   4.798  0.00  0.00    -0.246 N 
ATOM      8  H   UNL     1      -0.742   0.005   5.628  0.00  0.00    +0.172 HD
BRANCH   7   9
ATOM      9  N   UNL     1       0.967   0.836   4.820  0.00  0.00    -0.235 N 
ATOM     10  C   UNL     1       1.514   1.203   5.996  0.00  0.00    +0.233 C 
ATOM     11  O   UNL     1       0.931   0.974   7.034  0.00  0.00    -0.274 OA
ATOM     12  H   UNL     1       1.433   1.020   3.990  0.00  0.00    +0.173 HD
BRANCH  10  13
ATOM     13  C   UNL     1       2.851   1.899   6.020  0.00  0.00    +0.132 C 
BRANCH  13  14
ATOM     14  C   UNL     1       3.235   2.199   7.446  0.00  0.00    -0.038 A 
ATOM     15  C   UNL     1       2.865   3.400   8.023  0.00  0.00    +0.005 A 
ATOM     16  C   UNL     1       3.212   3.673   9.333  0.00  0.00    +0.020 A 
ATOM     17  C   UNL     1       3.940   2.750  10.062  0.00  0.00    +0.041 A 
ATOM     18  C   UNL     1       4.315   1.551   9.482  0.00  0.00    +0.020 A 
ATOM     19  C   UNL     1       3.962   1.276   8.174  0.00  0.00    +0.005 A 
ATOM     20 CL   UNL     1       4.382   3.095  11.705  0.00  0.00    -0.084 Cl
ENDBRANCH  13  14
ENDBRANCH  10  13
ENDBRANCH   7   9
ENDBRANCH   5   7
ENDBRANCH   3   5
BRANCH   1  21
ATOM     21  C   UNL     1       0.002  -0.004   0.002  0.00  0.00    +0.135 C 
BRANCH  21  25
ATOM     22  C   UNL     1       0.585   4.208  -0.402  0.00  0.00    +0.000 A 
ATOM     23  C   UNL     1       1.655   3.346  -0.545  0.00  0.00    +0.000 A 
ATOM     24  C   UNL     1       1.467   1.983  -0.414  0.00  0.00    +0.005 A 
ATOM     25  C   UNL     1       0.208   1.482  -0.140  0.00  0.00    -0.031 A 
ATOM     26  C   UNL     1      -0.864   2.344  -0.003  0.00  0.00    +0.005 A 
ATOM     27  C   UNL     1      -0.675   3.708  -0.129  0.00  0.00    +0.000 A 
ENDBRANCH  21  25
BRANCH  21  28
ATOM     28  C   UNL     1      -0.817  -0.511  -1.157  0.00  0.00    -0.031 A 
ATOM     29  C   UNL     1      -2.134  -0.116  -1.298  0.00  0.00    +0.005 A 
ATOM     30  C   UNL     1      -2.884  -0.577  -2.364  0.00  0.00    +0.000 A 
ATOM     31  C   UNL     1      -2.320  -1.442  -3.283  0.00  0.00    +0.000 A 
ATOM     32  C   UNL     1      -1.005  -1.842  -3.138  0.00  0.00    +0.000 A 
ATOM     33  C   UNL     1      -0.253  -1.376  -2.076  0.00  0.00    +0.005 A 
ENDBRANCH  21  28
ENDBRANCH   1  21
TORSDOF 8
