REMARK  Name = ZINC39532181
REMARK  10 active torsions:
REMARK  status: ('A' for Active; 'I' for Inactive)
REMARK    1  A    between atoms: C_1  and  C_2
REMARK    2  A    between atoms: C_2  and  C_3
REMARK    3  A    between atoms: C_6  and  C_9
REMARK    4  A    between atoms: C_9  and  C_11
REMARK    5  A    between atoms: C_9  and  N_20
REMARK    6  A    between atoms: C_11  and  N_12
REMARK    7  A    between atoms: N_12  and  C_13
REMARK    8  A    between atoms: C_18  and  O_19
REMARK    9  A    between atoms: C_24  and  S_27
REMARK   10  A    between atoms: S_27  and  C_28
REMARK                            x       y       z     vdW  Elec       q    Type
REMARK                         _______ _______ _______ _____ _____    ______ ____
ROOT
ATOM      1  C   UNL     1       2.673  -1.882  -4.713  0.00  0.00    -0.020 C 
ENDROOT
BRANCH   1   2
ATOM      2  N   UNL     1       3.701  -2.798  -4.201  0.00  0.00    +0.388 N 
ATOM      3  C   UNL     1       4.576  -3.217  -5.304  0.00  0.00    -0.062 C 
ATOM      4  C   UNL     1       5.658  -4.157  -4.768  0.00  0.00    +0.063 C 
ATOM      5  N   UNL     1       5.024  -5.329  -4.150  0.00  0.00    -0.308 NA
ATOM      6  C   UNL     1       4.126  -4.923  -3.059  0.00  0.00    +0.095 C 
ATOM      7  C   UNL     1       3.056  -3.977  -3.610  0.00  0.00    -0.048 C 
ATOM      8  H   UNL     1       4.531  -5.879  -4.838  0.00  0.00    +0.123 HD
ATOM      9  H   UNL     1       4.250  -2.327  -3.497  0.00  0.00    -0.081 HD
BRANCH   6  10
ATOM     10  S   UNL     1       3.330  -6.391  -2.351  0.00  0.00    -0.147 S 
ATOM     11  C   UNL     1       4.318  -7.774  -2.985  0.00  0.00    +0.086 C 
ENDBRANCH   6  10
ENDBRANCH   1   2
BRANCH   1  15
ATOM     12  C   UNL     1       0.057  -0.758  -1.528  0.00  0.00    -0.048 A 
ATOM     13  C   UNL     1      -0.456  -1.018  -2.785  0.00  0.00    +0.004 A 
ATOM     14  C   UNL     1       0.390  -1.382  -3.816  0.00  0.00    +0.002 A 
ATOM     15  C   UNL     1       1.750  -1.485  -3.589  0.00  0.00    -0.059 A 
ATOM     16  C   UNL     1       2.263  -1.224  -2.333  0.00  0.00    +0.002 A 
ATOM     17  C   UNL     1       1.417  -0.856  -1.303  0.00  0.00    +0.004 A 
BRANCH  12  19
ATOM     18  C   UNL     1      -1.019   1.160  -0.384  0.00  0.00    +0.009 C 
ATOM     19  C   UNL     1      -0.866  -0.362  -0.405  0.00  0.00    +0.032 C 
ENDBRANCH  12  19
ENDBRANCH   1  15
BRANCH   1  20
ATOM     20  C   UNL     1       3.343  -0.633  -5.288  0.00  0.00    +0.091 C 
BRANCH  20  21
ATOM     21  N   UNL     1       2.325   0.243  -5.872  0.00  0.00    -0.342 N 
ATOM     22  H   UNL     1       1.385   0.012  -5.797  0.00  0.00    +0.146 HD
BRANCH  21  23
ATOM     23  C   UNL     1       2.706   1.414  -6.537  0.00  0.00    +0.069 A 
ATOM     24  C   UNL     1       4.049   1.744  -6.649  0.00  0.00    +0.026 A 
ATOM     25  C   UNL     1       4.423   2.901  -7.307  0.00  0.00    +0.002 A 
ATOM     26  C   UNL     1       3.462   3.731  -7.854  0.00  0.00    +0.004 A 
ATOM     27  C   UNL     1       2.122   3.408  -7.746  0.00  0.00    +0.047 A 
ATOM     28  C   UNL     1       1.739   2.248  -7.093  0.00  0.00    +0.138 A 
BRANCH  28  29
ATOM     29  O   UNL     1       0.421   1.927  -6.990  0.00  0.00    -0.505 OA
ATOM     30  H   UNL     1      -0.010   2.283  -6.200  0.00  0.00    +0.292 HD
ENDBRANCH  28  29
ENDBRANCH  21  23
ENDBRANCH  20  21
ENDBRANCH   1  20
TORSDOF 8
