REMARK  Name = ZINC27687303
REMARK  10 active torsions:
REMARK  status: ('A' for Active; 'I' for Inactive)
REMARK    1  A    between atoms: C_1  and  C_2
REMARK    2  A    between atoms: C_2  and  C_3
REMARK    3  A    between atoms: C_3  and  N_4
REMARK    4  A    between atoms: C_6  and  C_14
REMARK    5  A    between atoms: C_14  and  C_15
REMARK    6  A    between atoms: C_15  and  C_16
REMARK    7  A    between atoms: C_16  and  C_18
REMARK    8  A    between atoms: C_16  and  N_19
REMARK    9  A    between atoms: C_20  and  C_22
REMARK   10  A    between atoms: C_22  and  C_27
REMARK                            x       y       z     vdW  Elec       q    Type
REMARK                         _______ _______ _______ _____ _____    ______ ____
ROOT
ATOM      1  C   UNL     1      -0.165   1.122   2.681  0.00  0.00    +0.070 C 
ATOM      2  C   UNL     1      -0.544   1.716   4.039  0.00  0.00    +0.028 C 
ENDROOT
BRANCH   1   3
ATOM      3  N   UNL     1      -0.207  -0.340   2.759  0.00  0.00    -0.312 N 
ATOM      4  C   UNL     1       0.865  -1.022   3.210  0.00  0.00    +0.224 C 
ATOM      5  O   UNL     1       1.828  -0.422   3.640  0.00  0.00    -0.275 OA
ATOM      6  H   UNL     1      -1.113  -0.882   2.448  0.00  0.00    +0.149 HD
BRANCH   4   7
ATOM      7  C   UNL     1       0.866  -2.528   3.181  0.00  0.00    +0.072 C 
ATOM      8  C   UNL     1      -0.349  -3.072   3.954  0.00  0.00    +0.021 C 
ATOM      9  C   UNL     1       0.210  -3.924   5.112  0.00  0.00    +0.001 C 
ATOM     10  C   UNL     1       1.638  -3.367   5.338  0.00  0.00    +0.001 C 
ATOM     11  C   UNL     1       2.121  -3.070   3.897  0.00  0.00    +0.021 C 
BRANCH   7  12
ATOM     12  C   UNL     1       0.833  -3.017   1.756  0.00  0.00    -0.032 A 
ATOM     13  C   UNL     1       0.917  -2.113   0.713  0.00  0.00    +0.004 A 
ATOM     14  C   UNL     1       0.892  -2.562  -0.594  0.00  0.00    +0.000 A 
ATOM     15  C   UNL     1       0.772  -3.913  -0.859  0.00  0.00    +0.000 A 
ATOM     16  C   UNL     1       0.683  -4.816   0.184  0.00  0.00    +0.000 A 
ATOM     17  C   UNL     1       0.714  -4.368   1.491  0.00  0.00    +0.004 A 
ENDBRANCH   7  12
ENDBRANCH   4   7
ENDBRANCH   1   3
BRANCH   1  18
ATOM     18  C   UNL     1      -1.156   1.605   1.620  0.00  0.00    +0.022 C 
BRANCH  18  19
ATOM     19  C   UNL     1      -0.707   1.114   0.242  0.00  0.00    +0.011 C 
BRANCH  19  22
ATOM     20  N   UNL     1      -0.462   2.254  -2.722  0.00  0.00    -0.329 N 
ATOM     21  C   UNL     1      -1.269   1.118  -2.226  0.00  0.00    +0.113 C 
ATOM     22  C   UNL     1      -1.697   1.597  -0.820  0.00  0.00    +0.038 C 
ATOM     23  C   UNL     1      -1.652   3.106  -0.949  0.00  0.00    -0.022 A 
ATOM     24  C   UNL     1      -0.921   3.416  -2.090  0.00  0.00    +0.033 A 
ATOM     25  C   UNL     1      -0.741   4.754  -2.437  0.00  0.00    +0.023 A 
ATOM     26  C   UNL     1      -1.278   5.753  -1.651  0.00  0.00    +0.002 A 
ATOM     27  C   UNL     1      -1.999   5.434  -0.514  0.00  0.00    +0.000 A 
ATOM     28  C   UNL     1      -2.185   4.108  -0.166  0.00  0.00    +0.006 A 
BRANCH  20  29
ATOM     29  C   UNL     1      -0.563   2.374  -4.183  0.00  0.00    +0.105 C 
BRANCH  29  31
ATOM     30  C   UNL     1      -0.133   1.214  -6.353  0.00  0.00    +0.005 C 
ATOM     31  C   UNL     1      -0.154   1.050  -4.832  0.00  0.00    +0.015 C 
ENDBRANCH  29  31
ENDBRANCH  20  29
ENDBRANCH  19  22
ENDBRANCH  18  19
ENDBRANCH   1  18
TORSDOF 8
