REMARK  Name = ZINC09081986
REMARK  11 active torsions:
REMARK  status: ('A' for Active; 'I' for Inactive)
REMARK    1  A    between atoms: C_1  and  C_2
REMARK    2  A    between atoms: C_2  and  C_3
REMARK    3  A    between atoms: C_2  and  C_4
REMARK    4  A    between atoms: C_7  and  S_10
REMARK    5  A    between atoms: S_10  and  C_13
REMARK    6  A    between atoms: C_13  and  C_15
REMARK    7  A    between atoms: C_13  and  C_30
REMARK    8  A    between atoms: C_15  and  N_16
REMARK    9  A    between atoms: N_16  and  S_17
REMARK   10  A    between atoms: S_17  and  C_20
REMARK   11  A    between atoms: C_27  and  O_29
REMARK                            x       y       z     vdW  Elec       q    Type
REMARK                         _______ _______ _______ _____ _____    ______ ____
ROOT
ATOM      1  C   UNL     1       0.025  -0.480   1.752  0.00  0.00    +0.217 C 
ENDROOT
BRANCH   1   2
ATOM      2  C   UNL     1      -1.206   0.058   2.435  0.00  0.00    +0.131 A 
ATOM      3  C   UNL     1      -1.220   0.909   3.476  0.00  0.00    +0.046 A 
ATOM      4  C   UNL     1      -2.578   1.147   3.792  0.00  0.00    +0.041 A 
ATOM      5  C   UNL     1      -3.312   0.420   2.931  0.00  0.00    +0.195 A 
ATOM      6  O   UNL     1      -2.476  -0.238   2.111  0.00  0.00    -0.466 OA
ENDBRANCH   1   2
BRANCH   1   7
ATOM      7  S   UNL     1       0.002  -0.004   0.002  0.00  0.00    +0.008 S 
ATOM      8  O   UNL     1      -1.233  -0.380  -0.591  0.00  0.00    -0.169 OA
ATOM      9  O   UNL     1       1.236  -0.347  -0.615  0.00  0.00    -0.169 OA
BRANCH   7  13
ATOM     10  C   UNL     1      -0.059   4.522   0.026  0.00  0.00    -0.045 A 
ATOM     11  C   UNL     1       1.147   3.847   0.012  0.00  0.00    +0.006 A 
ATOM     12  C   UNL     1       1.166   2.465   0.004  0.00  0.00    +0.027 A 
ATOM     13  C   UNL     1      -0.022   1.758   0.012  0.00  0.00    +0.089 A 
ATOM     14  C   UNL     1      -1.228   2.433   0.021  0.00  0.00    +0.027 A 
ATOM     15  C   UNL     1      -1.247   3.815   0.033  0.00  0.00    +0.006 A 
BRANCH  10  17
ATOM     16  C   UNL     1      -0.819   6.536  -1.204  0.00  0.00    +0.012 C 
ATOM     17  C   UNL     1      -0.080   6.029   0.035  0.00  0.00    +0.013 C 
ATOM     18  C   UNL     1      -0.797   6.522   1.294  0.00  0.00    +0.012 C 
ENDBRANCH  10  17
ENDBRANCH   7  13
ENDBRANCH   1   7
BRANCH   1  19
ATOM     19  C   UNL     1       0.047  -2.005   1.866  0.00  0.00    +0.140 C 
BRANCH  19  20
ATOM     20  N   UNL     1       1.244  -2.527   1.202  0.00  0.00    -0.192 NA
ATOM     21  H   UNL     1       1.752  -1.960   0.602  0.00  0.00    +0.148 HD
BRANCH  20  22
ATOM     22  S   UNL     1       1.730  -4.087   1.477  0.00  0.00    +0.036 S 
ATOM     23  O   UNL     1       2.914  -4.239   0.706  0.00  0.00    -0.158 OA
ATOM     24  O   UNL     1       1.766  -4.211   2.892  0.00  0.00    -0.158 OA
BRANCH  22  25
ATOM     25  C   UNL     1       0.402  -5.116   0.793  0.00  0.00    +0.199 C 
ATOM     26  C   UNL     1       0.289  -4.836  -0.718  0.00  0.00    +0.196 C 
ATOM     27  S   UNL     1       0.432  -6.511  -1.468  0.00  0.00    -0.027 S 
ATOM     28  O   UNL     1      -0.618  -6.694  -2.408  0.00  0.00    -0.174 OA
ATOM     29  O   UNL     1       1.778  -6.732  -1.866  0.00  0.00    -0.174 OA
ATOM     30  C   UNL     1       0.075  -7.509   0.044  0.00  0.00    +0.199 C 
ATOM     31  C   UNL     1       0.698  -6.579   1.122  0.00  0.00    +0.163 C 
BRANCH  31  32
ATOM     32  O   UNL     1       0.144  -6.898   2.400  0.00  0.00    -0.388 OA
ATOM     33  H   UNL     1       0.292  -7.812   2.675  0.00  0.00    +0.210 HD
ENDBRANCH  31  32
ENDBRANCH  22  25
ENDBRANCH  20  22
ENDBRANCH  19  20
ENDBRANCH   1  19
TORSDOF 9
