REMARK  Name = ZINC00644841
REMARK  4 active torsions:
REMARK  status: ('A' for Active; 'I' for Inactive)
REMARK    1  A    between atoms: C_8  and  C_12
REMARK    2  A    between atoms: C_12  and  C_14
REMARK    3  A    between atoms: C_14  and  N_15
REMARK    4  A    between atoms: N_15  and  C_16
REMARK                            x       y       z     vdW  Elec       q    Type
REMARK                         _______ _______ _______ _____ _____    ______ ____
ROOT
ATOM      1  C   UNL     1       4.830   3.972  -0.025  0.00  0.00    +0.187 C 
ATOM      2  O   UNL     1       5.877   3.359  -0.038  0.00  0.00    -0.290 OA
ENDROOT
BRANCH   1  10
ATOM      3  C   UNL     1      -1.250   3.137   0.031  0.00  0.00    +0.001 A 
ATOM      4  C   UNL     1      -1.216   1.749   0.017  0.00  0.00    +0.004 A 
ATOM      5  C   UNL     1      -0.013   1.076   0.008  0.00  0.00    +0.047 A 
ATOM      6  C   UNL     1       1.182   1.787   0.000  0.00  0.00    +0.139 A 
ATOM      7  C   UNL     1       1.145   3.194   0.008  0.00  0.00    +0.018 A 
ATOM      8  C   UNL     1      -0.092   3.858   0.024  0.00  0.00    +0.011 A 
ATOM      9  C   UNL     1       2.352   3.936   0.000  0.00  0.00    +0.030 A 
ATOM     10  C   UNL     1       3.557   3.248  -0.015  0.00  0.00    +0.104 A 
ATOM     11  C   UNL     1       3.532   1.779  -0.023  0.00  0.00    +0.348 A 
ATOM     12  O   UNL     1       4.575   1.153  -0.036  0.00  0.00    -0.244 OA
ATOM     13  O   UNL     1       2.358   1.125  -0.015  0.00  0.00    -0.422 OA
ENDBRANCH   1  10
BRANCH   1  14
ATOM     14  C   UNL     1       4.839   5.479  -0.017  0.00  0.00    +0.181 C 
BRANCH  14  15
ATOM     15  N   UNL     1       6.227   5.960  -0.029  0.00  0.00    -0.334 N 
ATOM     16  H   UNL     1       7.059   5.240  -0.041  0.00  0.00    +0.147 HD
BRANCH  15  17
ATOM     17  C   UNL     1       6.273   7.358  -0.022  0.00  0.00    +0.065 A 
ATOM     18  C   UNL     1       5.690   8.079  -1.057  0.00  0.00    +0.065 A 
ATOM     19  C   UNL     1       5.733   9.460  -1.046  0.00  0.00    +0.042 A 
ATOM     20  C   UNL     1       6.365  10.126  -0.010  0.00  0.00    +0.044 A 
ATOM     21  C   UNL     1       6.952   9.411   1.019  0.00  0.00    +0.042 A 
ATOM     22  C   UNL     1       6.908   8.029   1.016  0.00  0.00    +0.065 A 
ATOM     23 CL   UNL     1       7.643   7.133   2.308  0.00  0.00    -0.082 Cl
ATOM     24 CL   UNL     1       6.423  11.861  -0.002  0.00  0.00    -0.083 Cl
ATOM     25 CL   UNL     1       4.902   7.245  -2.360  0.00  0.00    -0.082 Cl
ENDBRANCH  15  17
ENDBRANCH  14  15
ENDBRANCH   1  14
TORSDOF 4
