REMARK  Name = ZINC02799547
REMARK  10 active torsions:
REMARK  status: ('A' for Active; 'I' for Inactive)
REMARK    1  A    between atoms: C_1  and  C_2
REMARK    2  A    between atoms: C_5  and  C_28
REMARK    3  A    between atoms: C_6  and  N_8
REMARK    4  A    between atoms: N_8  and  C_9
REMARK    5  A    between atoms: C_9  and  N_11
REMARK    6  A    between atoms: N_14  and  C_17
REMARK    7  A    between atoms: C_17  and  N_19
REMARK    8  A    between atoms: N_19  and  C_20
REMARK    9  A    between atoms: C_22  and  C_27
REMARK   10  A    between atoms: C_25  and  C_26
REMARK                            x       y       z     vdW  Elec       q    Type
REMARK                         _______ _______ _______ _____ _____    ______ ____
ROOT
ATOM      1  N   UNL     1       3.330   5.991  -0.054  0.00  0.00    -0.309 N 
ATOM      2  C   UNL     1       4.660   5.395  -0.241  0.00  0.00    +0.125 C 
ATOM      3  C   UNL     1       5.329   6.071  -1.450  0.00  0.00    +0.125 C 
ATOM      4  N   UNL     1       5.222   7.528  -1.290  0.00  0.00    -0.309 N 
ATOM      5  C   UNL     1       3.892   8.124  -1.097  0.00  0.00    +0.125 C 
ATOM      6  C   UNL     1       3.223   7.448   0.106  0.00  0.00    +0.125 C 
ENDROOT
BRANCH   1   7
ATOM      7  C   UNL     1       2.228   5.215  -0.024  0.00  0.00    +0.137 C 
ATOM      8  S   UNL     1       0.677   5.934   0.071  0.00  0.00    -0.018 S 
BRANCH   7   9
ATOM      9  N   UNL     1       2.348   3.873  -0.068  0.00  0.00    -0.297 N 
ATOM     10  H   UNL     1       2.196   3.400  -0.900  0.00  0.00    +0.154 HD
BRANCH   9  16
ATOM     11  C   UNL     1       3.695   3.882   4.660  0.00  0.00    +0.044 C 
ATOM     12  C   UNL     1       3.349   3.142   3.393  0.00  0.00    -0.049 A 
ATOM     13  C   UNL     1       3.366   1.759   3.374  0.00  0.00    +0.004 A 
ATOM     14  C   UNL     1       3.055   1.077   2.213  0.00  0.00    +0.005 A 
ATOM     15  C   UNL     1       2.715   1.775   1.070  0.00  0.00    -0.029 A 
ATOM     16  C   UNL     1       2.692   3.164   1.088  0.00  0.00    +0.036 A 
ATOM     17  C   UNL     1       3.011   3.846   2.255  0.00  0.00    +0.027 A 
ATOM     18  C   UNL     1       2.369   1.031  -0.194  0.00  0.00    +0.045 C 
ENDBRANCH   9  16
ENDBRANCH   7   9
ENDBRANCH   1   7
BRANCH   4  19
ATOM     19  C   UNL     1       6.324   8.305  -1.320  0.00  0.00    +0.137 C 
ATOM     20  S   UNL     1       6.172  10.009  -1.261  0.00  0.00    -0.018 S 
BRANCH  19  21
ATOM     21  N   UNL     1       7.544   7.739  -1.397  0.00  0.00    -0.297 N 
ATOM     22  H   UNL     1       8.090   7.652  -0.600  0.00  0.00    +0.154 HD
BRANCH  21  23
ATOM     23  C   UNL     1       8.025   7.277  -2.627  0.00  0.00    +0.036 A 
ATOM     24  C   UNL     1       7.289   7.489  -3.786  0.00  0.00    +0.027 A 
ATOM     25  C   UNL     1       7.768   7.036  -4.999  0.00  0.00    -0.049 A 
ATOM     26  C   UNL     1       8.975   6.362  -5.059  0.00  0.00    +0.004 A 
ATOM     27  C   UNL     1       9.707   6.145  -3.907  0.00  0.00    +0.005 A 
ATOM     28  C   UNL     1       9.236   6.601  -2.691  0.00  0.00    -0.029 A 
ATOM     29  C   UNL     1      10.035   6.364  -1.436  0.00  0.00    +0.045 C 
ATOM     30  C   UNL     1       6.973   7.270  -6.258  0.00  0.00    +0.044 C 
ENDBRANCH  21  23
ENDBRANCH  19  21
ENDBRANCH   4  19
TORSDOF 6
