REMARK  Name = ZINC35293019
REMARK  12 active torsions:
REMARK  status: ('A' for Active; 'I' for Inactive)
REMARK    1  A    between atoms: C_1  and  C_2
REMARK    2  A    between atoms: C_2  and  C_3
REMARK    3  A    between atoms: C_3  and  C_5
REMARK    4  A    between atoms: C_3  and  N_6
REMARK    5  A    between atoms: C_7  and  C_9
REMARK    6  A    between atoms: C_9  and  S_10
REMARK    7  A    between atoms: S_10  and  C_11
REMARK    8  A    between atoms: C_22  and  C_25
REMARK    9  A    between atoms: N_28  and  C_29
REMARK   10  A    between atoms: C_29  and  C_30
REMARK   11  A    between atoms: C_29  and  C_31
REMARK   12  A    between atoms: C_29  and  C_32
REMARK                            x       y       z     vdW  Elec       q    Type
REMARK                         _______ _______ _______ _____ _____    ______ ____
ROOT
ATOM      1  C   UNL     1      -6.588   0.868  -3.833  0.00  0.00    +0.192 A 
ATOM      2  N   UNL     1      -7.899   1.010  -3.969  0.00  0.00    -0.207 NA
ATOM      3  C   UNL     1      -8.424   1.373  -5.135  0.00  0.00    +0.127 A 
ATOM      4  C   UNL     1      -7.575   1.604  -6.218  0.00  0.00    +0.083 A 
ATOM      5  C   UNL     1      -6.213   1.446  -6.035  0.00  0.00    +0.135 A 
ATOM      6  N   UNL     1      -5.758   1.086  -4.843  0.00  0.00    -0.210 NA
ATOM      7 CL   UNL     1      -5.113   1.721  -7.349  0.00  0.00    -0.062 Cl
ATOM      8  N   UNL     1      -9.795   1.519  -5.273  0.00  0.00    -0.312 N 
ATOM      9  C   UNL     1     -10.691   1.284  -4.132  0.00  0.00    +0.125 C 
ATOM     10  C   UNL     1     -11.736   0.236  -4.537  0.00  0.00    +0.128 C 
ATOM     11  N   UNL     1     -12.320   0.630  -5.827  0.00  0.00    -0.280 N 
ATOM     12  C   UNL     1     -11.424   0.865  -6.968  0.00  0.00    +0.092 C 
ATOM     13  C   UNL     1     -10.379   1.918  -6.561  0.00  0.00    +0.128 C 
ATOM     14  C   UNL     1     -10.725  -0.441  -7.349  0.00  0.00    +0.030 C 
ATOM     15  C   UNL     1     -13.653   0.772  -5.961  0.00  0.00    +0.303 C 
ATOM     16  O   UNL     1     -14.133   1.005  -7.054  0.00  0.00    -0.253 OA
ATOM     17  N   UNL     1     -14.455   0.657  -4.884  0.00  0.00    -0.294 N 
ATOM     18  H   UNL     1     -14.069   0.545  -4.001  0.00  0.00    +0.151 HD
ENDROOT
BRANCH  17  19
ATOM     19  C   UNL     1     -15.911   0.700  -5.046  0.00  0.00    +0.028 C 
ATOM     20  C   UNL     1     -16.356  -0.441  -5.962  0.00  0.00    +0.031 C 
ATOM     21  C   UNL     1     -16.581   0.548  -3.679  0.00  0.00    +0.031 C 
ATOM     22  C   UNL     1     -16.315   2.039  -5.666  0.00  0.00    +0.031 C 
ENDBRANCH  17  19
BRANCH   1  23
ATOM     23  S   UNL     1      -5.934   0.386  -2.270  0.00  0.00    -0.077 S 
BRANCH  23  24
ATOM     24  C   UNL     1      -4.141   0.328  -2.544  0.00  0.00    +0.173 C 
BRANCH  24  26
ATOM     25  N   UNL     1      -2.108  -0.188  -1.234  0.00  0.00    -0.312 N 
ATOM     26  C   UNL     1      -3.451  -0.078  -1.268  0.00  0.00    +0.224 C 
ATOM     27  O   UNL     1      -4.104  -0.305  -0.271  0.00  0.00    -0.275 OA
ATOM     28  H   UNL     1      -1.586  -0.006  -2.030  0.00  0.00    +0.149 HD
BRANCH  25  29
ATOM     29  C   UNL     1      -1.437  -0.582   0.007  0.00  0.00    +0.070 C 
ATOM     30  C   UNL     1      -1.418  -2.108   0.114  0.00  0.00    +0.028 C 
BRANCH  29  32
ATOM     31  C   UNL     1      -0.021   1.476   0.020  0.00  0.00    +0.005 C 
ATOM     32  C   UNL     1      -0.001  -0.053   0.001  0.00  0.00    +0.018 C 
ENDBRANCH  29  32
ENDBRANCH  25  29
ENDBRANCH  24  26
ENDBRANCH  23  24
ENDBRANCH   1  23
TORSDOF 6
