REMARK  Name = ZINC37087189
REMARK  7 active torsions:
REMARK  status: ('A' for Active; 'I' for Inactive)
REMARK    1  A    between atoms: C_1  and  C_2
REMARK    2  A    between atoms: C_5  and  C_9
REMARK    3  A    between atoms: C_6  and  O_8
REMARK    4  A    between atoms: C_9  and  C_11
REMARK    5  A    between atoms: C_9  and  N_12
REMARK    6  A    between atoms: N_12  and  C_13
REMARK    7  A    between atoms: N_22  and  C_23
REMARK                            x       y       z     vdW  Elec       q    Type
REMARK                         _______ _______ _______ _____ _____    ______ ____
ROOT
ATOM      1  N   UNL     1       0.670  -4.662  -1.220  0.00  0.00    +0.388 N 
ATOM      2  H   UNL     1       0.314  -4.232  -2.061  0.00  0.00    -0.084 HD
ATOM      3  H   UNL     1       1.647  -4.434  -1.114  0.00  0.00    -0.084 HD
ENDROOT
BRANCH   1   4
ATOM      4  C   UNL     1       0.516  -6.120  -1.313  0.00  0.00    -0.037 C 
ATOM      5  C   UNL     1       1.202  -6.790  -0.116  0.00  0.00    -0.011 C 
ATOM      6  C   UNL     1       1.266  -8.302  -0.343  0.00  0.00    +0.005 C 
ATOM      7  C   UNL     1       2.270  -8.610  -1.461  0.00  0.00    +0.055 C 
ATOM      8  C   UNL     1       1.952  -7.728  -2.642  0.00  0.00    +0.040 A 
ATOM      9  C   UNL     1       1.169  -6.620  -2.578  0.00  0.00    -0.021 A 
ATOM     10  C   UNL     1       1.098  -6.068  -3.854  0.00  0.00    +0.136 A 
ATOM     11  N   UNL     1       1.812  -6.814  -4.661  0.00  0.00    -0.179 NA
ATOM     12  N   UNL     1       2.362  -7.868  -3.914  0.00  0.00    -0.271 N 
ATOM     13  C   UNL     1       3.228  -8.932  -4.429  0.00  0.00    +0.172 C 
ENDBRANCH   1   4
BRANCH   1  14
ATOM     14  C   UNL     1      -0.079  -4.164  -0.059  0.00  0.00    -0.040 C 
ATOM     15  C   UNL     1      -1.577  -4.379  -0.288  0.00  0.00    -0.009 C 
BRANCH  14  20
ATOM     16  C   UNL     1       0.973   1.480   0.631  0.00  0.00    +0.044 C 
ATOM     17  C   UNL     1       0.698   0.009   0.454  0.00  0.00    -0.047 A 
ATOM     18  C   UNL     1       0.837  -0.575  -0.792  0.00  0.00    +0.004 A 
ATOM     19  C   UNL     1       0.586  -1.924  -0.958  0.00  0.00    +0.006 A 
ATOM     20  C   UNL     1       0.195  -2.693   0.122  0.00  0.00    -0.020 A 
ATOM     21  C   UNL     1       0.056  -2.110   1.373  0.00  0.00    +0.119 A 
ATOM     22  C   UNL     1       0.314  -0.757   1.538  0.00  0.00    +0.049 A 
BRANCH  21  23
ATOM     23  O   UNL     1      -0.328  -2.864   2.436  0.00  0.00    -0.507 OA
ATOM     24  H   UNL     1       0.407  -3.262   2.922  0.00  0.00    +0.292 HD
ENDBRANCH  21  23
ENDBRANCH  14  20
ENDBRANCH   1  14
TORSDOF 4
