REMARK  Name = ZINC48990055
REMARK  2 active torsions:
REMARK  status: ('A' for Active; 'I' for Inactive)
REMARK    1  A    between atoms: C_6  and  C_7
REMARK    2  A    between atoms: N_21  and  C_24
REMARK                            x       y       z     vdW  Elec       q    Type
REMARK                         _______ _______ _______ _____ _____    ______ ____
ROOT
ATOM      1  C   UNL     1      -4.281  -4.261  -1.040  0.00  0.00    +0.015 A 
ATOM      2  C   UNL     1      -4.982  -3.670  -0.039  0.00  0.00    +0.056 A 
ATOM      3  S   UNL     1      -4.108  -2.293   0.357  0.00  0.00    -0.089 S 
ATOM      4  C   UNL     1      -2.769  -2.439  -0.792  0.00  0.00    +0.103 A 
ATOM      5  C   UNL     1      -3.053  -3.625  -1.487  0.00  0.00    +0.094 A 
ATOM      6  N   UNL     1      -2.170  -3.999  -2.452  0.00  0.00    -0.215 NA
ATOM      7  C   UNL     1      -1.104  -3.290  -2.718  0.00  0.00    +0.199 A 
ATOM      8  N   UNL     1      -0.801  -2.136  -2.056  0.00  0.00    -0.294 N 
ATOM      9  H   UNL     1      -0.000  -1.639  -2.283  0.00  0.00    +0.172 HD
ATOM     10  C   UNL     1      -1.632  -1.687  -1.086  0.00  0.00    +0.267 A 
ATOM     11  O   UNL     1      -1.386  -0.659  -0.476  0.00  0.00    -0.267 OA
ATOM     12  N   UNL     1      -0.254  -3.726  -3.705  0.00  0.00    -0.305 N 
ATOM     13  C   UNL     1      -0.595  -4.890  -4.538  0.00  0.00    +0.089 C 
ATOM     14  C   UNL     1       0.598  -5.852  -4.540  0.00  0.00    -0.059 C 
ATOM     15  N   UNL     1       1.804  -5.133  -4.968  0.00  0.00    +0.384 N 
ATOM     16  C   UNL     1       2.139  -4.090  -3.990  0.00  0.00    -0.059 C 
ATOM     17  C   UNL     1       1.020  -3.038  -3.964  0.00  0.00    +0.089 C 
ATOM     18  H   UNL     1       1.639  -4.707  -5.868  0.00  0.00    -0.081 HD
ENDROOT
BRANCH   1  24
ATOM     19  C   UNL     1      -5.114  -6.603  -0.853  0.00  0.00    +0.009 A 
ATOM     20  C   UNL     1      -5.552  -7.776  -1.433  0.00  0.00    +0.016 A 
ATOM     21  C   UNL     1      -5.634  -7.882  -2.810  0.00  0.00    +0.018 A 
ATOM     22  C   UNL     1      -5.277  -6.813  -3.614  0.00  0.00    +0.016 A 
ATOM     23  C   UNL     1      -4.837  -5.635  -3.045  0.00  0.00    +0.009 A 
ATOM     24  C   UNL     1      -4.753  -5.523  -1.657  0.00  0.00    -0.015 A 
ATOM     25 BR   UNL     1      -6.236  -9.492  -3.597  0.00  0.00    -0.050 Br
ENDBRANCH   1  24
BRANCH  15  26
ATOM     26  C   UNL     1       2.924  -6.078  -5.075  0.00  0.00    -0.068 C 
ATOM     27  C   UNL     1       4.182  -5.331  -5.521  0.00  0.00    -0.015 C 
ATOM     28  C   UNL     1       5.347  -6.316  -5.633  0.00  0.00    -0.002 C 
ATOM     29  C   UNL     1       5.005  -7.397  -6.660  0.00  0.00    -0.000 C 
ATOM     30  C   UNL     1       3.747  -8.144  -6.214  0.00  0.00    -0.002 C 
ATOM     31  C   UNL     1       2.581  -7.159  -6.102  0.00  0.00    -0.015 C 
ENDBRANCH  15  26
TORSDOF 2
