REMARK  Name = ZINC21816207
REMARK  5 active torsions:
REMARK  status: ('A' for Active; 'I' for Inactive)
REMARK    1  A    between atoms: C_1  and  C_2
REMARK    2  A    between atoms: C_4  and  N_18
REMARK    3  A    between atoms: C_5  and  S_9
REMARK    4  A    between atoms: C_7  and  C_8
REMARK    5  A    between atoms: S_9  and  N_12
REMARK                            x       y       z     vdW  Elec       q    Type
REMARK                         _______ _______ _______ _____ _____    ______ ____
ROOT
ATOM      1  C   UNL     1      -3.974   4.513   6.878  0.00  0.00    +0.044 C 
ATOM      2  C   UNL     1      -3.007   4.333   5.736  0.00  0.00    -0.046 A 
ATOM      3  C   UNL     1      -3.296   4.868   4.496  0.00  0.00    +0.028 A 
ATOM      4  C   UNL     1      -2.402   4.706   3.446  0.00  0.00    +0.051 A 
ATOM      5  C   UNL     1      -1.224   3.996   3.644  0.00  0.00    +0.126 A 
ATOM      6  C   UNL     1      -0.940   3.465   4.887  0.00  0.00    +0.034 A 
ATOM      7  C   UNL     1      -1.831   3.633   5.932  0.00  0.00    -0.046 A 
ATOM      8  C   UNL     1      -1.519   3.051   7.286  0.00  0.00    +0.044 C 
ENDROOT
BRANCH   5   9
ATOM      9  S   UNL     1      -0.089   3.782   2.314  0.00  0.00    +0.063 S 
ATOM     10  O   UNL     1       0.657   4.988   2.217  0.00  0.00    -0.153 OA
ATOM     11  O   UNL     1      -0.835   3.258   1.224  0.00  0.00    -0.153 OA
BRANCH   9  12
ATOM     12  N   UNL     1       0.979   2.600   2.767  0.00  0.00    -0.175 NA
ATOM     13  C   UNL     1       2.267   2.979   3.351  0.00  0.00    +0.120 C 
ATOM     14  C   UNL     1       3.399   2.560   2.407  0.00  0.00    +0.086 C 
ATOM     15  S   UNL     1       3.277   0.772   2.103  0.00  0.00    -0.158 S 
ATOM     16  C   UNL     1       1.561   0.565   1.539  0.00  0.00    +0.086 C 
ATOM     17  C   UNL     1       0.624   1.193   2.577  0.00  0.00    +0.120 C 
ENDBRANCH   9  12
ENDBRANCH   5   9
BRANCH   4  18
ATOM     18  N   UNL     1      -2.689   5.249   2.192  0.00  0.00    -0.356 N 
ATOM     19  H   UNL     1      -1.979   5.120   1.361  0.00  0.00    +0.142 HD
ATOM     20  H   UNL     1      -3.624   5.807   2.035  0.00  0.00    +0.142 HD
ENDBRANCH   4  18
TORSDOF 3
