REMARK  Name = ZINC10129677
REMARK  9 active torsions:
REMARK  status: ('A' for Active; 'I' for Inactive)
REMARK    1  A    between atoms: C_1  and  N_2
REMARK    2  A    between atoms: N_2  and  C_3
REMARK    3  A    between atoms: N_2  and  C_4
REMARK    4  A    between atoms: C_7  and  C_10
REMARK    5  A    between atoms: C_10  and  C_12
REMARK    6  A    between atoms: C_10  and  N_63
REMARK    7  A    between atoms: C_12  and  N_13
REMARK    8  A    between atoms: C_14  and  C_16
REMARK    9  A    between atoms: N_18  and  C_19
REMARK                            x       y       z     vdW  Elec       q    Type
REMARK                         _______ _______ _______ _____ _____    ______ ____
ROOT
ATOM      1  C   UNL     1      -1.089   2.466  -1.156  0.00  0.00    -0.020 C 
ENDROOT
BRANCH   1  11
ATOM      2  C   UNL     1      -0.417   0.404  -0.076  0.00  0.00    -0.073 C 
ATOM      3  C   UNL     1       0.775  -0.238   0.637  0.00  0.00    +0.017 C 
ATOM      4  C   UNL     1       1.082   0.516   1.905  0.00  0.00    -0.048 A 
ATOM      5  C   UNL     1       1.879  -0.096   2.861  0.00  0.00    +0.004 A 
ATOM      6  C   UNL     1       2.192   0.563   4.033  0.00  0.00    +0.000 A 
ATOM      7  C   UNL     1       1.708   1.839   4.255  0.00  0.00    +0.000 A 
ATOM      8  C   UNL     1       0.914   2.448   3.305  0.00  0.00    +0.002 A 
ATOM      9  C   UNL     1       0.597   1.787   2.127  0.00  0.00    -0.061 A 
ATOM     10  C   UNL     1      -0.277   2.491   1.122  0.00  0.00    -0.042 C 
ATOM     11  N   UNL     1      -0.144   1.850  -0.197  0.00  0.00    +0.388 N 
ATOM     12  H   UNL     1       0.814   1.983  -0.540  0.00  0.00    -0.080 HD
ENDBRANCH   1  11
BRANCH   1  16
ATOM     13  C   UNL     1      -4.836   0.412  -1.062  0.00  0.00    +0.029 A 
ATOM     14  C   UNL     1      -4.172   0.594  -2.268  0.00  0.00    +0.023 A 
ATOM     15  C   UNL     1      -2.962   1.258  -2.295  0.00  0.00    +0.004 A 
ATOM     16  C   UNL     1      -2.410   1.742  -1.123  0.00  0.00    -0.059 A 
ATOM     17  C   UNL     1      -3.066   1.557   0.081  0.00  0.00    +0.004 A 
ATOM     18  C   UNL     1      -4.279   0.899   0.114  0.00  0.00    +0.023 A 
BRANCH  13  20
ATOM     19  C   UNL     1      -6.646  -0.773  -2.272  0.00  0.00    +0.129 C 
ATOM     20  N   UNL     1      -6.061  -0.259  -1.031  0.00  0.00    -0.336 N 
ATOM     21  C   UNL     1      -6.759  -0.450   0.243  0.00  0.00    +0.129 C 
ENDBRANCH  13  20
ENDBRANCH   1  16
BRANCH   1  22
ATOM     22  C   UNL     1      -1.303   3.936  -0.789  0.00  0.00    +0.094 C 
BRANCH  22  23
ATOM     23  N   UNL     1      -0.011   4.624  -0.757  0.00  0.00    -0.309 N 
ATOM     24  C   UNL     1       0.038   5.955  -0.551  0.00  0.00    +0.299 C 
ATOM     25  O   UNL     1      -0.988   6.583  -0.393  0.00  0.00    -0.265 OA
ATOM     26  H   UNL     1       0.809   4.122  -0.883  0.00  0.00    +0.149 HD
BRANCH  24  27
ATOM     27  C   UNL     1       1.356   6.658  -0.518  0.00  0.00    +0.303 C 
ATOM     28  O   UNL     1       2.382   6.030  -0.677  0.00  0.00    -0.265 OA
ATOM     29  N   UNL     1       1.405   7.989  -0.313  0.00  0.00    -0.278 N 
ATOM     30  H   UNL     1       0.593   8.479  -0.111  0.00  0.00    +0.155 HD
BRANCH  29  31
ATOM     31  C   UNL     1       2.627   8.663  -0.390  0.00  0.00    +0.037 A 
ATOM     32  C   UNL     1       2.869   9.761   0.426  0.00  0.00    +0.023 A 
ATOM     33  C   UNL     1       4.078  10.423   0.351  0.00  0.00    +0.005 A 
ATOM     34  C   UNL     1       5.045  10.001  -0.543  0.00  0.00    +0.038 A 
ATOM     35  C   UNL     1       4.807   8.910  -1.362  0.00  0.00    +0.125 A 
ATOM     36  C   UNL     1       3.599   8.240  -1.287  0.00  0.00    +0.061 A 
ATOM     37  F   UNL     1       5.754   8.500  -2.234  0.00  0.00    -0.205 F 
ENDBRANCH  29  31
ENDBRANCH  24  27
ENDBRANCH  22  23
ENDBRANCH   1  22
TORSDOF 7
