REMARK  Name = ZINC65031787
REMARK  10 active torsions:
REMARK  status: ('A' for Active; 'I' for Inactive)
REMARK    1  A    between atoms: C_1  and  C_2
REMARK    2  A    between atoms: C_3  and  C_28
REMARK    3  A    between atoms: C_9  and  C_12
REMARK    4  A    between atoms: C_12  and  N_13
REMARK    5  A    between atoms: N_16  and  C_17
REMARK    6  A    between atoms: N_16  and  C_18
REMARK    7  A    between atoms: C_18  and  C_19
REMARK    8  A    between atoms: C_22  and  N_25
REMARK    9  A    between atoms: N_25  and  C_26
REMARK   10  A    between atoms: N_25  and  C_27
REMARK                            x       y       z     vdW  Elec       q    Type
REMARK                         _______ _______ _______ _____ _____    ______ ____
ROOT
ATOM      1  N   UNL     1      -1.346  -1.418   5.369  0.00  0.00    -0.295 N 
ATOM      2  C   UNL     1      -1.568  -1.210   6.682  0.00  0.00    +0.303 C 
ATOM      3  O   UNL     1      -0.629  -1.070   7.442  0.00  0.00    -0.253 OA
ATOM      4  N   UNL     1      -2.830  -1.159   7.152  0.00  0.00    -0.284 N 
ATOM      5  C   UNL     1      -3.960  -1.328   6.236  0.00  0.00    +0.134 C 
ATOM      6  H   UNL     1      -2.094  -1.530   4.762  0.00  0.00    +0.151 HD
ENDROOT
BRANCH   1   7
ATOM      7  C   UNL     1       0.026  -1.474   4.857  0.00  0.00    +0.141 C 
BRANCH   7  16
ATOM      8  C   UNL     1      -0.124   1.510  -0.030  0.00  0.00    +0.046 C 
ATOM      9  C   UNL     1      -0.101   0.003  -0.038  0.00  0.00    -0.022 A 
ATOM     10  C   UNL     1      -0.105  -0.789  -1.122  0.00  0.00    +0.017 A 
ATOM     11  N   UNL     1      -0.078  -2.103  -0.739  0.00  0.00    -0.358 N 
ATOM     12  H   UNL     1      -0.076  -2.860  -1.345  0.00  0.00    +0.166 HD
ATOM     13  C   UNL     1      -0.055  -2.190   0.635  0.00  0.00    +0.047 A 
ATOM     14  C   UNL     1      -0.062  -0.874   1.134  0.00  0.00    +0.003 A 
ATOM     15  C   UNL     1      -0.036  -0.652   2.512  0.00  0.00    +0.015 A 
ATOM     16  C   UNL     1      -0.001  -1.715   3.370  0.00  0.00    -0.030 A 
ATOM     17  C   UNL     1       0.009  -3.014   2.883  0.00  0.00    +0.007 A 
ATOM     18  C   UNL     1      -0.025  -3.257   1.527  0.00  0.00    +0.026 A 
ATOM     19  C   UNL     1      -0.136  -0.304  -2.548  0.00  0.00    +0.063 C 
ENDBRANCH   7  16
ENDBRANCH   1   7
BRANCH   4  20
ATOM     20  C   UNL     1      -3.071  -0.933   8.579  0.00  0.00    +0.144 C 
BRANCH  20  21
ATOM     21  C   UNL     1      -3.181   0.547   8.842  0.00  0.00    -0.030 A 
ATOM     22  C   UNL     1      -2.048   1.279   9.148  0.00  0.00    +0.007 A 
ATOM     23  C   UNL     1      -2.145   2.635   9.390  0.00  0.00    +0.023 A 
ATOM     24  C   UNL     1      -3.382   3.264   9.325  0.00  0.00    +0.029 A 
ATOM     25  C   UNL     1      -4.518   2.526   9.017  0.00  0.00    +0.023 A 
ATOM     26  C   UNL     1      -4.413   1.171   8.771  0.00  0.00    +0.007 A 
BRANCH  24  27
ATOM     27  N   UNL     1      -3.484   4.636   9.569  0.00  0.00    -0.336 N 
ATOM     28  C   UNL     1      -2.310   5.389  10.016  0.00  0.00    +0.129 C 
ATOM     29  C   UNL     1      -4.765   5.321   9.378  0.00  0.00    +0.129 C 
ENDBRANCH  24  27
ENDBRANCH  20  21
ENDBRANCH   4  20
TORSDOF 5
