REMARK  Name = ZINC12296704
REMARK  9 active torsions:
REMARK  status: ('A' for Active; 'I' for Inactive)
REMARK    1  A    between atoms: C_1  and  C_2
REMARK    2  A    between atoms: C_10  and  C_15
REMARK    3  A    between atoms: C_11  and  O_13
REMARK    4  A    between atoms: O_13  and  C_14
REMARK    5  A    between atoms: C_15  and  C_16
REMARK    6  A    between atoms: C_16  and  C_17
REMARK    7  A    between atoms: N_19  and  C_20
REMARK    8  A    between atoms: C_20  and  C_21
REMARK    9  A    between atoms: C_21  and  C_22
REMARK                            x       y       z     vdW  Elec       q    Type
REMARK                         _______ _______ _______ _____ _____    ______ ____
ROOT
ATOM      1  C   UNL     1       7.487   1.516  -2.665  0.00  0.00    +0.213 C 
ATOM      2  O   UNL     1       6.864   1.531  -3.705  0.00  0.00    -0.276 OA
ATOM      3  N   UNL     1       6.851   1.720  -1.494  0.00  0.00    -0.315 N 
ATOM      4  H   UNL     1       7.417   1.706  -0.551  0.00  0.00    +0.149 HD
ENDROOT
BRANCH   1   5
ATOM      5  C   UNL     1       8.974   1.270  -2.681  0.00  0.00    +0.100 C 
BRANCH   5   6
ATOM      6  C   UNL     1       9.442   1.071  -4.124  0.00  0.00    +0.048 C 
BRANCH   6  16
ATOM      7  C   UNL     1      13.620   4.146  -4.804  0.00  0.00    +0.045 C 
ATOM      8  C   UNL     1      14.110   2.737  -4.585  0.00  0.00    -0.033 A 
ATOM      9  C   UNL     1      15.438   2.452  -4.589  0.00  0.00    +0.096 A 
ATOM     10  C   UNL     1      15.871   1.126  -4.383  0.00  0.00    +0.337 A 
ATOM     11  O   UNL     1      17.064   0.884  -4.388  0.00  0.00    -0.245 OA
ATOM     12  O   UNL     1      15.001   0.123  -4.181  0.00  0.00    -0.422 OA
ATOM     13  C   UNL     1      13.668   0.339  -4.165  0.00  0.00    +0.143 A 
ATOM     14  C   UNL     1      13.167   1.639  -4.365  0.00  0.00    +0.021 A 
ATOM     15  C   UNL     1      11.786   1.866  -4.355  0.00  0.00    +0.019 A 
ATOM     16  C   UNL     1      10.929   0.826  -4.141  0.00  0.00    -0.004 A 
ATOM     17  C   UNL     1      11.420  -0.464  -3.943  0.00  0.00    +0.127 A 
ATOM     18  C   UNL     1      12.784  -0.707  -3.955  0.00  0.00    +0.092 A 
BRANCH  17  19
ATOM     19  O   UNL     1      10.554  -1.489  -3.737  0.00  0.00    -0.495 OA
ATOM     20  C   UNL     1      11.120  -2.786  -3.541  0.00  0.00    +0.277 C 
ENDBRANCH  17  19
ENDBRANCH   6  16
ENDBRANCH   5   6
ENDBRANCH   1   5
BRANCH   3  21
ATOM     21  C   UNL     1       5.406   1.959  -1.478  0.00  0.00    +0.109 C 
BRANCH  21  22
ATOM     22  C   UNL     1       4.938   2.158  -0.035  0.00  0.00    +0.056 C 
BRANCH  22  23
ATOM     23  C   UNL     1       3.451   2.404  -0.019  0.00  0.00    -0.021 A 
ATOM     24  C   UNL     1       2.839   3.598  -0.006  0.00  0.00    +0.087 A 
ATOM     25  N   UNL     1       1.482   3.428   0.007  0.00  0.00    -0.360 N 
ATOM     26  H   UNL     1       0.817   4.304   0.019  0.00  0.00    +0.165 HD
ATOM     27  C   UNL     1       1.179   2.084   0.002  0.00  0.00    +0.047 A 
ATOM     28  C   UNL     1       2.399   1.384  -0.014  0.00  0.00    +0.004 A 
ATOM     29  C   UNL     1       2.402  -0.012  -0.022  0.00  0.00    +0.030 A 
ATOM     30  C   UNL     1       1.206  -0.696  -0.014  0.00  0.00    +0.042 A 
ATOM     31  C   UNL     1       0.002  -0.004   0.002  0.00  0.00    +0.022 A 
ATOM     32  C   UNL     1      -0.017   1.373   0.010  0.00  0.00    +0.027 A 
ATOM     33 CL   UNL     1       1.204  -2.432  -0.024  0.00  0.00    -0.084 Cl
ENDBRANCH  22  23
ENDBRANCH  21  22
ENDBRANCH   3  21
TORSDOF 7
