REMARK  Name = ZINC40746350
REMARK  6 active torsions:
REMARK  status: ('A' for Active; 'I' for Inactive)
REMARK    1  A    between atoms: C_1  and  C_2
REMARK    2  A    between atoms: C_4  and  C_23
REMARK    3  A    between atoms: C_5  and  S_9
REMARK    4  A    between atoms: C_6  and  C_8
REMARK    5  A    between atoms: S_9  and  N_12
REMARK    6  A    between atoms: N_12  and  C_13
REMARK                            x       y       z     vdW  Elec       q    Type
REMARK                         _______ _______ _______ _____ _____    ______ ____
ROOT
ATOM      1  S   UNL     1      -1.042  -3.945  -0.078  0.00  0.00    +0.059 S 
ATOM      2  O   UNL     1      -1.594  -4.160   1.213  0.00  0.00    -0.153 OA
ATOM      3  O   UNL     1      -1.758  -4.235  -1.271  0.00  0.00    -0.153 OA
ENDROOT
BRANCH   1   8
ATOM      4  C   UNL     1       0.479   1.887  -0.356  0.00  0.00    +0.044 C 
ATOM      5  C   UNL     1       0.099   0.431  -0.286  0.00  0.00    -0.050 A 
ATOM      6  C   UNL     1      -0.144  -0.163   0.938  0.00  0.00    +0.008 A 
ATOM      7  C   UNL     1      -0.493  -1.499   1.002  0.00  0.00    -0.024 A 
ATOM      8  C   UNL     1      -0.599  -2.241  -0.159  0.00  0.00    +0.111 A 
ATOM      9  C   UNL     1      -0.356  -1.648  -1.384  0.00  0.00    -0.024 A 
ATOM     10  C   UNL     1      -0.012  -0.310  -1.448  0.00  0.00    +0.008 A 
ATOM     11  C   UNL     1      -0.471  -2.457  -2.650  0.00  0.00    +0.046 C 
ATOM     12  C   UNL     1      -0.757  -2.146   2.337  0.00  0.00    +0.046 C 
ENDBRANCH   1   8
BRANCH   1  13
ATOM     13  N   UNL     1       0.362  -4.820  -0.144  0.00  0.00    -0.187 NA
ATOM     14  H   UNL     1       0.545  -5.387  -0.909  0.00  0.00    +0.148 HD
BRANCH  13  15
ATOM     15  C   UNL     1       1.329  -4.737   0.954  0.00  0.00    +0.073 C 
ATOM     16  C   UNL     1       1.572  -6.137   1.525  0.00  0.00    +0.004 C 
ATOM     17  C   UNL     1       2.267  -6.997   0.457  0.00  0.00    -0.070 C 
ATOM     18  C   UNL     1       1.487  -6.826  -0.868  0.00  0.00    -0.017 C 
ATOM     19  C   UNL     1       2.135  -5.604  -1.552  0.00  0.00    -0.017 C 
ATOM     20  C   UNL     1       3.247  -5.148  -0.580  0.00  0.00    -0.070 C 
ATOM     21  C   UNL     1       2.646  -4.156   0.430  0.00  0.00    +0.004 C 
ATOM     22  N   UNL     1       3.597  -6.386   0.196  0.00  0.00    +0.383 N 
ATOM     23  H   UNL     1       4.059  -6.157   1.063  0.00  0.00    -0.085 HD
ATOM     24  H   UNL     1       4.169  -7.003  -0.361  0.00  0.00    -0.085 HD
ENDBRANCH  13  15
ENDBRANCH   1  13
TORSDOF 3
