REMARK  Name = ZINC09152508
REMARK  4 active torsions:
REMARK  status: ('A' for Active; 'I' for Inactive)
REMARK    1  A    between atoms: C_4  and  S_7
REMARK    2  A    between atoms: S_7  and  C_10
REMARK    3  A    between atoms: N_24  and  C_25
REMARK    4  A    between atoms: C_25  and  C_26
REMARK                            x       y       z     vdW  Elec       q    Type
REMARK                         _______ _______ _______ _____ _____    ______ ____
ROOT
ATOM      1  C   UNL     1       3.152   0.677  -1.707  0.00  0.00    +0.249 A 
ATOM      2  C   UNL     1       3.901   1.545  -2.482  0.00  0.00    +0.204 A 
ATOM      3  N   UNL     1       4.472   2.732  -2.212  0.00  0.00    -0.209 NA
ATOM      4  C   UNL     1       5.154   3.398  -3.118  0.00  0.00    +0.131 A 
ATOM      5  C   UNL     1       5.297   2.829  -4.466  0.00  0.00    +0.042 A 
ATOM      6  C   UNL     1       6.007   3.487  -5.469  0.00  0.00    +0.033 A 
ATOM      7  C   UNL     1       6.111   2.912  -6.718  0.00  0.00    +0.042 A 
ATOM      8  C   UNL     1       5.515   1.686  -6.979  0.00  0.00    +0.022 A 
ATOM      9  C   UNL     1       4.810   1.024  -5.996  0.00  0.00    +0.030 A 
ATOM     10  C   UNL     1       4.694   1.586  -4.733  0.00  0.00    +0.080 A 
ATOM     11  N   UNL     1       3.996   0.959  -3.717  0.00  0.00    -0.192 N 
ATOM     12  N   UNL     1       3.294  -0.250  -3.639  0.00  0.00    -0.057 NA
ATOM     13  N   UNL     1       2.823  -0.374  -2.448  0.00  0.00    -0.108 NA
ATOM     14 CL   UNL     1       6.993   3.727  -7.972  0.00  0.00    -0.084 Cl
ATOM     15  N   UNL     1       5.728   4.615  -2.808  0.00  0.00    -0.324 N 
ATOM     16  H   UNL     1       6.229   5.100  -3.482  0.00  0.00    +0.148 HD
ENDROOT
BRANCH   1  17
ATOM     17  S   UNL     1       2.713   0.923  -0.018  0.00  0.00    +0.047 S 
ATOM     18  O   UNL     1       3.680   1.809   0.528  0.00  0.00    -0.163 OA
ATOM     19  O   UNL     1       2.464  -0.365   0.528  0.00  0.00    -0.163 OA
BRANCH  17  23
ATOM     20  C   UNL     1      -1.238   3.133   0.029  0.00  0.00    +0.000 A 
ATOM     21  C   UNL     1      -1.219   1.751   0.017  0.00  0.00    +0.002 A 
ATOM     22  C   UNL     1      -0.013   1.076   0.008  0.00  0.00    +0.027 A 
ATOM     23  C   UNL     1       1.175   1.783   0.000  0.00  0.00    +0.095 A 
ATOM     24  C   UNL     1       1.156   3.165   0.008  0.00  0.00    +0.027 A 
ATOM     25  C   UNL     1      -0.050   3.840   0.022  0.00  0.00    +0.002 A 
ENDBRANCH  17  23
ENDBRANCH   1  17
BRANCH  15  26
ATOM     26  C   UNL     1       5.579   5.173  -1.462  0.00  0.00    +0.139 C 
BRANCH  26  27
ATOM     27  C   UNL     1       6.293   6.498  -1.386  0.00  0.00    -0.012 A 
ATOM     28  C   UNL     1       7.547   6.576  -0.810  0.00  0.00    +0.006 A 
ATOM     29  C   UNL     1       8.204   7.790  -0.744  0.00  0.00    +0.000 A 
ATOM     30  C   UNL     1       7.603   8.930  -1.246  0.00  0.00    +0.001 A 
ATOM     31  C   UNL     1       6.347   8.854  -1.817  0.00  0.00    +0.020 A 
ATOM     32  C   UNL     1       5.691   7.638  -1.888  0.00  0.00    +0.046 A 
ATOM     33 CL   UNL     1       4.113   7.543  -2.605  0.00  0.00    -0.083 Cl
ENDBRANCH  26  27
ENDBRANCH  15  26
TORSDOF 4
