REMARK  Name = ZINC07738319
REMARK  5 active torsions:
REMARK  status: ('A' for Active; 'I' for Inactive)
REMARK    1  A    between atoms: C_1  and  N_2
REMARK    2  A    between atoms: C_6  and  S_7
REMARK    3  A    between atoms: S_7  and  C_8
REMARK    4  A    between atoms: C_11  and  C_17
REMARK    5  A    between atoms: C_13  and  N_14
REMARK                            x       y       z     vdW  Elec       q    Type
REMARK                         _______ _______ _______ _____ _____    ______ ____
ROOT
ATOM      1  C   UNL     1      -0.040   1.359  -0.110  0.00  0.00    +0.046 A 
ATOM      2  C   UNL     1       1.200   1.994  -0.069  0.00  0.00    +0.018 A 
ATOM      3  C   UNL     1       2.349   1.256  -0.069  0.00  0.00    +0.009 A 
ATOM      4  C   UNL     1       2.279  -0.144  -0.112  0.00  0.00    -0.022 A 
ATOM      5  C   UNL     1       1.029  -0.779  -0.154  0.00  0.00    +0.041 A 
ATOM      6  C   UNL     1      -0.114  -0.032  -0.153  0.00  0.00    +0.140 A 
ENDROOT
BRANCH   4   7
ATOM      7  C   UNL     1       3.508  -0.941  -0.112  0.00  0.00    +0.021 C 
ATOM      8  C   UNL     1       4.565  -0.566   0.667  0.00  0.00    +0.047 C 
ATOM      9  C   UNL     1       5.924  -1.153   0.686  0.00  0.00    +0.010 A 
ATOM     10  C   UNL     1       6.528  -2.181  -0.032  0.00  0.00    +0.030 A 
ATOM     11  C   UNL     1       7.850  -2.500   0.211  0.00  0.00    +0.042 A 
ATOM     12  C   UNL     1       8.571  -1.795   1.161  0.00  0.00    +0.022 A 
ATOM     13  C   UNL     1       7.982  -0.770   1.873  0.00  0.00    +0.025 A 
ATOM     14  C   UNL     1       6.653  -0.434   1.642  0.00  0.00    +0.042 A 
ATOM     15  N   UNL     1       5.833   0.536   2.208  0.00  0.00    -0.281 N 
ATOM     16  C   UNL     1       4.599   0.506   1.676  0.00  0.00    +0.249 C 
ATOM     17  O   UNL     1       3.672   1.236   1.976  0.00  0.00    -0.270 OA
ATOM     18 CL   UNL     1       8.607  -3.787  -0.674  0.00  0.00    -0.084 Cl
ATOM     19  H   UNL     1       6.115   1.156   2.898  0.00  0.00    +0.155 HD
ENDBRANCH   4   7
BRANCH   6  20
ATOM     20  N   UNL     1      -1.434  -0.701  -0.198  0.00  0.00    +0.058 N 
ATOM     21  O   UNL     1      -1.500  -1.917  -0.235  0.00  0.00    -0.126 OA
ATOM     22  O   UNL     1      -2.454  -0.036  -0.198  0.00  0.00    -0.126 OA
ENDBRANCH   6  20
BRANCH   1  23
ATOM     23  S   UNL     1      -1.518   2.317  -0.117  0.00  0.00    -0.049 S 
BRANCH  23  29
ATOM     24  C   UNL     1      -4.089   3.559   1.483  0.00  0.00    +0.151 C 
ATOM     25  N   UNL     1      -3.128   2.663   2.131  0.00  0.00    -0.328 N 
ATOM     26  C   UNL     1      -3.164   2.229   3.436  0.00  0.00    +0.107 A 
ATOM     27  C   UNL     1      -2.098   1.431   3.614  0.00  0.00    +0.131 A 
ATOM     28  N   UNL     1      -1.422   1.364   2.455  0.00  0.00    -0.230 NA
ATOM     29  C   UNL     1      -2.033   2.097   1.554  0.00  0.00    +0.173 A 
ENDBRANCH  23  29
ENDBRANCH   1  23
TORSDOF 4
