REMARK  Name = ZINC63687946
REMARK  10 active torsions:
REMARK  status: ('A' for Active; 'I' for Inactive)
REMARK    1  A    between atoms: C_1  and  C_2
REMARK    2  A    between atoms: C_2  and  O_3
REMARK    3  A    between atoms: O_3  and  C_4
REMARK    4  A    between atoms: C_4  and  C_6
REMARK    5  A    between atoms: C_8  and  N_22
REMARK    6  A    between atoms: N_13  and  C_15
REMARK    7  A    between atoms: C_20  and  C_21
REMARK    8  A    between atoms: N_22  and  C_23
REMARK    9  A    between atoms: C_23  and  C_24
REMARK   10  A    between atoms: C_24  and  C_25
REMARK                            x       y       z     vdW  Elec       q    Type
REMARK                         _______ _______ _______ _____ _____    ______ ____
ROOT
ATOM      1  C   UNL     1       1.468  -2.353  -2.550  0.00  0.00    +0.199 C 
ATOM      2  C   UNL     1       2.987  -2.304  -2.344  0.00  0.00    +0.092 C 
ATOM      3  C   UNL     1       3.657  -2.748  -3.650  0.00  0.00    +0.118 C 
ATOM      4  C   UNL     1       2.967  -3.983  -4.161  0.00  0.00    +0.235 C 
ATOM      5  O   UNL     1       3.523  -4.654  -5.005  0.00  0.00    -0.274 OA
ATOM      6  N   UNL     1       1.768  -4.372  -3.723  0.00  0.00    -0.204 N 
ATOM      7  N   UNL     1       1.059  -3.748  -2.750  0.00  0.00    -0.218 NA
ATOM      8  H   UNL     1       1.103  -4.265  -1.884  0.00  0.00    +0.146 HD
ENDROOT
BRANCH   6   9
ATOM      9  C   UNL     1       1.198  -5.505  -4.312  0.00  0.00    +0.056 A 
ATOM     10  C   UNL     1       1.519  -6.772  -3.841  0.00  0.00    +0.025 A 
ATOM     11  C   UNL     1       0.955  -7.888  -4.425  0.00  0.00    +0.002 A 
ATOM     12  C   UNL     1       0.070  -7.747  -5.479  0.00  0.00    +0.000 A 
ATOM     13  C   UNL     1      -0.251  -6.488  -5.951  0.00  0.00    +0.005 A 
ATOM     14  C   UNL     1       0.305  -5.366  -5.367  0.00  0.00    -0.028 A 
ATOM     15  C   UNL     1      -0.052  -3.994  -5.877  0.00  0.00    +0.046 C 
ENDBRANCH   6   9
BRANCH   1  16
ATOM     16  C   UNL     1       0.775  -1.794  -1.334  0.00  0.00    +0.327 C 
ATOM     17  O   UNL     1       0.314  -2.540  -0.504  0.00  0.00    -0.249 OA
BRANCH  16  18
ATOM     18  O   UNL     1       0.671  -0.465  -1.174  0.00  0.00    -0.464 OA
BRANCH  18  20
ATOM     19  C   UNL     1      -0.019   1.526   0.010  0.00  0.00    +0.048 C 
ATOM     20  C   UNL     1       0.002  -0.004   0.002  0.00  0.00    +0.229 C 
ENDBRANCH  18  20
ENDBRANCH  16  18
ENDBRANCH   1  16
BRANCH   2  21
ATOM     21  N   UNL     1       3.371  -3.213  -1.255  0.00  0.00    -0.310 NA
ATOM     22  H   UNL     1       2.636  -3.282  -0.567  0.00  0.00    +0.122 HD
BRANCH  21  23
ATOM     23  C   UNL     1       4.634  -2.789  -0.636  0.00  0.00    +0.085 C 
BRANCH  23  24
ATOM     24  C   UNL     1       4.999  -3.757   0.491  0.00  0.00    +0.048 C 
BRANCH  24  25
ATOM     25  C   UNL     1       6.295  -3.323   1.125  0.00  0.00    -0.040 C 
ATOM     26  C   UNL     1       6.443  -2.558   2.231  0.00  0.00    -0.001 A 
ATOM     27  C   UNL     1       5.478  -1.924   3.137  0.00  0.00    +0.010 A 
ATOM     28  C   UNL     1       5.938  -1.200   4.183  0.00  0.00    +0.001 A 
ATOM     29  C   UNL     1       7.310  -1.040   4.422  0.00  0.00    +0.002 A 
ATOM     30  C   UNL     1       8.257  -1.592   3.634  0.00  0.00    +0.026 A 
ATOM     31  C   UNL     1       7.886  -2.374   2.505  0.00  0.00    +0.043 A 
ATOM     32  N   UNL     1       8.603  -3.002   1.605  0.00  0.00    -0.380 N 
ATOM     33  C   UNL     1       7.694  -3.660   0.659  0.00  0.00    +0.144 C 
ATOM     34  H   UNL     1       9.572  -3.030   1.571  0.00  0.00    +0.160 HD
ENDBRANCH  24  25
ENDBRANCH  23  24
ENDBRANCH  21  23
ENDBRANCH   2  21
TORSDOF 8
