REMARK  Name = ZINC36579864
REMARK  13 active torsions:
REMARK  status: ('A' for Active; 'I' for Inactive)
REMARK    1  A    between atoms: CD1_1  and  CG_2
REMARK    2  A    between atoms: CG_2  and  CD2_3
REMARK    3  A    between atoms: CG_2  and  CB_4
REMARK    4  A    between atoms: CB_4  and  CA_5
REMARK    5  A    between atoms: CA_5  and  C_7
REMARK    6  A    between atoms: CA_5  and  N_9
REMARK    7  A    between atoms: C_7  and  O_8
REMARK    8  A    between atoms: C_10  and  CA_12
REMARK    9  A    between atoms: CA_12  and  C_14
REMARK   10  A    between atoms: CA_12  and  N_20
REMARK   11  A    between atoms: C_21  and  C_23
REMARK   12  A    between atoms: C_23  and  C_24
REMARK   13  A    between atoms: C_23  and  C_30
REMARK                            x       y       z     vdW  Elec       q    Type
REMARK                         _______ _______ _______ _____ _____    ______ ____
ROOT
ATOM      1  CA  UNL     1      -0.129  -4.346   2.818  0.00  0.00    +0.189 C 
ENDROOT
BRANCH   1   2
ATOM      2  C   UNL     1       0.880  -3.356   3.341  0.00  0.00    -0.018 A 
ATOM      3  C   UNL     1       2.157  -3.326   2.813  0.00  0.00    +0.006 A 
ATOM      4  C   UNL     1       3.082  -2.417   3.292  0.00  0.00    +0.000 A 
ATOM      5  C   UNL     1       2.730  -1.539   4.300  0.00  0.00    +0.000 A 
ATOM      6  C   UNL     1       1.453  -1.569   4.828  0.00  0.00    +0.000 A 
ATOM      7  C   UNL     1       0.526  -2.474   4.345  0.00  0.00    +0.006 A 
ENDBRANCH   1   2
BRANCH   1   9
ATOM      8  N   UNL     1      -1.367  -2.659   1.500  0.00  0.00    -0.308 N 
ATOM      9  C   UNL     1      -0.711  -3.836   1.526  0.00  0.00    +0.238 C 
ATOM     10  O   UNL     1      -0.589  -4.484   0.508  0.00  0.00    -0.273 OA
ATOM     11  H   UNL     1      -1.464  -2.140   2.314  0.00  0.00    +0.149 HD
BRANCH   8  12
ATOM     12  CA  UNL     1      -1.932  -2.162   0.243  0.00  0.00    +0.099 C 
BRANCH  12  13
ATOM     13  CB  UNL     1      -2.050  -0.638   0.303  0.00  0.00    +0.027 C 
BRANCH  13  15
ATOM     14  CD1 UNL     1       0.131  -0.304  -0.871  0.00  0.00    +0.007 C 
ATOM     15  CG  UNL     1      -0.653  -0.023   0.413  0.00  0.00    -0.015 C 
ATOM     16  CD2 UNL     1      -0.776   1.489   0.616  0.00  0.00    +0.007 C 
ENDBRANCH  13  15
ENDBRANCH  12  13
BRANCH  12  17
ATOM     17  C   UNL     1      -3.319  -2.772   0.032  0.00  0.00    +0.178 C 
BRANCH  17  18
ATOM     18  O   UNL     1      -4.204  -2.309   1.054  0.00  0.00    -0.393 OA
ATOM     19  H   UNL     1      -5.104  -2.656   0.982  0.00  0.00    +0.209 HD
ENDBRANCH  17  18
ENDBRANCH  12  17
ENDBRANCH   8  12
ENDBRANCH   1   9
BRANCH   1  20
ATOM     20  N   UNL     1       0.528  -5.634   2.583  0.00  0.00    -0.300 N 
ATOM     21  C   UNL     1       0.672  -6.512   3.596  0.00  0.00    +0.226 C 
ATOM     22  O   UNL     1       0.259  -6.235   4.702  0.00  0.00    -0.275 OA
ATOM     23  H   UNL     1       0.859  -5.856   1.699  0.00  0.00    +0.150 HD
BRANCH  21  24
ATOM     24  C   UNL     1       1.348  -7.837   3.354  0.00  0.00    +0.135 C 
BRANCH  24  25
ATOM     25  C   UNL     1       1.381  -8.626   4.638  0.00  0.00    -0.031 A 
ATOM     26  C   UNL     1       2.582  -9.113   5.119  0.00  0.00    +0.005 A 
ATOM     27  C   UNL     1       2.613  -9.836   6.296  0.00  0.00    +0.000 A 
ATOM     28  C   UNL     1       1.443 -10.072   6.993  0.00  0.00    +0.000 A 
ATOM     29  C   UNL     1       0.242  -9.584   6.513  0.00  0.00    +0.000 A 
ATOM     30  C   UNL     1       0.212  -8.857   5.338  0.00  0.00    +0.005 A 
ENDBRANCH  24  25
BRANCH  24  31
ATOM     31  C   UNL     1       0.582  -8.608   2.311  0.00  0.00    -0.031 A 
ATOM     32  C   UNL     1      -0.782  -8.786   2.445  0.00  0.00    +0.005 A 
ATOM     33  C   UNL     1      -1.484  -9.494   1.488  0.00  0.00    +0.000 A 
ATOM     34  C   UNL     1      -0.823 -10.023   0.395  0.00  0.00    +0.000 A 
ATOM     35  C   UNL     1       0.541  -9.845   0.260  0.00  0.00    +0.000 A 
ATOM     36  C   UNL     1       1.243  -9.133   1.216  0.00  0.00    +0.005 A 
ENDBRANCH  24  31
ENDBRANCH  21  24
ENDBRANCH   1  20
TORSDOF 11
