REMARK  Name = ZINC37323921
REMARK  3 active torsions:
REMARK  status: ('A' for Active; 'I' for Inactive)
REMARK    1  A    between atoms: CA_4  and  C_18
REMARK    2  A    between atoms: C_6  and  N_7
REMARK    3  A    between atoms: N_7  and  C_8
REMARK                            x       y       z     vdW  Elec       q    Type
REMARK                         _______ _______ _______ _____ _____    ______ ____
ROOT
ATOM      1  N   UNL     1      -1.183  -0.734   0.010  0.00  0.00    -0.338 N 
ATOM      2  H   UNL     1      -1.159  -1.700  -0.076  0.00  0.00    +0.147 HD
ENDROOT
BRANCH   1   3
ATOM      3  C   UNL     1      -2.468  -0.042   0.137  0.00  0.00    +0.033 C 
ATOM      4  C   UNL     1      -2.698   0.838  -1.093  0.00  0.00    +0.029 C 
ATOM      5  C   UNL     1      -4.040   1.561  -0.961  0.00  0.00    -0.008 C 
ATOM      6  C   UNL     1      -5.165   0.530  -0.854  0.00  0.00    +0.007 C 
ATOM      7  C   UNL     1      -4.936  -0.350   0.376  0.00  0.00    -0.008 C 
ATOM      8  C   UNL     1      -3.594  -1.073   0.244  0.00  0.00    +0.029 C 
ATOM      9  C   UNL     1      -4.923   0.523   1.633  0.00  0.00    +0.007 C 
ATOM     10  C   UNL     1      -3.798   1.554   1.526  0.00  0.00    -0.008 C 
ATOM     11  C   UNL     1      -4.027   2.434   0.295  0.00  0.00    +0.007 C 
ATOM     12  C   UNL     1      -2.455   0.831   1.393  0.00  0.00    +0.029 C 
ENDBRANCH   1   3
BRANCH   1  18
ATOM     13  C   UNL     1      -0.015   1.388  -0.008  0.00  0.00    +0.040 A 
ATOM     14  C   UNL     1       1.183   2.080  -0.004  0.00  0.00    +0.085 A 
ATOM     15  N   UNL     1       2.333   1.443   0.018  0.00  0.00    -0.355 N 
ATOM     16  CA  UNL     1       2.399   0.116   0.038  0.00  0.00    +0.130 A 
ATOM     17  C   UNL     1       1.239  -0.651   0.036  0.00  0.00    +0.056 A 
ATOM     18  C   UNL     1       0.003  -0.005   0.013  0.00  0.00    +0.031 A 
ATOM     19  H   UNL     1       3.157   1.956   0.019  0.00  0.00    +0.166 HD
BRANCH  16  20
ATOM     20  C   UNL     1       3.719  -0.552   0.062  0.00  0.00    +0.402 C 
ATOM     21  O   UNL     1       4.743   0.116   0.063  0.00  0.00    -0.239 OA
ATOM     22  OXT UNL     1       3.786  -1.773   0.081  0.00  0.00    -0.239 OA
ENDBRANCH  16  20
ENDBRANCH   1  18
TORSDOF 3
