REMARK  Name = ZINC12036357
REMARK  12 active torsions:
REMARK  status: ('A' for Active; 'I' for Inactive)
REMARK    1  A    between atoms: C_1  and  C_2
REMARK    2  A    between atoms: N_7  and  C_10
REMARK    3  A    between atoms: C_11  and  C_23
REMARK    4  A    between atoms: C_14  and  O_21
REMARK    5  A    between atoms: C_17  and  O_19
REMARK    6  A    between atoms: O_19  and  C_20
REMARK    7  A    between atoms: O_21  and  C_22
REMARK    8  A    between atoms: C_23  and  N_24
REMARK    9  A    between atoms: N_24  and  C_25
REMARK   10  A    between atoms: C_25  and  C_26
REMARK   11  A    between atoms: C_32  and  C_34
REMARK   12  A    between atoms: C_34  and  C_35
REMARK                            x       y       z     vdW  Elec       q    Type
REMARK                         _______ _______ _______ _____ _____    ______ ____
ROOT
ATOM      1  C   UNL     1      -3.453   4.087   5.965  0.00  0.00    +0.104 A 
ATOM      2  C   UNL     1      -2.698   4.066   4.783  0.00  0.00    +0.009 A 
ATOM      3  C   UNL     1      -2.238   5.234   4.252  0.00  0.00    +0.022 A 
ATOM      4  C   UNL     1      -2.551   6.437   4.912  0.00  0.00    +0.044 A 
ATOM      5  C   UNL     1      -2.112   7.679   4.414  0.00  0.00    +0.129 A 
ATOM      6  C   UNL     1      -2.434   8.834   5.090  0.00  0.00    +0.050 A 
ATOM      7  C   UNL     1      -3.188   8.786   6.260  0.00  0.00    +0.051 A 
ATOM      8  C   UNL     1      -3.626   7.596   6.766  0.00  0.00    +0.144 A 
ATOM      9  C   UNL     1      -3.317   6.393   6.102  0.00  0.00    +0.093 A 
ATOM     10  N   UNL     1      -3.779   5.213   6.645  0.00  0.00    -0.340 N 
ATOM     11  H   UNL     1      -4.334   5.190   7.508  0.00  0.00    +0.167 HD
ENDROOT
BRANCH   1  18
ATOM     12  C   UNL     1      -5.101   0.390  10.611  0.00  0.00    +0.109 C 
ATOM     13  C   UNL     1      -5.828   0.663   9.319  0.00  0.00    +0.213 C 
ATOM     14  O   UNL     1      -7.026   0.486   9.248  0.00  0.00    -0.276 OA
ATOM     15  N   UNL     1      -5.147   1.105   8.243  0.00  0.00    -0.299 N 
ATOM     16  C   UNL     1      -3.681   1.218   8.272  0.00  0.00    +0.126 C 
ATOM     17  C   UNL     1      -3.292   2.624   7.803  0.00  0.00    +0.125 C 
ATOM     18  N   UNL     1      -3.910   2.890   6.497  0.00  0.00    -0.313 N 
ATOM     19  C   UNL     1      -5.377   2.882   6.590  0.00  0.00    +0.125 C 
ATOM     20  C   UNL     1      -5.851   1.486   7.009  0.00  0.00    +0.126 C 
ENDBRANCH   1  18
BRANCH   8  21
ATOM     21  O   UNL     1      -4.360   7.572   7.911  0.00  0.00    -0.493 OA
ATOM     22  C   UNL     1      -4.636   8.830   8.531  0.00  0.00    +0.277 C 
ENDBRANCH   8  21
BRANCH   5  23
ATOM     23  O   UNL     1      -1.376   7.737   3.273  0.00  0.00    -0.494 OA
ATOM     24  C   UNL     1      -0.968   9.033   2.830  0.00  0.00    +0.277 C 
ENDBRANCH   5  23
BRANCH   2  25
ATOM     25  C   UNL     1      -2.392   2.755   4.105  0.00  0.00    +0.146 C 
BRANCH  25  26
ATOM     26  N   UNL     1      -1.491   2.989   2.974  0.00  0.00    -0.295 N 
ATOM     27  C   UNL     1      -1.993   3.147   1.734  0.00  0.00    +0.216 C 
ATOM     28  O   UNL     1      -3.194   3.187   1.566  0.00  0.00    -0.276 OA
BRANCH  26  29
ATOM     29  C   UNL     1      -0.043   3.051   3.192  0.00  0.00    +0.139 C 
BRANCH  29  30
ATOM     30  C   UNL     1       0.554   1.651   3.048  0.00  0.00    +0.136 C 
ATOM     31  C   UNL     1       2.082   1.692   3.274  0.00  0.00    +0.035 C 
ATOM     32  C   UNL     1       2.386   0.379   4.030  0.00  0.00    +0.031 C 
ATOM     33  C   UNL     1       1.006  -0.300   4.171  0.00  0.00    +0.160 C 
ATOM     34  O   UNL     1       0.050   0.779   4.087  0.00  0.00    -0.375 OA
ENDBRANCH  29  30
ENDBRANCH  26  29
BRANCH  27  35
ATOM     35  C   UNL     1      -1.063   3.275   0.555  0.00  0.00    +0.099 C 
BRANCH  35  36
ATOM     36  C   UNL     1      -1.878   3.553  -0.710  0.00  0.00    -0.002 C 
ATOM     37  C   UNL     1      -2.718   2.314  -1.082  0.00  0.00    +0.004 C 
ATOM     38  C   UNL     1      -2.683   2.282  -2.630  0.00  0.00    +0.000 C 
ATOM     39  C   UNL     1      -1.235   2.730  -2.949  0.00  0.00    +0.000 C 
ATOM     40  C   UNL     1      -0.936   3.818  -1.897  0.00  0.00    +0.004 C 
ENDBRANCH  35  36
ENDBRANCH  27  35
ENDBRANCH  25  26
ENDBRANCH   2  25
TORSDOF 9
