REMARK  Name = ZINC14474529
REMARK  7 active torsions:
REMARK  status: ('A' for Active; 'I' for Inactive)
REMARK    1  A    between atoms: C_4  and  C_7
REMARK    2  A    between atoms: C_7  and  C_8
REMARK    3  A    between atoms: C_8  and  C_9
REMARK    4  A    between atoms: C_9  and  O_10
REMARK    5  A    between atoms: O_10  and  C_11
REMARK    6  A    between atoms: C_24  and  C_27
REMARK    7  A    between atoms: C_32  and  O_33
REMARK                            x       y       z     vdW  Elec       q    Type
REMARK                         _______ _______ _______ _____ _____    ______ ____
ROOT
ATOM      1  C   UNL     1       3.755   0.997  -3.334  0.00  0.00    +0.121 A 
ATOM      2  C   UNL     1       4.354   1.115  -2.089  0.00  0.00    +0.047 A 
ATOM      3  C   UNL     1       3.567   1.274  -0.966  0.00  0.00    +0.027 A 
ATOM      4  C   UNL     1       2.184   1.315  -1.084  0.00  0.00    +0.032 A 
ATOM      5  C   UNL     1       1.579   1.199  -2.325  0.00  0.00    -0.016 A 
ATOM      6  C   UNL     1       2.377   1.039  -3.450  0.00  0.00    +0.051 A 
ATOM      7  C   UNL     1       0.094   1.244  -2.500  0.00  0.00    +0.049 C 
ATOM      8  C   UNL     1      -0.473  -0.129  -2.771  0.00  0.00    -0.023 C 
ATOM      9  C   UNL     1      -1.643  -0.258  -2.194  0.00  0.00    -0.030 C 
ATOM     10  C   UNL     1      -2.018   1.017  -1.463  0.00  0.00    +0.033 C 
ATOM     11  C   UNL     1      -0.647   1.718  -1.235  0.00  0.00    +0.029 C 
ATOM     12  C   UNL     1      -0.013   1.086   0.008  0.00  0.00    +0.108 C 
ATOM     13  N   UNL     1       1.401   1.473   0.068  0.00  0.00    -0.336 N 
ATOM     14  H   UNL     1       1.784   1.830   0.884  0.00  0.00    +0.147 HD
ENDROOT
BRANCH  12  15
ATOM     15  C   UNL     1      -0.723   1.574   1.244  0.00  0.00    +0.014 A 
ATOM     16  C   UNL     1      -1.573   0.730   1.933  0.00  0.00    +0.009 A 
ATOM     17  C   UNL     1      -2.221   1.176   3.069  0.00  0.00    +0.001 A 
ATOM     18  C   UNL     1      -2.029   2.471   3.514  0.00  0.00    +0.004 A 
ATOM     19  C   UNL     1      -1.185   3.321   2.826  0.00  0.00    +0.046 A 
ATOM     20  C   UNL     1      -0.529   2.874   1.688  0.00  0.00    +0.122 A 
BRANCH  20  21
ATOM     21  O   UNL     1       0.302   3.708   1.010  0.00  0.00    -0.506 OA
ATOM     22  H   UNL     1      -0.136   4.221   0.316  0.00  0.00    +0.292 HD
ENDBRANCH  20  21
ENDBRANCH  12  15
BRANCH   1  23
ATOM     23  O   UNL     1       4.525   0.840  -4.445  0.00  0.00    -0.492 OA
BRANCH  23  24
ATOM     24  C   UNL     1       5.940   0.805  -4.253  0.00  0.00    +0.229 C 
BRANCH  24  25
ATOM     25  C   UNL     1       6.634   0.623  -5.605  0.00  0.00    +0.046 C 
BRANCH  25  26
ATOM     26  C   UNL     1       8.149   0.585  -5.399  0.00  0.00    +0.038 C 
BRANCH  26  30
ATOM     27  C   UNL     1      10.086   0.077  -9.173  0.00  0.00    +0.000 A 
ATOM     28  C   UNL     1       9.820   1.348  -8.698  0.00  0.00    +0.000 A 
ATOM     29  C   UNL     1       9.193   1.512  -7.477  0.00  0.00    +0.003 A 
ATOM     30  C   UNL     1       8.832   0.406  -6.731  0.00  0.00    -0.047 A 
ATOM     31  C   UNL     1       9.103  -0.865  -7.203  0.00  0.00    +0.003 A 
ATOM     32  C   UNL     1       9.726  -1.029  -8.427  0.00  0.00    +0.000 A 
ENDBRANCH  26  30
ENDBRANCH  25  26
ENDBRANCH  24  25
ENDBRANCH  23  24
ENDBRANCH   1  23
TORSDOF 7
