REMARK  Name = ZINC02881855
REMARK  6 active torsions:
REMARK  status: ('A' for Active; 'I' for Inactive)
REMARK    1  A    between atoms: C_1  and  C_2
REMARK    2  A    between atoms: C_2  and  O_3
REMARK    3  A    between atoms: O_3  and  C_4
REMARK    4  A    between atoms: C_7  and  C_12
REMARK    5  A    between atoms: C_9  and  O_10
REMARK    6  A    between atoms: O_10  and  C_11
REMARK                            x       y       z     vdW  Elec       q    Type
REMARK                         _______ _______ _______ _____ _____    ______ ____
ROOT
ATOM      1  C   UNL     1      -1.294  -0.774   0.010  0.00  0.00    +0.060 C 
ATOM      2  C   UNL     1      -1.435  -1.545  -1.303  0.00  0.00    +0.109 C 
ATOM      3  C   UNL     1      -2.567  -2.533  -1.189  0.00  0.00    +0.218 C 
ATOM      4  O   UNL     1      -3.284  -2.738  -2.146  0.00  0.00    -0.275 OA
ATOM      5  N   UNL     1      -2.788  -3.188  -0.037  0.00  0.00    -0.285 N 
ATOM      6  C   UNL     1      -2.048  -2.889   1.111  0.00  0.00    +0.038 A 
ATOM      7  C   UNL     1      -1.298  -1.736   1.169  0.00  0.00    -0.011 A 
ATOM      8  C   UNL     1      -0.536  -1.459   2.315  0.00  0.00    -0.012 A 
ATOM      9  C   UNL     1       0.256  -0.300   2.400  0.00  0.00    +0.009 A 
ATOM     10  C   UNL     1       0.981  -0.062   3.527  0.00  0.00    +0.001 A 
ATOM     11  C   UNL     1       0.951  -0.950   4.601  0.00  0.00    +0.001 A 
ATOM     12  C   UNL     1       0.197  -2.082   4.553  0.00  0.00    +0.008 A 
ATOM     13  C   UNL     1      -0.565  -2.363   3.406  0.00  0.00    -0.017 A 
ATOM     14  C   UNL     1      -1.353  -3.523   3.323  0.00  0.00    +0.010 A 
ATOM     15  C   UNL     1      -2.073  -3.774   2.198  0.00  0.00    +0.024 A 
ATOM     16  H   UNL     1      -3.469  -3.878  -0.002  0.00  0.00    +0.155 HD
ENDROOT
BRANCH   1  20
ATOM     17  C   UNL     1       2.386   1.405  -0.013  0.00  0.00    +0.162 A 
ATOM     18  C   UNL     1       2.398   0.020   0.033  0.00  0.00    +0.050 A 
ATOM     19  C   UNL     1       1.207  -0.681   0.040  0.00  0.00    +0.008 A 
ATOM     20  C   UNL     1       0.002  -0.004   0.002  0.00  0.00    -0.036 A 
ATOM     21  C   UNL     1      -0.017   1.377  -0.043  0.00  0.00    +0.053 A 
ATOM     22  C   UNL     1       1.174   2.087  -0.051  0.00  0.00    +0.162 A 
BRANCH  22  23
ATOM     23  O   UNL     1       1.157   3.446  -0.095  0.00  0.00    -0.491 OA
ATOM     24  C   UNL     1      -0.124   4.078  -0.131  0.00  0.00    +0.277 C 
ENDBRANCH  22  23
BRANCH  17  25
ATOM     25  O   UNL     1       3.558   2.096  -0.020  0.00  0.00    -0.489 OA
BRANCH  25  27
ATOM     26  C   UNL     1       5.968   2.274   0.006  0.00  0.00    +0.048 C 
ATOM     27  C   UNL     1       4.763   1.331   0.021  0.00  0.00    +0.226 C 
ENDBRANCH  25  27
ENDBRANCH  17  25
ENDBRANCH   1  20
TORSDOF 4
