REMARK  Name = ZINC59023475
REMARK  13 active torsions:
REMARK  status: ('A' for Active; 'I' for Inactive)
REMARK    1  A    between atoms: C_1  and  C_2
REMARK    2  A    between atoms: C_2  and  C_3
REMARK    3  A    between atoms: C_3  and  C_4
REMARK    4  A    between atoms: C_4  and  S_5
REMARK    5  A    between atoms: S_5  and  C_6
REMARK    6  A    between atoms: C_11  and  N_12
REMARK    7  A    between atoms: C_13  and  C_15
REMARK    8  A    between atoms: C_15  and  S_16
REMARK    9  A    between atoms: S_16  and  C_17
REMARK   10  A    between atoms: N_22  and  N_23
REMARK   11  A    between atoms: C_24  and  C_25
REMARK   12  A    between atoms: C_24  and  C_26
REMARK   13  A    between atoms: C_27  and  C_28
REMARK                            x       y       z     vdW  Elec       q    Type
REMARK                         _______ _______ _______ _____ _____    ______ ____
ROOT
ATOM      1  C   UNL     1       5.696  -5.091  -9.060  0.00  0.00    +0.211 A 
ATOM      2  N   UNL     1       6.393  -5.630 -10.066  0.00  0.00    -0.186 NA
ATOM      3  C   UNL     1       6.893  -4.674 -10.821  0.00  0.00    +0.232 A 
ATOM      4  N   UNL     1       6.514  -3.488 -10.297  0.00  0.00    -0.245 N 
ATOM      5  N   UNL     1       5.739  -3.784  -9.164  0.00  0.00    -0.144 NA
ATOM      6  N   UNL     1       7.669  -4.853 -11.951  0.00  0.00    -0.205 N 
ATOM      7  H   UNL     1       7.993  -4.082 -12.444  0.00  0.00    +0.177 HD
ATOM      8  H   UNL     1       6.732  -2.607 -10.638  0.00  0.00    +0.192 HD
ENDROOT
BRANCH   6   9
ATOM      9  N   UNL     1       7.987  -6.146 -12.385  0.00  0.00    -0.185 NA
ATOM     10  C   UNL     1       8.798  -6.315 -13.391  0.00  0.00    +0.056 C 
ATOM     11  C   UNL     1       9.230  -7.703 -13.786  0.00  0.00    +0.067 C 
BRANCH  10  12
ATOM     12  C   UNL     1       9.273  -5.192 -14.114  0.00  0.00    +0.025 C 
ATOM     13  C   UNL     1      10.029  -5.371 -15.217  0.00  0.00    +0.010 C 
BRANCH  13  14
ATOM     14  C   UNL     1      10.615  -4.208 -15.904  0.00  0.00    -0.025 A 
ATOM     15  C   UNL     1      10.396  -2.918 -15.412  0.00  0.00    +0.008 A 
ATOM     16  C   UNL     1      10.949  -1.834 -16.061  0.00  0.00    +0.001 A 
ATOM     17  C   UNL     1      11.720  -2.021 -17.195  0.00  0.00    +0.000 A 
ATOM     18  C   UNL     1      11.941  -3.295 -17.688  0.00  0.00    +0.001 A 
ATOM     19  C   UNL     1      11.399  -4.390 -17.047  0.00  0.00    +0.008 A 
ENDBRANCH  13  14
ENDBRANCH  10  12
ENDBRANCH   6   9
BRANCH   1  20
ATOM     20  S   UNL     1       4.851  -5.990  -7.803  0.00  0.00    -0.075 S 
BRANCH  20  21
ATOM     21  C   UNL     1       4.109  -4.702  -6.764  0.00  0.00    +0.173 C 
BRANCH  21  23
ATOM     22  N   UNL     1       2.708  -4.575  -4.730  0.00  0.00    -0.284 N 
ATOM     23  C   UNL     1       3.346  -5.344  -5.634  0.00  0.00    +0.228 C 
ATOM     24  O   UNL     1       3.307  -6.553  -5.539  0.00  0.00    -0.275 OA
ATOM     25  H   UNL     1       2.671  -3.614  -4.850  0.00  0.00    +0.155 HD
BRANCH  22  31
ATOM     26  C   UNL     1       1.041  -4.520  -2.971  0.00  0.00    +0.029 A 
ATOM     27  C   UNL     1       0.437  -5.113  -1.872  0.00  0.00    +0.016 A 
ATOM     28  C   UNL     1       0.885  -6.338  -1.415  0.00  0.00    +0.001 A 
ATOM     29  C   UNL     1       1.935  -6.975  -2.050  0.00  0.00    +0.002 A 
ATOM     30  C   UNL     1       2.543  -6.392  -3.146  0.00  0.00    +0.024 A 
ATOM     31  C   UNL     1       2.096  -5.166  -3.615  0.00  0.00    +0.047 A 
BRANCH  26  32
ATOM     32  S   UNL     1       0.472  -2.959  -3.557  0.00  0.00    -0.123 S 
BRANCH  32  33
ATOM     33  C   UNL     1      -0.880  -2.531  -2.425  0.00  0.00    +0.074 C 
BRANCH  33  34
ATOM     34  C   UNL     1      -1.472  -1.179  -2.826  0.00  0.00    +0.011 C 
BRANCH  34  36
ATOM     35  C   UNL     1      -3.204   0.534  -2.271  0.00  0.00    +0.004 C 
ATOM     36  C   UNL     1      -2.612  -0.818  -1.871  0.00  0.00    -0.003 C 
ENDBRANCH  34  36
ENDBRANCH  33  34
ENDBRANCH  32  33
ENDBRANCH  26  32
ENDBRANCH  22  31
ENDBRANCH  21  23
ENDBRANCH  20  21
ENDBRANCH   1  20
TORSDOF 11
