REMARK  Name = ZINC18100759
REMARK  7 active torsions:
REMARK  status: ('A' for Active; 'I' for Inactive)
REMARK    1  A    between atoms: C_1  and  C_2
REMARK    2  A    between atoms: C_8  and  C_30
REMARK    3  A    between atoms: C_12  and  C_13
REMARK    4  A    between atoms: N_15  and  C_16
REMARK    5  A    between atoms: N_15  and  C_17
REMARK    6  A    between atoms: C_17  and  C_18
REMARK    7  A    between atoms: C_30  and  C_31
REMARK                            x       y       z     vdW  Elec       q    Type
REMARK                         _______ _______ _______ _____ _____    ______ ____
ROOT
ATOM      1  C   UNL     1      -5.588  -0.152  -3.522  0.00  0.00    +0.046 C 
ATOM      2  C   UNL     1      -5.962   0.167  -2.097  0.00  0.00    -0.017 A 
ATOM      3  C   UNL     1      -7.042   1.012  -1.828  0.00  0.00    +0.076 A 
ATOM      4  C   UNL     1      -7.950   1.699  -2.774  0.00  0.00    +0.260 A 
ATOM      5  O   UNL     1      -7.817   1.564  -3.978  0.00  0.00    -0.267 OA
ATOM      6  N   UNL     1      -8.927   2.478  -2.270  0.00  0.00    -0.310 N 
ATOM      7  H   UNL     1      -9.530   2.936  -2.876  0.00  0.00    +0.170 HD
ATOM      8  C   UNL     1      -9.084   2.634  -0.932  0.00  0.00    +0.115 A 
ATOM      9  N   UNL     1      -8.302   2.043  -0.071  0.00  0.00    -0.226 NA
ATOM     10  C   UNL     1      -7.308   1.254  -0.462  0.00  0.00    +0.116 A 
ATOM     11  S   UNL     1      -6.064   0.301   0.372  0.00  0.00    -0.064 S 
ATOM     12  C   UNL     1      -5.250  -0.373  -1.066  0.00  0.00    +0.080 A 
ENDROOT
BRANCH  12  13
ATOM     13  C   UNL     1      -4.098  -1.278  -1.125  0.00  0.00    +0.254 C 
ATOM     14  O   UNL     1      -3.576  -1.530  -2.196  0.00  0.00    -0.269 OA
ATOM     15  N   UNL     1      -3.616  -1.830   0.006  0.00  0.00    -0.293 N 
ATOM     16  C   UNL     1      -4.210  -1.486   1.300  0.00  0.00    +0.133 C 
BRANCH  15  17
ATOM     17  C   UNL     1      -2.498  -2.775  -0.059  0.00  0.00    +0.182 C 
BRANCH  17  18
ATOM     18  C   UNL     1      -1.197  -2.022   0.054  0.00  0.00    +0.128 A 
ATOM     19  N   UNL     1      -0.038  -2.730   0.014  0.00  0.00    -0.309 N 
ATOM     20  H   UNL     1      -0.067  -3.694  -0.085  0.00  0.00    +0.170 HD
ATOM     21  C   UNL     1       1.157  -2.101   0.111  0.00  0.00    +0.259 A 
ATOM     22  O   UNL     1       2.203  -2.722   0.077  0.00  0.00    -0.267 OA
ATOM     23  C   UNL     1       1.142  -0.638   0.259  0.00  0.00    +0.065 A 
ATOM     24  C   UNL     1       2.316   0.104   0.368  0.00  0.00    +0.015 A 
ATOM     25  C   UNL     1       2.243   1.473   0.505  0.00  0.00    +0.001 A 
ATOM     26  C   UNL     1       1.013   2.115   0.536  0.00  0.00    +0.002 A 
ATOM     27  C   UNL     1      -0.159   1.401   0.430  0.00  0.00    +0.028 A 
ATOM     28  C   UNL     1      -0.112   0.012   0.290  0.00  0.00    +0.078 A 
ATOM     29  N   UNL     1      -1.242  -0.731   0.183  0.00  0.00    -0.232 NA
ENDBRANCH  17  18
ENDBRANCH  15  17
ENDBRANCH  12  13
BRANCH   8  30
ATOM     30  C   UNL     1     -10.195   3.518  -0.425  0.00  0.00    +0.109 C 
BRANCH  30  31
ATOM     31  C   UNL     1     -10.172   3.538   1.082  0.00  0.00    -0.040 A 
ATOM     32  C   UNL     1     -10.905   2.609   1.796  0.00  0.00    +0.004 A 
ATOM     33  C   UNL     1     -10.880   2.624   3.179  0.00  0.00    +0.000 A 
ATOM     34  C   UNL     1     -10.130   3.575   3.846  0.00  0.00    +0.000 A 
ATOM     35  C   UNL     1      -9.402   4.508   3.131  0.00  0.00    +0.000 A 
ATOM     36  C   UNL     1      -9.423   4.489   1.749  0.00  0.00    +0.004 A 
ENDBRANCH  30  31
ENDBRANCH   8  30
TORSDOF 5
