REMARK  Name = ZINC17962124
REMARK  8 active torsions:
REMARK  status: ('A' for Active; 'I' for Inactive)
REMARK    1  A    between atoms: C_1  and  C_2
REMARK    2  A    between atoms: C_4  and  C_27
REMARK    3  A    between atoms: C_5  and  N_9
REMARK    4  A    between atoms: C_6  and  C_8
REMARK    5  A    between atoms: C_10  and  C_12
REMARK    6  A    between atoms: C_12  and  N_13
REMARK    7  A    between atoms: N_13  and  C_14
REMARK    8  A    between atoms: C_15  and  C_17
REMARK                            x       y       z     vdW  Elec       q    Type
REMARK                         _______ _______ _______ _____ _____    ______ ____
ROOT
ATOM      1  C   UNL     1      -6.872   0.811   1.832  0.00  0.00    +0.203 C 
ENDROOT
BRANCH   1   3
ATOM      2  N   UNL     1      -7.396  -1.605   1.924  0.00  0.00    -0.284 N 
ATOM      3  C   UNL     1      -6.784  -0.544   2.487  0.00  0.00    +0.235 C 
ATOM      4  O   UNL     1      -6.164  -0.679   3.521  0.00  0.00    -0.274 OA
ATOM      5  H   UNL     1      -7.942  -1.486   1.132  0.00  0.00    +0.155 HD
BRANCH   2  10
ATOM      6  C   UNL     1      -6.771  -6.768   4.190  0.00  0.00    +0.044 C 
ATOM      7  C   UNL     1      -6.937  -5.397   3.588  0.00  0.00    -0.050 A 
ATOM      8  C   UNL     1      -8.204  -4.873   3.403  0.00  0.00    +0.008 A 
ATOM      9  C   UNL     1      -8.359  -3.616   2.852  0.00  0.00    -0.029 A 
ATOM     10  C   UNL     1      -7.242  -2.878   2.483  0.00  0.00    +0.039 A 
ATOM     11  C   UNL     1      -5.971  -3.410   2.665  0.00  0.00    -0.029 A 
ATOM     12  C   UNL     1      -5.823  -4.665   3.222  0.00  0.00    +0.008 A 
ATOM     13  C   UNL     1      -4.757  -2.615   2.260  0.00  0.00    +0.045 C 
ATOM     14  C   UNL     1      -9.739  -3.046   2.651  0.00  0.00    +0.045 C 
ENDBRANCH   2  10
ENDBRANCH   1   3
BRANCH   1  15
ATOM     15  N   UNL     1      -6.130   1.789   2.632  0.00  0.00    -0.295 N 
ATOM     16  C   UNL     1      -6.811   2.531   3.696  0.00  0.00    +0.132 C 
ATOM     17  C   UNL     1      -4.822   2.006   2.390  0.00  0.00    +0.222 C 
ATOM     18  O   UNL     1      -4.283   1.466   1.447  0.00  0.00    -0.275 OA
BRANCH  17  19
ATOM     19  C   UNL     1      -4.030   2.919   3.290  0.00  0.00    +0.048 C 
ATOM     20  C   UNL     1      -2.614   3.080   2.734  0.00  0.00    +0.019 C 
ATOM     21  C   UNL     1      -1.810   4.007   3.648  0.00  0.00    -0.009 C 
ATOM     22  C   UNL     1      -1.741   3.404   5.052  0.00  0.00    +0.007 C 
ATOM     23  C   UNL     1      -3.157   3.243   5.608  0.00  0.00    -0.009 C 
ATOM     24  C   UNL     1      -3.961   2.316   4.694  0.00  0.00    +0.019 C 
ATOM     25  C   UNL     1      -3.839   4.611   5.674  0.00  0.00    +0.007 C 
ATOM     26  C   UNL     1      -3.908   5.214   4.269  0.00  0.00    -0.009 C 
ATOM     27  C   UNL     1      -2.491   5.375   3.713  0.00  0.00    +0.007 C 
ATOM     28  C   UNL     1      -4.712   4.287   3.355  0.00  0.00    +0.019 C 
ENDBRANCH  17  19
ENDBRANCH   1  15
TORSDOF 4
