REMARK  Name = ZINC33113820
REMARK  4 active torsions:
REMARK  status: ('A' for Active; 'I' for Inactive)
REMARK    1  A    between atoms: C_9  and  C_11
REMARK    2  A    between atoms: C_15  and  N_17
REMARK    3  A    between atoms: N_17  and  S_18
REMARK    4  A    between atoms: S_18  and  C_21
REMARK                            x       y       z     vdW  Elec       q    Type
REMARK                         _______ _______ _______ _____ _____    ______ ____
ROOT
ATOM      1  C   UNL     1       4.713  -1.938  -4.097  0.00  0.00    +0.002 A 
ATOM      2  C   UNL     1       4.811  -0.547  -4.068  0.00  0.00    +0.010 A 
ATOM      3  C   UNL     1       3.996   0.185  -3.229  0.00  0.00    +0.003 A 
ATOM      4  C   UNL     1       3.077  -0.455  -2.419  0.00  0.00    +0.027 A 
ATOM      5  C   UNL     1       2.976  -1.841  -2.437  0.00  0.00    +0.075 A 
ATOM      6  C   UNL     1       3.791  -2.584  -3.277  0.00  0.00    +0.036 A 
ENDROOT
BRANCH   1  15
ATOM      7  C   UNL     1       7.862  -6.323  -7.470  0.00  0.00    +0.001 A 
ATOM      8  C   UNL     1       6.928  -6.932  -6.634  0.00  0.00    +0.002 A 
ATOM      9  C   UNL     1       6.132  -6.193  -5.814  0.00  0.00    +0.028 A 
ATOM     10  C   UNL     1       6.250  -4.791  -5.806  0.00  0.00    +0.072 A 
ATOM     11  C   UNL     1       7.202  -4.174  -6.656  0.00  0.00    +0.000 A 
ATOM     12  C   UNL     1       8.005  -4.969  -7.489  0.00  0.00    +0.010 A 
ATOM     13  C   UNL     1       7.322  -2.771  -6.648  0.00  0.00    +0.012 A 
ATOM     14  C   UNL     1       6.511  -2.057  -5.816  0.00  0.00    +0.029 A 
ATOM     15  C   UNL     1       5.588  -2.727  -4.997  0.00  0.00    +0.072 A 
ATOM     16  N   UNL     1       5.486  -4.042  -5.007  0.00  0.00    -0.247 NA
ENDBRANCH   1  15
BRANCH   5  17
ATOM     17  N   UNL     1       2.049  -2.484  -1.613  0.00  0.00    -0.096 NA
BRANCH  17  18
ATOM     18  S   UNL     1       1.897  -2.032  -0.027  0.00  0.00    +0.108 S 
ATOM     19  O   UNL     1       3.212  -1.992   0.512  0.00  0.00    -0.147 OA
ATOM     20  O   UNL     1       0.871  -2.842   0.529  0.00  0.00    -0.147 OA
BRANCH  18  21
ATOM     21  C   UNL     1       1.296  -0.376  -0.012  0.00  0.00    +0.194 A 
ATOM     22  C   UNL     1       0.002  -0.004   0.002  0.00  0.00    +0.131 A 
ATOM     23  N   UNL     1      -0.017   1.365   0.009  0.00  0.00    -0.351 N 
ATOM     24  H   UNL     1       3.145   0.657  -0.024  0.00  0.00    +0.168 HD
ATOM     25  C   UNL     1       1.268   1.782  -0.001  0.00  0.00    +0.172 A 
ATOM     26  N   UNL     1       2.047   0.735  -0.013  0.00  0.00    -0.330 N 
ATOM     27  H   UNL     1      -0.977   1.901   0.021  0.00  0.00    +0.166 HD
ENDBRANCH  18  21
ENDBRANCH  17  18
ENDBRANCH   5  17
TORSDOF 4
