REMARK  Name = ZINC31721971
REMARK  5 active torsions:
REMARK  status: ('A' for Active; 'I' for Inactive)
REMARK    1  A    between atoms: C_1  and  C_2
REMARK    2  A    between atoms: C_6  and  N_12
REMARK    3  A    between atoms: N_12  and  S_13
REMARK    4  A    between atoms: S_13  and  C_16
REMARK    5  A    between atoms: C_19  and  N_22
REMARK                            x       y       z     vdW  Elec       q    Type
REMARK                         _______ _______ _______ _____ _____    ______ ____
ROOT
ATOM      1  N   UNL     1       3.590   2.144  -0.020  0.00  0.00    -0.216 N 
ATOM      2  H   UNL     1       3.729   2.999   0.657  0.00  0.00    +0.174 HD
ENDROOT
BRANCH   1   8
ATOM      3  C   UNL     1      -3.653   0.583   0.040  0.00  0.00    +0.063 C 
ATOM      4  C   UNL     1      -2.148   0.654   0.026  0.00  0.00    +0.014 A 
ATOM      5  C   UNL     1      -1.430   1.788   0.031  0.00  0.00    +0.030 A 
ATOM      6  C   UNL     1      -0.017   1.402   0.010  0.00  0.00    +0.002 A 
ATOM      7  C   UNL     1       1.183   2.117   0.002  0.00  0.00    +0.034 A 
ATOM      8  C   UNL     1       2.384   1.434  -0.012  0.00  0.00    +0.049 A 
ATOM      9  C   UNL     1       2.399   0.040  -0.020  0.00  0.00    +0.026 A 
ATOM     10  C   UNL     1       1.221  -0.674  -0.013  0.00  0.00    +0.028 A 
ATOM     11  C   UNL     1       0.002  -0.004   0.002  0.00  0.00    +0.047 A 
ATOM     12  N   UNL     1      -1.311  -0.428   0.012  0.00  0.00    -0.358 N 
ATOM     13  H   UNL     1      -1.727  -1.446   0.011  0.00  0.00    +0.166 HD
ENDBRANCH   1   8
BRANCH   1  14
ATOM     14  S   UNL     1       4.809   1.695  -1.048  0.00  0.00    +0.072 S 
ATOM     15  O   UNL     1       5.874   2.612  -0.840  0.00  0.00    -0.150 OA
ATOM     16  O   UNL     1       4.971   0.292  -0.897  0.00  0.00    -0.150 OA
BRANCH  14  17
ATOM     17  C   UNL     1       4.229   1.962  -2.691  0.00  0.00    +0.109 A 
ATOM     18  C   UNL     1       3.572   0.949  -3.365  0.00  0.00    +0.031 A 
ATOM     19  C   UNL     1       3.113   1.159  -4.651  0.00  0.00    +0.034 A 
ATOM     20  C   UNL     1       3.319   2.379  -5.268  0.00  0.00    +0.126 A 
ATOM     21  C   UNL     1       3.980   3.391  -4.596  0.00  0.00    +0.034 A 
ATOM     22  C   UNL     1       4.435   3.182  -3.307  0.00  0.00    +0.031 A 
BRANCH  20  23
ATOM     23  N   UNL     1       2.832   2.603  -6.647  0.00  0.00    +0.056 N 
ATOM     24  O   UNL     1       3.013   3.678  -7.190  0.00  0.00    -0.126 OA
ATOM     25  O   UNL     1       2.250   1.712  -7.240  0.00  0.00    -0.126 OA
ENDBRANCH  20  23
ENDBRANCH  14  17
ENDBRANCH   1  14
TORSDOF 4
