REMARK  Name = ZINC36090680
REMARK  9 active torsions:
REMARK  status: ('A' for Active; 'I' for Inactive)
REMARK    1  A    between atoms: C_1  and  N_2
REMARK    2  A    between atoms: N_2  and  C_3
REMARK    3  A    between atoms: N_2  and  C_4
REMARK    4  A    between atoms: C_4  and  C_6
REMARK    5  A    between atoms: C_4  and  C_19
REMARK    6  A    between atoms: C_6  and  N_7
REMARK    7  A    between atoms: N_7  and  S_8
REMARK    8  A    between atoms: S_8  and  C_11
REMARK    9  A    between atoms: C_11  and  C_12
REMARK                            x       y       z     vdW  Elec       q    Type
REMARK                         _______ _______ _______ _____ _____    ______ ____
ROOT
ATOM      1  C   UNL     1      -2.182  -0.113  -1.100  0.00  0.00    +0.095 C 
ENDROOT
BRANCH   1   2
ATOM      2  N   UNL     1      -3.599  -0.407  -0.868  0.00  0.00    -0.195 NA
ATOM      3  H   UNL     1      -3.856  -1.043  -0.182  0.00  0.00    +0.148 HD
BRANCH   2   4
ATOM      4  S   UNL     1      -4.760   0.345  -1.777  0.00  0.00    +0.033 S 
ATOM      5  O   UNL     1      -5.993  -0.151  -1.273  0.00  0.00    -0.158 OA
ATOM      6  O   UNL     1      -4.447   1.729  -1.692  0.00  0.00    -0.158 OA
BRANCH   4   7
ATOM      7  C   UNL     1      -4.490  -0.254  -3.468  0.00  0.00    +0.220 C 
BRANCH   7   8
ATOM      8  C   UNL     1      -5.503   0.373  -4.391  0.00  0.00    -0.025 A 
ATOM      9  C   UNL     1      -6.719  -0.248  -4.607  0.00  0.00    +0.007 A 
ATOM     10  C   UNL     1      -7.648   0.327  -5.453  0.00  0.00    +0.020 A 
ATOM     11  C   UNL     1      -7.361   1.524  -6.085  0.00  0.00    +0.041 A 
ATOM     12  C   UNL     1      -6.144   2.145  -5.868  0.00  0.00    +0.020 A 
ATOM     13  C   UNL     1      -5.218   1.573  -5.017  0.00  0.00    +0.007 A 
ATOM     14 CL   UNL     1      -8.528   2.246  -7.148  0.00  0.00    -0.084 Cl
ENDBRANCH   7   8
ENDBRANCH   4   7
ENDBRANCH   2   4
ENDBRANCH   1   2
BRANCH   1  15
ATOM     15  C   UNL     1      -1.353  -0.637   0.074  0.00  0.00    -0.023 C 
BRANCH  15  16
ATOM     16  C   UNL     1      -1.462  -2.139   0.135  0.00  0.00    -0.060 A 
ATOM     17  C   UNL     1      -0.694  -2.922  -0.706  0.00  0.00    +0.003 A 
ATOM     18  C   UNL     1      -0.793  -4.299  -0.652  0.00  0.00    +0.020 A 
ATOM     19  C   UNL     1      -1.662  -4.895   0.245  0.00  0.00    +0.041 A 
ATOM     20  C   UNL     1      -2.431  -4.111   1.087  0.00  0.00    +0.020 A 
ATOM     21  C   UNL     1      -2.327  -2.734   1.035  0.00  0.00    +0.003 A 
ATOM     22 CL   UNL     1      -1.788  -6.625   0.314  0.00  0.00    -0.084 Cl
ENDBRANCH  15  16
BRANCH  15  24
ATOM     23  C   UNL     1       0.163   1.209  -0.140  0.00  0.00    -0.096 C 
ATOM     24  N   UNL     1       0.053  -0.255  -0.110  0.00  0.00    +0.381 N 
ATOM     25  C   UNL     1       0.854  -0.783   1.003  0.00  0.00    -0.096 C 
ATOM     26  H   UNL     1       0.394  -0.636  -0.980  0.00  0.00    -0.082 HD
ENDBRANCH  15  24
ENDBRANCH   1  15
TORSDOF 7
