REMARK  Name = ZINC22535703
REMARK  5 active torsions:
REMARK  status: ('A' for Active; 'I' for Inactive)
REMARK    1  A    between atoms: C_4  and  C_7
REMARK    2  A    between atoms: C_7  and  C_8
REMARK    3  A    between atoms: C_7  and  S_14
REMARK    4  A    between atoms: S_14  and  C_15
REMARK    5  A    between atoms: C_20  and  C_30
REMARK                            x       y       z     vdW  Elec       q    Type
REMARK                         _______ _______ _______ _____ _____    ______ ____
ROOT
ATOM      1  C   UNL     1       5.237  -2.607  -1.453  0.00  0.00    +0.211 A 
ATOM      2  N   UNL     1       6.229  -2.343  -0.591  0.00  0.00    -0.187 NA
ATOM      3  C   UNL     1       7.271  -3.070  -0.890  0.00  0.00    +0.219 A 
ATOM      4  N   UNL     1       6.959  -3.833  -1.966  0.00  0.00    -0.220 N 
ATOM      5  N   UNL     1       5.644  -3.520  -2.309  0.00  0.00    -0.141 NA
ATOM      6  C   UNL     1       7.884  -4.782  -2.573  0.00  0.00    +0.177 C 
ATOM      7  C   UNL     1       9.287  -4.535  -2.064  0.00  0.00    +0.041 C 
ATOM      8  C   UNL     1       9.534  -3.754  -0.990  0.00  0.00    +0.020 C 
ATOM      9  N   UNL     1       8.521  -3.135  -0.297  0.00  0.00    -0.287 N 
ATOM     10  C   UNL     1      10.946  -3.520  -0.509  0.00  0.00    +0.052 C 
ATOM     11  C   UNL     1      11.804  -4.750  -0.813  0.00  0.00    +0.014 C 
ATOM     12  C   UNL     1      11.769  -5.001  -2.324  0.00  0.00    +0.080 C 
ATOM     13  C   UNL     1      10.338  -5.159  -2.759  0.00  0.00    +0.163 C 
ATOM     14  O   UNL     1      10.085  -5.842  -3.732  0.00  0.00    -0.292 OA
ATOM     15  H   UNL     1       8.677  -2.756   0.583  0.00  0.00    +0.155 HD
ENDROOT
BRANCH   6  16
ATOM     16  C   UNL     1       7.465  -6.185  -2.219  0.00  0.00    -0.001 A 
ATOM     17  C   UNL     1       7.354  -6.719  -0.919  0.00  0.00    +0.025 A 
ATOM     18  C   UNL     1       6.952  -8.001  -1.043  0.00  0.00    +0.083 A 
ATOM     19  N   UNL     1       6.812  -8.277  -2.370  0.00  0.00    -0.367 N 
ATOM     20  H   UNL     1       6.533  -9.128  -2.744  0.00  0.00    +0.165 HD
ATOM     21  C   UNL     1       7.122  -7.159  -3.086  0.00  0.00    +0.088 A 
ENDBRANCH   6  16
BRANCH   1  22
ATOM     22  S   UNL     1       3.641  -1.859  -1.437  0.00  0.00    -0.072 S 
BRANCH  22  23
ATOM     23  C   UNL     1       3.711  -0.707  -0.038  0.00  0.00    +0.114 C 
BRANCH  23  27
ATOM     24  C   UNL     1       0.100   1.570   0.111  0.00  0.00    +0.000 A 
ATOM     25  C   UNL     1       1.324   2.213   0.130  0.00  0.00    +0.000 A 
ATOM     26  C   UNL     1       2.492   1.476   0.082  0.00  0.00    +0.005 A 
ATOM     27  C   UNL     1       2.437   0.096   0.016  0.00  0.00    -0.030 A 
ATOM     28  C   UNL     1       1.214  -0.547  -0.002  0.00  0.00    +0.005 A 
ATOM     29  C   UNL     1       0.045   0.190   0.044  0.00  0.00    +0.000 A 
ENDBRANCH  23  27
BRANCH  23  30
ATOM     30  C   UNL     1       3.870  -1.483   1.245  0.00  0.00    -0.030 A 
ATOM     31  C   UNL     1       3.012  -2.528   1.531  0.00  0.00    +0.005 A 
ATOM     32  C   UNL     1       3.158  -3.240   2.707  0.00  0.00    +0.000 A 
ATOM     33  C   UNL     1       4.161  -2.906   3.597  0.00  0.00    +0.000 A 
ATOM     34  C   UNL     1       5.020  -1.861   3.310  0.00  0.00    +0.000 A 
ATOM     35  C   UNL     1       4.877  -1.153   2.132  0.00  0.00    +0.005 A 
ENDBRANCH  23  30
ENDBRANCH  22  23
ENDBRANCH   1  22
TORSDOF 5
