REMARK  Name = ZINC22320827
REMARK  10 active torsions:
REMARK  status: ('A' for Active; 'I' for Inactive)
REMARK    1  A    between atoms: C_1  and  C_2
REMARK    2  A    between atoms: C_5  and  S_8
REMARK    3  A    between atoms: S_8  and  N_11
REMARK    4  A    between atoms: N_11  and  C_12
REMARK    5  A    between atoms: N_11  and  C_30
REMARK    6  A    between atoms: C_12  and  C_13
REMARK    7  A    between atoms: N_15  and  C_16
REMARK    8  A    between atoms: C_19  and  C_28
REMARK    9  A    between atoms: C_19  and  C_29
REMARK   10  A    between atoms: C_24  and  C_27
REMARK                            x       y       z     vdW  Elec       q    Type
REMARK                         _______ _______ _______ _____ _____    ______ ____
ROOT
ATOM      1  N   UNL     1       6.975  -0.576  -2.359  0.00  0.00    -0.194 N 
ENDROOT
BRANCH   1   2
ATOM      2  C   UNL     1       7.713   0.512  -1.887  0.00  0.00    +0.052 A 
ATOM      3  C   UNL     1       9.101   0.466  -1.889  0.00  0.00    +0.026 A 
ATOM      4  C   UNL     1       9.828   1.546  -1.427  0.00  0.00    +0.022 A 
ATOM      5  C   UNL     1       9.175   2.668  -0.951  0.00  0.00    +0.041 A 
ATOM      6  C   UNL     1       7.792   2.715  -0.942  0.00  0.00    +0.022 A 
ATOM      7  C   UNL     1       7.060   1.641  -1.408  0.00  0.00    +0.026 A 
ATOM      8 CL   UNL     1      10.091   4.021  -0.364  0.00  0.00    -0.084 Cl
ENDBRANCH   1   2
BRANCH   1   9
ATOM      9  S   UNL     1       5.918  -1.359  -1.353  0.00  0.00    +0.075 S 
ATOM     10  O   UNL     1       5.659  -0.476  -0.270  0.00  0.00    -0.150 OA
ATOM     11  O   UNL     1       4.883  -1.878  -2.177  0.00  0.00    -0.150 OA
BRANCH   9  16
ATOM     12  C   UNL     1       8.832  -6.111   0.955  0.00  0.00    +0.044 C 
ATOM     13  C   UNL     1       8.104  -4.924   0.379  0.00  0.00    -0.050 A 
ATOM     14  C   UNL     1       8.196  -3.690   0.996  0.00  0.00    +0.005 A 
ATOM     15  C   UNL     1       7.528  -2.602   0.467  0.00  0.00    +0.029 A 
ATOM     16  C   UNL     1       6.769  -2.746  -0.679  0.00  0.00    +0.109 A 
ATOM     17  C   UNL     1       6.673  -3.981  -1.293  0.00  0.00    +0.029 A 
ATOM     18  C   UNL     1       7.345  -5.068  -0.768  0.00  0.00    +0.005 A 
ENDBRANCH   9  16
ENDBRANCH   1   9
BRANCH   1  19
ATOM     19  C   UNL     1       7.137  -1.026  -3.744  0.00  0.00    +0.227 C 
BRANCH  19  20
ATOM     20  C   UNL     1       6.242  -0.213  -4.643  0.00  0.00    +0.233 C 
ATOM     21  O   UNL     1       5.538   0.656  -4.174  0.00  0.00    -0.274 OA
ATOM     22  N   UNL     1       6.224  -0.452  -5.970  0.00  0.00    -0.307 N 
ATOM     23  H   UNL     1       6.862  -1.240  -6.396  0.00  0.00    +0.149 HD
BRANCH  22  24
ATOM     24  C   UNL     1       5.353   0.338  -6.844  0.00  0.00    +0.111 C 
ATOM     25  C   UNL     1       5.031  -0.469  -8.105  0.00  0.00    +0.074 C 
ATOM     26  C   UNL     1       4.376   0.472  -9.124  0.00  0.00    +0.107 C 
ATOM     27  O   UNL     1       5.335   1.460  -9.506  0.00  0.00    -0.486 OA
ATOM     28  C   UNL     1       6.006   2.108  -8.519  0.00  0.00    +0.126 A 
ATOM     29  C   UNL     1       6.053   1.618  -7.226  0.00  0.00    +0.015 A 
ATOM     30  C   UNL     1       6.754   2.309  -6.252  0.00  0.00    +0.012 A 
ATOM     31  C   UNL     1       7.404   3.488  -6.565  0.00  0.00    -0.050 A 
ATOM     32  C   UNL     1       7.356   3.981  -7.856  0.00  0.00    +0.007 A 
ATOM     33  C   UNL     1       6.660   3.295  -8.831  0.00  0.00    +0.046 A 
ATOM     34  C   UNL     1       8.164   4.235  -5.500  0.00  0.00    +0.044 C 
ATOM     35  C   UNL     1       3.161   1.153  -8.491  0.00  0.00    +0.055 C 
ATOM     36  C   UNL     1       3.938  -0.324 -10.355  0.00  0.00    +0.055 C 
ENDBRANCH  22  24
ENDBRANCH  19  20
ENDBRANCH   1  19
TORSDOF 6
