REMARK  Name = ZINC67594975
REMARK  9 active torsions:
REMARK  status: ('A' for Active; 'I' for Inactive)
REMARK    1  A    between atoms: N_5  and  C_8
REMARK    2  A    between atoms: C_8  and  C_9
REMARK    3  A    between atoms: C_9  and  C_10
REMARK    4  A    between atoms: C_10  and  N_11
REMARK    5  A    between atoms: C_12  and  C_14
REMARK    6  A    between atoms: C_14  and  C_15
REMARK    7  A    between atoms: C_15  and  C_16
REMARK    8  A    between atoms: C_16  and  C_17
REMARK    9  A    between atoms: C_17  and  C_18
REMARK                            x       y       z     vdW  Elec       q    Type
REMARK                         _______ _______ _______ _____ _____    ______ ____
ROOT
ATOM      1  N   UNL     1       3.173  -4.739  -2.422  0.00  0.00    -0.315 N 
ATOM      2  C   UNL     1       3.634  -5.790  -3.129  0.00  0.00    +0.213 C 
ATOM      3  O   UNL     1       3.860  -5.672  -4.314  0.00  0.00    -0.276 OA
ATOM      4  H   UNL     1       2.992  -4.834  -1.474  0.00  0.00    +0.149 HD
ENDROOT
BRANCH   1   5
ATOM      5  C   UNL     1       2.944  -3.454  -3.087  0.00  0.00    +0.102 C 
BRANCH   5   6
ATOM      6  C   UNL     1       2.424  -2.438  -2.067  0.00  0.00    +0.000 C 
BRANCH   6   7
ATOM      7  C   UNL     1       2.185  -1.096  -2.761  0.00  0.00    -0.077 C 
BRANCH   7  12
ATOM      8  C   UNL     1      -0.019   1.544   0.011  0.00  0.00    -0.002 C 
ATOM      9  C   UNL     1       1.397   2.058  -0.000  0.00  0.00    -0.002 C 
ATOM     10  C   UNL     1       1.946   2.302  -1.420  0.00  0.00    -0.019 C 
ATOM     11  C   UNL     1       1.569   1.179  -2.402  0.00  0.00    -0.079 C 
ATOM     12  N   UNL     1       1.686  -0.121  -1.782  0.00  0.00    +0.380 N 
ATOM     13  C   UNL     1       0.344  -0.518  -1.321  0.00  0.00    -0.079 C 
ATOM     14  C   UNL     1       0.002  -0.004   0.002  0.00  0.00    -0.019 C 
ATOM     15  H   UNL     1       2.317  -0.070  -0.997  0.00  0.00    -0.082 HD
ENDBRANCH   7  12
ENDBRANCH   6   7
ENDBRANCH   5   6
ENDBRANCH   1   5
BRANCH   2  16
ATOM     16  C   UNL     1       3.869  -7.113  -2.445  0.00  0.00    +0.096 C 
BRANCH  16  17
ATOM     17  C   UNL     1       4.389  -8.128  -3.465  0.00  0.00    +0.009 C 
BRANCH  17  18
ATOM     18  C   UNL     1       4.628  -9.471  -2.771  0.00  0.00    +0.002 C 
BRANCH  18  19
ATOM     19  C   UNL     1       5.148 -10.486  -3.790  0.00  0.00    +0.016 C 
BRANCH  19  20
ATOM     20  C   UNL     1       5.387 -11.829  -3.096  0.00  0.00    +0.069 C 
ATOM     21  C   UNL     1       5.954 -12.870  -4.085  0.00  0.00    +0.108 C 
ATOM     22  C   UNL     1       5.369 -14.274  -3.902  0.00  0.00    +0.105 C 
ATOM     23  C   UNL     1       4.321 -14.367  -2.772  0.00  0.00    +0.093 C 
ATOM     24  S   UNL     1       3.791 -12.617  -2.610  0.00  0.00    -0.154 S 
ATOM     25  N   UNL     1       4.706 -14.555  -5.186  0.00  0.00    -0.294 N 
ATOM     26  C   UNL     1       4.866 -13.502  -5.999  0.00  0.00    +0.300 C 
ATOM     27  O   UNL     1       4.417 -13.461  -7.128  0.00  0.00    -0.253 OA
ATOM     28  N   UNL     1       5.556 -12.502  -5.452  0.00  0.00    -0.294 N 
ATOM     29  H   UNL     1       4.231 -15.371  -5.407  0.00  0.00    +0.151 HD
ATOM     30  H   UNL     1       5.764 -11.663  -5.893  0.00  0.00    +0.151 HD
ENDBRANCH  19  20
ENDBRANCH  18  19
ENDBRANCH  17  18
ENDBRANCH  16  17
ENDBRANCH   2  16
TORSDOF 9
