REMARK  Name = ZINC64966255
REMARK  8 active torsions:
REMARK  status: ('A' for Active; 'I' for Inactive)
REMARK    1  A    between atoms: C_1  and  C_2
REMARK    2  A    between atoms: C_2  and  N_3
REMARK    3  A    between atoms: C_9  and  C_11
REMARK    4  A    between atoms: C_11  and  N_12
REMARK    5  A    between atoms: C_15  and  S_28
REMARK    6  A    between atoms: S_28  and  N_31
REMARK    7  A    between atoms: N_31  and  C_32
REMARK    8  A    between atoms: N_31  and  C_33
REMARK                            x       y       z     vdW  Elec       q    Type
REMARK                         _______ _______ _______ _____ _____    ______ ____
ROOT
ATOM      1  N   UNL     1      -5.231  -4.972  -2.287  0.00  0.00    -0.259 N 
ATOM      2  C   UNL     1      -6.596  -5.109  -2.008  0.00  0.00    +0.060 A 
ATOM      3  C   UNL     1      -7.181  -4.388  -0.979  0.00  0.00    +0.054 A 
ATOM      4  C   UNL     1      -8.529  -4.543  -0.710  0.00  0.00    +0.107 A 
ATOM      5  C   UNL     1      -9.295  -5.414  -1.464  0.00  0.00    +0.030 A 
ATOM      6  C   UNL     1      -8.718  -6.134  -2.495  0.00  0.00    +0.027 A 
ATOM      7  C   UNL     1      -7.369  -5.980  -2.772  0.00  0.00    +0.052 A 
ATOM      8  N   UNL     1      -6.784  -6.694  -3.834  0.00  0.00    -0.317 N 
ATOM      9  C   UNL     1      -7.478  -7.896  -4.294  0.00  0.00    +0.106 C 
ATOM     10  C   UNL     1      -6.489  -8.953  -4.777  0.00  0.00    +0.019 C 
ATOM     11  C   UNL     1      -5.562  -8.305  -5.812  0.00  0.00    +0.004 C 
ATOM     12  C   UNL     1      -4.712  -7.254  -5.108  0.00  0.00    +0.032 C 
ATOM     13  C   UNL     1      -5.564  -6.187  -4.440  0.00  0.00    +0.160 C 
ATOM     14  C   UNL     1      -4.720  -5.455  -3.430  0.00  0.00    +0.241 C 
ATOM     15  O   UNL     1      -3.538  -5.300  -3.655  0.00  0.00    -0.273 OA
ENDROOT
BRANCH   4  16
ATOM     16  S   UNL     1      -9.274  -3.627   0.598  0.00  0.00    +0.060 S 
ATOM     17  O   UNL     1     -10.426  -4.356   1.000  0.00  0.00    -0.153 OA
ATOM     18  O   UNL     1      -8.232  -3.291   1.503  0.00  0.00    -0.153 OA
BRANCH  16  19
ATOM     19  N   UNL     1      -9.817  -2.203  -0.049  0.00  0.00    -0.183 NA
ATOM     20  C   UNL     1     -11.175  -2.116  -0.592  0.00  0.00    +0.131 C 
ATOM     21  C   UNL     1      -8.940  -1.030  -0.079  0.00  0.00    +0.131 C 
ENDBRANCH  16  19
ENDBRANCH   4  16
BRANCH   1  22
ATOM     22  C   UNL     1      -4.357  -4.292  -1.328  0.00  0.00    +0.209 C 
BRANCH  22  29
ATOM     23  N   UNL     1      -1.376  -0.512   0.012  0.00  0.00    +0.382 N 
ATOM     24  C   UNL     1      -2.051  -0.116  -1.230  0.00  0.00    -0.060 C 
ATOM     25  C   UNL     1      -3.521  -0.546  -1.171  0.00  0.00    +0.089 C 
ATOM     26  N   UNL     1      -3.574  -1.988  -0.884  0.00  0.00    -0.304 N 
ATOM     27  C   UNL     1      -2.790  -2.499   0.251  0.00  0.00    +0.089 C 
ATOM     28  C   UNL     1      -1.355  -1.976   0.125  0.00  0.00    -0.060 C 
ATOM     29  C   UNL     1      -4.319  -2.818  -1.641  0.00  0.00    +0.233 C 
ATOM     30  O   UNL     1      -4.959  -2.379  -2.572  0.00  0.00    -0.274 OA
ATOM     31  H   UNL     1      -1.871  -0.123   0.801  0.00  0.00    -0.082 HD
BRANCH  23  33
ATOM     32  C   UNL     1      -0.019   1.526   0.010  0.00  0.00    -0.017 C 
ATOM     33  C   UNL     1       0.002  -0.004   0.002  0.00  0.00    -0.082 C 
ENDBRANCH  23  33
ENDBRANCH  22  29
ENDBRANCH   1  22
TORSDOF 5
