REMARK  Name = ZINC04126677
REMARK  10 active torsions:
REMARK  status: ('A' for Active; 'I' for Inactive)
REMARK    1  A    between atoms: C_1  and  C_2
REMARK    2  A    between atoms: C_7  and  C_27
REMARK    3  A    between atoms: C_8  and  S_13
REMARK    4  A    between atoms: C_11  and  C_12
REMARK    5  A    between atoms: S_13  and  C_14
REMARK    6  A    between atoms: C_14  and  C_15
REMARK    7  A    between atoms: N_17  and  C_18
REMARK    8  A    between atoms: C_19  and  C_25
REMARK    9  A    between atoms: C_20  and  C_24
REMARK   10  A    between atoms: C_21  and  C_23
REMARK                            x       y       z     vdW  Elec       q    Type
REMARK                         _______ _______ _______ _____ _____    ______ ____
ROOT
ATOM      1  S   UNL     1      -1.011   1.459   1.518  0.00  0.00    -0.096 S 
ENDROOT
BRANCH   1   9
ATOM      2  C   UNL     1       5.370  -2.051   3.396  0.00  0.00    +0.044 C 
ATOM      3  C   UNL     1       4.059  -1.442   3.825  0.00  0.00    -0.045 A 
ATOM      4  C   UNL     1       3.709  -1.449   5.173  0.00  0.00    +0.004 A 
ATOM      5  C   UNL     1       2.532  -0.906   5.591  0.00  0.00    +0.010 A 
ATOM      6  C   UNL     1       1.660  -0.333   4.654  0.00  0.00    +0.001 A 
ATOM      7  C   UNL     1       0.432   0.238   5.050  0.00  0.00    +0.016 A 
ATOM      8  C   UNL     1      -0.365   0.784   4.091  0.00  0.00    -0.018 A 
ATOM      9  C   UNL     1       0.038   0.756   2.747  0.00  0.00    +0.101 A 
ATOM     10  N   UNL     1       1.186   0.220   2.383  0.00  0.00    -0.240 NA
ATOM     11  C   UNL     1       2.013  -0.325   3.283  0.00  0.00    +0.075 A 
ATOM     12  C   UNL     1       3.236  -0.894   2.889  0.00  0.00    -0.022 A 
ATOM     13  C   UNL     1       3.636  -0.898   1.436  0.00  0.00    +0.046 C 
ATOM     14  C   UNL     1      -1.682   1.410   4.470  0.00  0.00    +0.046 C 
ENDBRANCH   1   9
BRANCH   1  15
ATOM     15  C   UNL     1      -0.013   1.153   0.040  0.00  0.00    +0.171 C 
BRANCH  15  16
ATOM     16  C   UNL     1      -0.733   1.686  -1.172  0.00  0.00    +0.228 C 
ATOM     17  O   UNL     1      -1.814   2.221  -1.048  0.00  0.00    -0.275 OA
ATOM     18  N   UNL     1      -0.175   1.569  -2.393  0.00  0.00    -0.278 N 
ATOM     19  H   UNL     1       0.690   1.142  -2.492  0.00  0.00    +0.155 HD
BRANCH  18  20
ATOM     20  C   UNL     1      -0.838   2.060  -3.509  0.00  0.00    +0.090 A 
ATOM     21  C   UNL     1      -0.430   2.034  -4.836  0.00  0.00    +0.083 A 
ATOM     22  C   UNL     1      -1.325   2.623  -5.803  0.00  0.00    -0.021 A 
ATOM     23  C   UNL     1      -2.474   3.145  -5.338  0.00  0.00    -0.007 A 
ATOM     24  S   UNL     1      -2.378   2.848  -3.584  0.00  0.00    -0.077 S 
ATOM     25  C   UNL     1      -3.580   3.814  -6.114  0.00  0.00    +0.052 C 
ATOM     26  C   UNL     1      -0.986   2.652  -7.271  0.00  0.00    +0.046 C 
BRANCH  21  27
ATOM     27  C   UNL     1       0.819   1.452  -5.226  0.00  0.00    +0.102 C 
ATOM     28  N   UNL     1       1.810   0.990  -5.535  0.00  0.00    -0.191 NA
ENDBRANCH  21  27
ENDBRANCH  18  20
ENDBRANCH  15  16
ENDBRANCH   1  15
TORSDOF 5
