REMARK  Name = ZINC01021521
REMARK  6 active torsions:
REMARK  status: ('A' for Active; 'I' for Inactive)
REMARK    1  A    between atoms: C_4  and  C_7
REMARK    2  A    between atoms: C_7  and  C_8
REMARK    3  A    between atoms: C_7  and  C_14
REMARK    4  A    between atoms: C_7  and  O_28
REMARK    5  A    between atoms: N_16  and  N_17
REMARK    6  A    between atoms: C_18  and  C_19
REMARK                            x       y       z     vdW  Elec       q    Type
REMARK                         _______ _______ _______ _____ _____    ______ ____
ROOT
ATOM      1  C   UNL     1      -1.236   9.691   0.069  0.00  0.00    +0.194 C 
ENDROOT
BRANCH   1   5
ATOM      2  C   UNL     1      -2.115  12.220   3.397  0.00  0.00    +0.000 A 
ATOM      3  C   UNL     1      -2.648  12.504   2.154  0.00  0.00    +0.000 A 
ATOM      4  C   UNL     1      -2.363  11.685   1.077  0.00  0.00    +0.007 A 
ATOM      5  C   UNL     1      -1.546  10.583   1.243  0.00  0.00    -0.003 A 
ATOM      6  C   UNL     1      -1.018  10.296   2.488  0.00  0.00    +0.007 A 
ATOM      7  C   UNL     1      -1.298  11.117   3.564  0.00  0.00    +0.000 A 
ENDBRANCH   1   5
BRANCH   1   8
ATOM      8  C   UNL     1       0.128  10.032  -0.475  0.00  0.00    -0.003 A 
ATOM      9  C   UNL     1       1.229  10.017   0.361  0.00  0.00    +0.007 A 
ATOM     10  C   UNL     1       2.480  10.325  -0.139  0.00  0.00    +0.000 A 
ATOM     11  C   UNL     1       2.630  10.658  -1.472  0.00  0.00    +0.000 A 
ATOM     12  C   UNL     1       1.528  10.679  -2.307  0.00  0.00    +0.000 A 
ATOM     13  C   UNL     1       0.277  10.365  -1.808  0.00  0.00    +0.007 A 
ENDBRANCH   1   8
BRANCH   1  14
ATOM     14  C   UNL     1      -1.253   8.251   0.513  0.00  0.00    +0.273 C 
ATOM     15  O   UNL     1      -0.220   7.702   0.833  0.00  0.00    -0.270 OA
ATOM     16  N   UNL     1      -2.417   7.573   0.555  0.00  0.00    -0.204 N 
ATOM     17  H   UNL     1      -3.244   8.012   0.300  0.00  0.00    +0.177 HD
BRANCH  16  18
ATOM     18  N   UNL     1      -2.434   6.235   0.969  0.00  0.00    -0.188 NA
ATOM     19  C   UNL     1      -3.556   5.581   1.010  0.00  0.00    +0.139 C 
BRANCH  19  20
ATOM     20  C   UNL     1      -3.574   4.176   1.443  0.00  0.00    +0.009 A 
ATOM     21  C   UNL     1      -4.737   3.475   1.476  0.00  0.00    +0.055 A 
ATOM     22  S   UNL     1      -4.237   1.864   2.052  0.00  0.00    -0.096 S 
ATOM     23  C   UNL     1      -2.494   2.154   2.221  0.00  0.00    +0.020 A 
ATOM     24  C   UNL     1      -2.334   3.499   1.833  0.00  0.00    -0.002 A 
ATOM     25  C   UNL     1      -1.021   4.016   1.861  0.00  0.00    +0.009 A 
ATOM     26  C   UNL     1       0.031   3.232   2.256  0.00  0.00    +0.001 A 
ATOM     27  C   UNL     1      -0.158   1.911   2.639  0.00  0.00    +0.001 A 
ATOM     28  C   UNL     1      -1.430   1.375   2.623  0.00  0.00    +0.015 A 
ENDBRANCH  19  20
ENDBRANCH  16  18
ENDBRANCH   1  14
BRANCH   1  29
ATOM     29  O   UNL     1      -2.217   9.887  -0.951  0.00  0.00    -0.371 OA
ATOM     30  H   UNL     1      -2.080   9.343  -1.739  0.00  0.00    +0.212 HD
ENDBRANCH   1  29
TORSDOF 6
