REMARK  Name = ZINC38610504
REMARK  4 active torsions:
REMARK  status: ('A' for Active; 'I' for Inactive)
REMARK    1  A    between atoms: C_4  and  C_7
REMARK    2  A    between atoms: C_7  and  C_8
REMARK    3  A    between atoms: C_8  and  S_9
REMARK    4  A    between atoms: S_9  and  C_10
REMARK                            x       y       z     vdW  Elec       q    Type
REMARK                         _______ _______ _______ _____ _____    ______ ____
ROOT
ATOM      1  C   UNL     1       6.144  -2.065   3.083  0.00  0.00    +0.182 C 
ATOM      2  N   UNL     1       5.288  -1.592   3.967  0.00  0.00    -0.151 NA
ATOM      3  C   UNL     1       5.443  -1.682   5.296  0.00  0.00    +0.272 C 
ATOM      4  O   UNL     1       4.629  -1.231   6.084  0.00  0.00    -0.268 OA
ATOM      5  C   UNL     1       6.696  -2.382   5.740  0.00  0.00    +0.071 C 
ATOM      6  C   UNL     1       7.045  -2.664   6.991  0.00  0.00    -0.037 C 
ATOM      7  C   UNL     1       6.144  -2.529   8.216  0.00  0.00    +0.037 C 
ATOM      8  C   UNL     1       5.896  -3.949   8.719  0.00  0.00    +0.040 C 
ATOM      9  C   UNL     1       7.125  -4.815   8.684  0.00  0.00    -0.043 A 
ATOM     10  C   UNL     1       7.075  -5.987   9.437  0.00  0.00    +0.004 A 
ATOM     11  C   UNL     1       8.136  -6.865   9.458  0.00  0.00    +0.000 A 
ATOM     12  C   UNL     1       9.273  -6.590   8.721  0.00  0.00    +0.000 A 
ATOM     13  C   UNL     1       9.335  -5.427   7.981  0.00  0.00    +0.005 A 
ATOM     14  C   UNL     1       8.271  -4.536   7.971  0.00  0.00    -0.027 A 
ATOM     15  C   UNL     1       8.435  -3.259   7.193  0.00  0.00    +0.110 C 
ATOM     16  S   UNL     1       8.953  -3.612   5.470  0.00  0.00    -0.093 S 
ATOM     17  C   UNL     1       7.583  -2.865   4.644  0.00  0.00    +0.113 C 
ATOM     18  N   UNL     1       7.287  -2.704   3.380  0.00  0.00    -0.217 NA
ENDROOT
BRANCH   1  19
ATOM     19  S   UNL     1       5.754  -1.849   1.378  0.00  0.00    -0.088 S 
BRANCH  19  20
ATOM     20  C   UNL     1       4.171  -0.963   1.399  0.00  0.00    +0.082 C 
BRANCH  20  21
ATOM     21  C   UNL     1       3.711  -0.707  -0.038  0.00  0.00    +0.046 C 
BRANCH  21  25
ATOM     22  C   UNL     1      -0.017   1.378   0.010  0.00  0.00    +0.000 A 
ATOM     23  C   UNL     1       1.171   2.086   0.002  0.00  0.00    +0.000 A 
ATOM     24  C   UNL     1       2.377   1.411  -0.013  0.00  0.00    +0.003 A 
ATOM     25  C   UNL     1       2.396   0.029  -0.020  0.00  0.00    -0.047 A 
ATOM     26  C   UNL     1       1.208  -0.679  -0.012  0.00  0.00    +0.003 A 
ATOM     27  C   UNL     1       0.002  -0.004   0.002  0.00  0.00    +0.000 A 
ENDBRANCH  21  25
ENDBRANCH  20  21
ENDBRANCH  19  20
ENDBRANCH   1  19
TORSDOF 4
