REMARK  Name = ZINC53604848
REMARK  4 active torsions:
REMARK  status: ('A' for Active; 'I' for Inactive)
REMARK    1  A    between atoms: C_6  and  C_11
REMARK    2  A    between atoms: C_11  and  C_12
REMARK    3  A    between atoms: N_14  and  N_15
REMARK    4  A    between atoms: C_16  and  C_18
REMARK                            x       y       z     vdW  Elec       q    Type
REMARK                         _______ _______ _______ _____ _____    ______ ____
ROOT
ATOM      1  C   UNL     1       5.463  -2.949   1.355  0.00  0.00    +0.233 C 
ATOM      2  O   UNL     1       4.781  -2.575   2.285  0.00  0.00    -0.274 OA
ATOM      3  N   UNL     1       6.627  -3.587   1.586  0.00  0.00    -0.234 N 
ATOM      4  H   UNL     1       7.172  -3.886   0.842  0.00  0.00    +0.173 HD
ENDROOT
BRANCH   3   5
ATOM      5  N   UNL     1       7.050  -3.818   2.902  0.00  0.00    -0.234 N 
ATOM      6  C   UNL     1       8.214  -4.456   3.133  0.00  0.00    +0.232 C 
ATOM      7  O   UNL     1       8.896  -4.830   2.203  0.00  0.00    -0.274 OA
ATOM      8  H   UNL     1       6.504  -3.519   3.646  0.00  0.00    +0.173 HD
BRANCH   6   9
ATOM      9  C   UNL     1       8.669  -4.705   4.548  0.00  0.00    +0.080 C 
ATOM     10  C   UNL     1      10.008  -5.452   4.536  0.00  0.00    +0.017 C 
ATOM     11  C   UNL     1      10.531  -5.532   5.972  0.00  0.00    +0.027 C 
ATOM     12  C   UNL     1       9.453  -6.033   6.887  0.00  0.00    -0.031 C 
ATOM     13  C   UNL     1       8.194  -6.046   6.586  0.00  0.00    -0.030 C 
ATOM     14  C   UNL     1       7.636  -5.568   5.277  0.00  0.00    +0.039 C 
ENDBRANCH   6   9
ENDBRANCH   3   5
BRANCH   1  15
ATOM     15  C   UNL     1       5.008  -2.700  -0.060  0.00  0.00    +0.132 C 
BRANCH  15  21
ATOM     16  C   UNL     1      -0.016   1.357   0.009  0.00  0.00    +0.001 A 
ATOM     17  C   UNL     1       1.169   2.091   0.002  0.00  0.00    +0.001 A 
ATOM     18  C   UNL     1       2.378   1.468  -0.013  0.00  0.00    +0.008 A 
ATOM     19  C   UNL     1       2.438   0.063  -0.021  0.00  0.00    -0.018 A 
ATOM     20  C   UNL     1       3.668  -0.615  -0.036  0.00  0.00    +0.012 A 
ATOM     21  C   UNL     1       3.687  -1.976  -0.043  0.00  0.00    -0.038 A 
ATOM     22  C   UNL     1       2.502  -2.710  -0.036  0.00  0.00    +0.005 A 
ATOM     23  C   UNL     1       1.292  -2.087  -0.021  0.00  0.00    +0.009 A 
ATOM     24  C   UNL     1       1.233  -0.683  -0.013  0.00  0.00    -0.018 A 
ATOM     25  C   UNL     1       0.002  -0.004   0.002  0.00  0.00    +0.008 A 
ENDBRANCH  15  21
ENDBRANCH   1  15
TORSDOF 4
