REMARK  Name = ZINC63710276
REMARK  7 active torsions:
REMARK  status: ('A' for Active; 'I' for Inactive)
REMARK    1  A    between atoms: C_1  and  C_2
REMARK    2  A    between atoms: C_4  and  N_9
REMARK    3  A    between atoms: C_10  and  S_21
REMARK    4  A    between atoms: C_15  and  C_18
REMARK    5  A    between atoms: S_21  and  C_22
REMARK    6  A    between atoms: C_22  and  C_23
REMARK    7  A    between atoms: N_25  and  C_26
REMARK                            x       y       z     vdW  Elec       q    Type
REMARK                         _______ _______ _______ _____ _____    ______ ____
ROOT
ATOM      1  N   UNL     1       0.003  -2.742  -2.409  0.00  0.00    -0.253 N 
ATOM      2  C   UNL     1       0.135  -4.201  -2.437  0.00  0.00    +0.260 C 
ATOM      3  N   UNL     1       1.159  -4.657  -3.382  0.00  0.00    -0.230 NA
ATOM      4  C   UNL     1       1.439  -3.955  -4.431  0.00  0.00    +0.185 C 
ATOM      5  C   UNL     1       0.815  -2.605  -4.650  0.00  0.00    +0.083 C 
ATOM      6  C   UNL     1       1.309  -2.171  -5.814  0.00  0.00    +0.075 C 
ATOM      7  N   UNL     1       2.167  -3.103  -6.278  0.00  0.00    -0.152 NA
ATOM      8  N   UNL     1       2.263  -4.123  -5.494  0.00  0.00    -0.129 NA
ATOM      9  C   UNL     1       0.968  -0.867  -6.489  0.00  0.00    +0.068 C 
ATOM     10  C   UNL     1      -0.116  -2.062  -3.634  0.00  0.00    +0.133 C 
ATOM     11  N   UNL     1      -0.944  -1.076  -3.847  0.00  0.00    -0.285 NA
ATOM     12  H   UNL     1      -0.977  -0.649  -4.717  0.00  0.00    +0.188 HD
ENDROOT
BRANCH   1  16
ATOM     13  C   UNL     1      -0.044   1.537   0.011  0.00  0.00    +0.045 C 
ATOM     14  C   UNL     1      -0.032   0.030   0.006  0.00  0.00    -0.030 A 
ATOM     15  C   UNL     1      -0.020  -0.656  -1.192  0.00  0.00    +0.028 A 
ATOM     16  C   UNL     1      -0.009  -2.045  -1.196  0.00  0.00    +0.038 A 
ATOM     17  C   UNL     1      -0.010  -2.740   0.006  0.00  0.00    +0.025 A 
ATOM     18  C   UNL     1      -0.022  -2.049   1.202  0.00  0.00    +0.022 A 
ATOM     19  C   UNL     1      -0.028  -0.665   1.203  0.00  0.00    +0.044 A 
ATOM     20 CL   UNL     1      -0.036   0.200   2.708  0.00  0.00    -0.083 Cl
ENDBRANCH   1  16
BRANCH   2  21
ATOM     21  S   UNL     1      -1.460  -4.925  -2.910  0.00  0.00    -0.106 S 
BRANCH  21  22
ATOM     22  C   UNL     1      -1.787  -4.229  -4.553  0.00  0.00    +0.168 C 
BRANCH  22  23
ATOM     23  C   UNL     1      -3.101  -4.756  -5.069  0.00  0.00    +0.227 C 
ATOM     24  O   UNL     1      -3.752  -5.525  -4.395  0.00  0.00    -0.275 OA
ATOM     25  N   UNL     1      -3.552  -4.372  -6.280  0.00  0.00    -0.285 N 
ATOM     26  H   UNL     1      -2.995  -3.821  -6.853  0.00  0.00    +0.155 HD
BRANCH  25  27
ATOM     27  C   UNL     1      -4.822  -4.769  -6.712  0.00  0.00    +0.033 A 
ATOM     28  C   UNL     1      -5.046  -5.048  -8.053  0.00  0.00    +0.024 A 
ATOM     29  C   UNL     1      -6.301  -5.441  -8.476  0.00  0.00    +0.017 A 
ATOM     30  C   UNL     1      -7.335  -5.556  -7.565  0.00  0.00    +0.018 A 
ATOM     31  C   UNL     1      -7.115  -5.278  -6.227  0.00  0.00    +0.017 A 
ATOM     32  C   UNL     1      -5.861  -4.891  -5.798  0.00  0.00    +0.024 A 
ATOM     33 BR   UNL     1      -9.052  -6.092  -8.148  0.00  0.00    -0.050 Br
ENDBRANCH  25  27
ENDBRANCH  22  23
ENDBRANCH  21  22
ENDBRANCH   2  21
TORSDOF 5
