REMARK  Name = ZINC39777149
REMARK  7 active torsions:
REMARK  status: ('A' for Active; 'I' for Inactive)
REMARK    1  A    between atoms: C_1  and  C_2
REMARK    2  A    between atoms: C_2  and  O_3
REMARK    3  A    between atoms: O_3  and  C_4
REMARK    4  A    between atoms: C_4  and  C_6
REMARK    5  A    between atoms: C_8  and  N_17
REMARK    6  A    between atoms: C_18  and  C_20
REMARK    7  A    between atoms: C_22  and  O_32
REMARK                            x       y       z     vdW  Elec       q    Type
REMARK                         _______ _______ _______ _____ _____    ______ ____
ROOT
ATOM      1  N   UNL     1      -2.737  -1.643  -2.344  0.00  0.00    -0.301 N 
ATOM      2  C   UNL     1      -3.025  -2.073  -3.588  0.00  0.00    +0.233 C 
ATOM      3  O   UNL     1      -4.038  -2.708  -3.791  0.00  0.00    -0.274 OA
ATOM      4  H   UNL     1      -1.926  -1.135  -2.181  0.00  0.00    +0.150 HD
ENDROOT
BRANCH   2   5
ATOM      5  C   UNL     1      -2.087  -1.766  -4.727  0.00  0.00    +0.226 C 
ATOM      6  C   UNL     1      -2.717  -2.290  -6.003  0.00  0.00    +0.124 C 
ATOM      7  C   UNL     1      -1.982  -3.224  -6.737  0.00  0.00    +0.035 A 
ATOM      8  C   UNL     1      -2.494  -3.762  -7.935  0.00  0.00    +0.013 A 
ATOM      9  C   UNL     1      -1.757  -4.670  -8.632  0.00  0.00    +0.001 A 
ATOM     10  C   UNL     1      -0.505  -5.080  -8.185  0.00  0.00    +0.002 A 
ATOM     11  C   UNL     1       0.042  -4.596  -7.034  0.00  0.00    +0.024 A 
ATOM     12  C   UNL     1      -0.663  -3.655  -6.264  0.00  0.00    +0.044 A 
ATOM     13  N   UNL     1      -0.124  -3.180  -5.135  0.00  0.00    -0.284 N 
ATOM     14  C   UNL     1      -0.720  -2.298  -4.359  0.00  0.00    +0.237 C 
ATOM     15  O   UNL     1      -0.170  -1.911  -3.345  0.00  0.00    -0.274 OA
ATOM     16  H   UNL     1       0.752  -3.503  -4.873  0.00  0.00    +0.155 HD
BRANCH   6  17
ATOM     17  O   UNL     1      -3.923  -1.877  -6.407  0.00  0.00    -0.509 OA
ATOM     18  H   UNL     1      -4.220  -2.281  -7.234  0.00  0.00    +0.292 HD
ENDBRANCH   6  17
ENDBRANCH   2   5
BRANCH   1  20
ATOM     19  C   UNL     1      -2.881  -2.427   0.017  0.00  0.00    +0.155 C 
ATOM     20  C   UNL     1      -3.649  -1.941  -1.236  0.00  0.00    +0.153 C 
ATOM     21  S   UNL     1      -4.638  -3.460  -1.564  0.00  0.00    -0.106 S 
ATOM     22  C   UNL     1      -3.614  -4.627  -0.699  0.00  0.00    -0.013 C 
ATOM     23  C   UNL     1      -2.771  -3.930   0.050  0.00  0.00    -0.044 C 
ATOM     24  C   UNL     1      -1.727  -4.632   0.916  0.00  0.00    +0.032 C 
ATOM     25  C   UNL     1      -2.142  -6.088   1.122  0.00  0.00    +0.005 C 
ATOM     26  C   UNL     1      -2.421  -6.737  -0.238  0.00  0.00    +0.005 C 
ATOM     27  C   UNL     1      -3.701  -6.123  -0.811  0.00  0.00    +0.042 C 
BRANCH  19  28
ATOM     28  C   UNL     1      -1.496  -1.832   0.006  0.00  0.00    +0.317 C 
ATOM     29  O   UNL     1      -0.528  -2.555  -0.007  0.00  0.00    -0.250 OA
BRANCH  28  30
ATOM     30  O   UNL     1      -1.339  -0.499   0.012  0.00  0.00    -0.464 OA
BRANCH  30  32
ATOM     31  C   UNL     1      -0.019   1.526   0.010  0.00  0.00    +0.048 C 
ATOM     32  C   UNL     1       0.002  -0.004   0.002  0.00  0.00    +0.229 C 
ENDBRANCH  30  32
ENDBRANCH  28  30
ENDBRANCH  19  28
ENDBRANCH   1  20
TORSDOF 6
