REMARK  Name = ZINC12424793
REMARK  9 active torsions:
REMARK  status: ('A' for Active; 'I' for Inactive)
REMARK    1  A    between atoms: C_1  and  C_2
REMARK    2  A    between atoms: C_5  and  N_11
REMARK    3  A    between atoms: C_6  and  N_8
REMARK    4  A    between atoms: C_12  and  C_14
REMARK    5  A    between atoms: C_14  and  C_16
REMARK    6  A    between atoms: C_14  and  O_22
REMARK    7  A    between atoms: O_22  and  C_23
REMARK    8  A    between atoms: C_23  and  C_25
REMARK    9  A    between atoms: C_25  and  C_26
REMARK                            x       y       z     vdW  Elec       q    Type
REMARK                         _______ _______ _______ _____ _____    ______ ____
ROOT
ATOM      1  C   UNL     1      -4.972   3.123   0.025  0.00  0.00    +0.292 C 
ENDROOT
BRANCH   1   2
ATOM      2  C   UNL     1      -5.220   4.116   1.131  0.00  0.00    +0.002 A 
ATOM      3  C   UNL     1      -5.516   3.671   2.406  0.00  0.00    +0.008 A 
ATOM      4  C   UNL     1      -5.739   4.582   3.421  0.00  0.00    +0.000 A 
ATOM      5  C   UNL     1      -5.677   5.938   3.160  0.00  0.00    +0.000 A 
ATOM      6  C   UNL     1      -5.386   6.383   1.884  0.00  0.00    +0.000 A 
ATOM      7  C   UNL     1      -5.158   5.472   0.869  0.00  0.00    +0.008 A 
ENDBRANCH   1   2
BRANCH   1   9
ATOM      8  N   UNL     1      -2.521   3.456   0.035  0.00  0.00    -0.280 N 
ATOM      9  C   UNL     1      -3.561   2.603   0.124  0.00  0.00    +0.263 C 
ATOM     10  O   UNL     1      -3.361   1.418   0.283  0.00  0.00    -0.271 OA
ATOM     11  H   UNL     1      -2.680   4.412  -0.012  0.00  0.00    +0.155 HD
BRANCH   8  16
ATOM     12  C   UNL     1       2.787   1.456  -0.060  0.00  0.00    +0.044 C 
ATOM     13  C   UNL     1       1.377   1.987  -0.035  0.00  0.00    -0.048 A 
ATOM     14  C   UNL     1       0.457   1.459   0.852  0.00  0.00    +0.005 A 
ATOM     15  C   UNL     1      -0.838   1.940   0.874  0.00  0.00    +0.026 A 
ATOM     16  C   UNL     1      -1.212   2.963   0.012  0.00  0.00    +0.064 A 
ATOM     17  C   UNL     1      -0.285   3.490  -0.878  0.00  0.00    +0.148 A 
ATOM     18  C   UNL     1       1.006   3.001  -0.899  0.00  0.00    +0.038 A 
BRANCH  17  19
ATOM     19  N   UNL     1      -0.681   4.576  -1.802  0.00  0.00    +0.058 N 
ATOM     20  O   UNL     1       0.140   5.059  -2.561  0.00  0.00    -0.126 OA
ATOM     21  O   UNL     1      -1.828   4.987  -1.804  0.00  0.00    -0.126 OA
ENDBRANCH  17  19
ENDBRANCH   8  16
ENDBRANCH   1   9
BRANCH   1  22
ATOM     22  O   UNL     1      -5.905   2.017   0.149  0.00  0.00    -0.447 OA
BRANCH  22  23
ATOM     23  C   UNL     1      -7.077   2.133  -0.495  0.00  0.00    +0.310 C 
ATOM     24  O   UNL     1      -7.315   3.126  -1.141  0.00  0.00    -0.251 OA
BRANCH  23  25
ATOM     25  C   UNL     1      -8.095   1.026  -0.412  0.00  0.00    +0.144 C 
BRANCH  25  26
ATOM     26  C   UNL     1      -9.331   1.407  -1.229  0.00  0.00    +0.148 C 
ATOM     27  C   UNL     1     -10.399   0.359  -1.051  0.00  0.00    +0.231 C 
ATOM     28  O   UNL     1     -11.287   0.571  -0.251  0.00  0.00    -0.274 OA
ATOM     29  N   UNL     1     -10.416  -0.785  -1.726  0.00  0.00    -0.284 N 
ATOM     30  C   UNL     1      -9.557  -1.151  -2.759  0.00  0.00    +0.047 A 
ATOM     31  C   UNL     1      -9.469  -2.491  -3.124  0.00  0.00    +0.024 A 
ATOM     32  C   UNL     1      -8.620  -2.881  -4.141  0.00  0.00    +0.002 A 
ATOM     33  C   UNL     1      -7.848  -1.947  -4.807  0.00  0.00    +0.001 A 
ATOM     34  C   UNL     1      -7.928  -0.612  -4.456  0.00  0.00    +0.016 A 
ATOM     35  C   UNL     1      -8.780  -0.215  -3.439  0.00  0.00    +0.030 A 
ATOM     36  S   UNL     1      -8.896   1.490  -2.994  0.00  0.00    -0.110 S 
ATOM     37  H   UNL     1     -11.095  -1.430  -1.475  0.00  0.00    +0.155 HD
ENDBRANCH  25  26
ENDBRANCH  23  25
ENDBRANCH  22  23
ENDBRANCH   1  22
TORSDOF 8
