REMARK  Name = ZINC40706381
REMARK  7 active torsions:
REMARK  status: ('A' for Active; 'I' for Inactive)
REMARK    1  A    between atoms: C_1  and  C_2
REMARK    2  A    between atoms: C_2  and  C_3
REMARK    3  A    between atoms: C_2  and  C_4
REMARK    4  A    between atoms: C_7  and  N_10
REMARK    5  A    between atoms: C_12  and  N_28
REMARK    6  A    between atoms: C_13  and  S_17
REMARK    7  A    between atoms: S_17  and  C_18
REMARK                            x       y       z     vdW  Elec       q    Type
REMARK                         _______ _______ _______ _____ _____    ______ ____
ROOT
ATOM      1  N   UNL     1      -5.384  -1.708  -0.127  0.00  0.00    -0.298 N 
ATOM      2  C   UNL     1      -5.867  -2.458  -1.194  0.00  0.00    +0.148 A 
ATOM      3  C   UNL     1      -7.177  -2.939  -1.187  0.00  0.00    +0.098 A 
ATOM      4  C   UNL     1      -7.611  -3.686  -2.284  0.00  0.00    +0.127 A 
ATOM      5  N   UNL     1      -6.765  -3.909  -3.288  0.00  0.00    -0.227 NA
ATOM      6  C   UNL     1      -5.536  -3.436  -3.255  0.00  0.00    +0.224 A 
ATOM      7  N   UNL     1      -5.089  -2.722  -2.241  0.00  0.00    -0.219 NA
ATOM      8  H   UNL     1      -5.931  -1.582   0.664  0.00  0.00    +0.154 HD
ENDROOT
BRANCH   1  12
ATOM      9  C   UNL     1      -1.590  -0.003  -0.327  0.00  0.00    -0.045 A 
ATOM     10  C   UNL     1      -2.348  -0.137  -1.476  0.00  0.00    +0.006 A 
ATOM     11  C   UNL     1      -3.606  -0.702  -1.413  0.00  0.00    +0.023 A 
ATOM     12  C   UNL     1      -4.111  -1.136  -0.194  0.00  0.00    +0.032 A 
ATOM     13  C   UNL     1      -3.347  -1.000   0.958  0.00  0.00    +0.023 A 
ATOM     14  C   UNL     1      -2.087  -0.440   0.887  0.00  0.00    +0.006 A 
BRANCH   9  16
ATOM     15  C   UNL     1       0.665  -0.213  -1.337  0.00  0.00    +0.012 C 
ATOM     16  C   UNL     1      -0.217   0.614  -0.400  0.00  0.00    +0.013 C 
ATOM     17  C   UNL     1      -0.328   2.043  -0.933  0.00  0.00    +0.012 C 
ENDBRANCH   9  16
ENDBRANCH   1  12
BRANCH   3  18
ATOM     18  N   UNL     1      -8.035  -2.680  -0.106  0.00  0.00    -0.353 N 
ATOM     19  H   UNL     1      -7.719  -2.160   0.649  0.00  0.00    +0.142 HD
ATOM     20  H   UNL     1      -8.943  -3.022  -0.115  0.00  0.00    +0.142 HD
ENDBRANCH   3  18
BRANCH   4  21
ATOM     21  S   UNL     1      -9.253  -4.325  -2.339  0.00  0.00    -0.066 S 
BRANCH  21  22
ATOM     22  C   UNL     1      -9.283  -5.295  -3.809  0.00  0.00    +0.040 A 
ATOM     23  C   UNL     1      -9.243  -6.672  -3.734  0.00  0.00    +0.017 A 
ATOM     24  C   UNL     1      -9.266  -7.449  -4.887  0.00  0.00    +0.002 A 
ATOM     25  C   UNL     1      -9.329  -6.873  -6.120  0.00  0.00    +0.010 A 
ATOM     26  C   UNL     1      -9.373  -5.475  -6.239  0.00  0.00    +0.001 A 
ATOM     27  C   UNL     1      -9.355  -4.670  -5.074  0.00  0.00    +0.085 A 
ATOM     28  N   UNL     1      -9.401  -3.340  -5.183  0.00  0.00    -0.254 NA
ATOM     29  C   UNL     1      -9.468  -2.754  -6.353  0.00  0.00    +0.111 A 
ATOM     30  C   UNL     1      -9.494  -3.485  -7.539  0.00  0.00    +0.020 A 
ATOM     31  C   UNL     1      -9.438  -4.849  -7.499  0.00  0.00    +0.011 A 
ENDBRANCH  21  22
ENDBRANCH   4  21
TORSDOF 5
