REMARK  Name = ZINC37404937
REMARK  4 active torsions:
REMARK  status: ('A' for Active; 'I' for Inactive)
REMARK    1  A    between atoms: C_1  and  C_2
REMARK    2  A    between atoms: C_2  and  C_3
REMARK    3  A    between atoms: N_8  and  S_10
REMARK    4  A    between atoms: S_10  and  C_13
REMARK                            x       y       z     vdW  Elec       q    Type
REMARK                         _______ _______ _______ _____ _____    ______ ____
ROOT
ATOM      1  S   UNL     1       2.765  -3.454  -2.493  0.00  0.00    +0.064 S 
ATOM      2  O   UNL     1       2.814  -4.106  -1.231  0.00  0.00    -0.153 OA
ATOM      3  O   UNL     1       2.738  -4.171  -3.720  0.00  0.00    -0.153 OA
ENDROOT
BRANCH   1   4
ATOM      4  C   UNL     1       4.167  -2.389  -2.564  0.00  0.00    +0.142 A 
ATOM      5  C   UNL     1       4.677  -1.997  -3.788  0.00  0.00    +0.070 A 
ATOM      6  C   UNL     1       5.777  -1.160  -3.844  0.00  0.00    +0.037 A 
ATOM      7  C   UNL     1       6.367  -0.715  -2.675  0.00  0.00    +0.021 A 
ATOM      8  C   UNL     1       5.857  -1.106  -1.450  0.00  0.00    +0.037 A 
ATOM      9  C   UNL     1       4.753  -1.939  -1.394  0.00  0.00    +0.070 A 
ATOM     10 CL   UNL     1       4.109  -2.424   0.143  0.00  0.00    -0.081 Cl
ATOM     11 BR   UNL     1       7.871   0.429  -2.751  0.00  0.00    -0.050 Br
ATOM     12 CL   UNL     1       3.937  -2.557  -5.256  0.00  0.00    -0.081 Cl
ENDBRANCH   1   4
BRANCH   1  17
ATOM     13  C   UNL     1       0.718  -0.497  -1.257  0.00  0.00    +0.005 C 
ATOM     14  C   UNL     1      -0.090  -0.098  -2.494  0.00  0.00    +0.006 C 
ATOM     15  C   UNL     1       0.642  -0.563  -3.755  0.00  0.00    +0.017 C 
ATOM     16  C   UNL     1       0.771  -2.089  -3.733  0.00  0.00    +0.109 C 
ATOM     17  N   UNL     1       1.418  -2.491  -2.477  0.00  0.00    -0.176 NA
ATOM     18  C   UNL     1       0.848  -2.023  -1.206  0.00  0.00    +0.113 C 
BRANCH  13  20
ATOM     19  C   UNL     1      -0.019   1.526   0.010  0.00  0.00    +0.004 C 
ATOM     20  C   UNL     1       0.002  -0.004   0.002  0.00  0.00    +0.001 C 
ENDBRANCH  13  20
ENDBRANCH   1  17
TORSDOF 3
