REMARK  Name = ZINC24142091
REMARK  3 active torsions:
REMARK  status: ('A' for Active; 'I' for Inactive)
REMARK    1  A    between atoms: C_8  and  C_10
REMARK    2  A    between atoms: C_13  and  C_15
REMARK    3  A    between atoms: C_20  and  C_23
REMARK                            x       y       z     vdW  Elec       q    Type
REMARK                         _______ _______ _______ _____ _____    ______ ____
ROOT
ATOM      1  C   UNL     1       0.910   6.027   0.210  0.00  0.00    +0.253 C 
ATOM      2  O   UNL     1       0.274   7.064   0.251  0.00  0.00    -0.269 OA
ATOM      3  N   UNL     1       2.257   6.061   0.242  0.00  0.00    -0.297 N 
ATOM      4  C   UNL     1       3.041   4.835   0.039  0.00  0.00    +0.109 C 
ATOM      5  C   UNL     1       4.054   5.085  -1.089  0.00  0.00    +0.032 C 
ATOM      6  C   UNL     1       4.894   6.319  -0.749  0.00  0.00    +0.078 C 
ATOM      7  C   UNL     1       3.982   7.543  -0.640  0.00  0.00    +0.032 C 
ATOM      8  C   UNL     1       2.968   7.322   0.487  0.00  0.00    +0.109 C 
ENDROOT
BRANCH   6   9
ATOM      9  C   UNL     1       5.914   6.547  -1.834  0.00  0.00    +0.219 C 
ATOM     10  O   UNL     1       5.830   7.522  -2.550  0.00  0.00    -0.275 OA
ATOM     11  N   UNL     1       6.920   5.667  -2.009  0.00  0.00    -0.301 N 
ATOM     12  C   UNL     1       7.840   5.875  -3.104  0.00  0.00    +0.108 C 
ATOM     13  C   UNL     1       7.315   5.170  -4.373  0.00  0.00    +0.019 C 
ATOM     14  C   UNL     1       7.431   3.711  -4.231  0.00  0.00    +0.002 C 
ATOM     15  C   UNL     1       6.598   3.121  -3.097  0.00  0.00    +0.002 C 
ATOM     16  C   UNL     1       7.373   3.214  -1.806  0.00  0.00    +0.019 C 
ATOM     17  C   UNL     1       7.032   4.527  -1.078  0.00  0.00    +0.108 C 
ENDBRANCH   6   9
BRANCH   1  21
ATOM     18  C   UNL     1      -0.671   2.189   0.150  0.00  0.00    +0.045 A 
ATOM     19  C   UNL     1      -1.522   3.184  -0.309  0.00  0.00    +0.019 A 
ATOM     20  C   UNL     1      -1.078   4.476  -0.316  0.00  0.00    +0.021 A 
ATOM     21  C   UNL     1       0.210   4.740   0.127  0.00  0.00    +0.075 A 
ATOM     22  S   UNL     1       0.797   3.113   0.568  0.00  0.00    -0.082 S 
BRANCH  18  30
ATOM     23  C   UNL     1      -0.202  -3.858   1.155  0.00  0.00    +0.002 A 
ATOM     24  C   UNL     1      -1.493  -4.114   0.711  0.00  0.00    +0.001 A 
ATOM     25  C   UNL     1      -2.280  -3.065   0.275  0.00  0.00    +0.017 A 
ATOM     26  C   UNL     1      -1.772  -1.789   0.288  0.00  0.00    +0.040 A 
ATOM     27  C   UNL     1      -0.461  -1.496   0.734  0.00  0.00    +0.079 A 
ATOM     28  C   UNL     1       0.310  -2.600   1.173  0.00  0.00    +0.029 A 
ATOM     29  N   UNL     1      -0.105  -0.204   0.689  0.00  0.00    -0.239 NA
ATOM     30  C   UNL     1      -0.915   0.741   0.258  0.00  0.00    +0.116 A 
ATOM     31  S   UNL     1      -2.388  -0.183  -0.155  0.00  0.00    -0.067 S 
ENDBRANCH  18  30
ENDBRANCH   1  21
TORSDOF 3
