REMARK  Name = ZINC48767982
REMARK  10 active torsions:
REMARK  status: ('A' for Active; 'I' for Inactive)
REMARK    1  A    between atoms: C_1  and  C_2
REMARK    2  A    between atoms: C_2  and  C_4
REMARK    3  A    between atoms: C_2  and  N_11
REMARK    4  A    between atoms: N_14  and  C_15
REMARK    5  A    between atoms: C_15  and  C_16
REMARK    6  A    between atoms: C_16  and  C_17
REMARK    7  A    between atoms: C_17  and  C_18
REMARK    8  A    between atoms: C_17  and  C_24
REMARK    9  A    between atoms: C_17  and  O_28
REMARK   10  A    between atoms: N_22  and  C_23
REMARK                            x       y       z     vdW  Elec       q    Type
REMARK                         _______ _______ _______ _____ _____    ______ ____
ROOT
ATOM      1  N   UNL     1      -0.657  -0.563  -0.366  0.00  0.00    -0.293 N 
ATOM      2  C   UNL     1      -1.330  -0.635  -1.531  0.00  0.00    +0.300 C 
ATOM      3  O   UNL     1      -0.770  -0.358  -2.574  0.00  0.00    -0.253 OA
ATOM      4  N   UNL     1      -2.623  -1.014  -1.540  0.00  0.00    -0.299 N 
ATOM      5  H   UNL     1      -1.103  -0.784   0.467  0.00  0.00    +0.151 HD
ATOM      6  H   UNL     1      -3.070  -1.235  -0.708  0.00  0.00    +0.150 HD
ENDROOT
BRANCH   1   8
ATOM      7  C   UNL     1       0.834   1.371  -0.218  0.00  0.00    +0.033 C 
ATOM      8  C   UNL     1       0.749  -0.151  -0.356  0.00  0.00    +0.103 C 
BRANCH   8   9
ATOM      9  C   UNL     1       1.455  -0.800   0.806  0.00  0.00    -0.009 A 
ATOM     10  C   UNL     1       0.743  -1.157   1.936  0.00  0.00    +0.007 A 
ATOM     11  C   UNL     1       1.390  -1.752   3.002  0.00  0.00    +0.000 A 
ATOM     12  C   UNL     1       2.750  -1.993   2.939  0.00  0.00    +0.001 A 
ATOM     13  C   UNL     1       3.463  -1.637   1.810  0.00  0.00    +0.020 A 
ATOM     14  C   UNL     1       2.815  -1.046   0.740  0.00  0.00    +0.046 A 
ATOM     15 CL   UNL     1       3.709  -0.605  -0.681  0.00  0.00    -0.083 Cl
ENDBRANCH   8   9
ENDBRANCH   1   8
BRANCH   4  16
ATOM     16  C   UNL     1      -3.355  -1.092  -2.807  0.00  0.00    +0.109 C 
BRANCH  16  17
ATOM     17  C   UNL     1      -4.792  -1.543  -2.539  0.00  0.00    +0.071 C 
BRANCH  17  18
ATOM     18  C   UNL     1      -5.518  -1.751  -3.869  0.00  0.00    +0.220 C 
BRANCH  18  19
ATOM     19  C   UNL     1      -5.600  -0.439  -4.607  0.00  0.00    +0.150 A 
ATOM     20  N   UNL     1      -5.122   0.701  -4.187  0.00  0.00    -0.237 NA
ATOM     21  C   UNL     1      -5.377   1.650  -5.099  0.00  0.00    +0.130 A 
ATOM     22  C   UNL     1      -6.037   1.077  -6.124  0.00  0.00    +0.106 A 
ATOM     23  N   UNL     1      -6.174  -0.249  -5.814  0.00  0.00    -0.335 N 
ATOM     24  C   UNL     1      -6.824  -1.271  -6.638  0.00  0.00    +0.150 C 
ENDBRANCH  18  19
BRANCH  18  25
ATOM     25  C   UNL     1      -6.931  -2.275  -3.603  0.00  0.00    +0.425 C 
ATOM     26  F   UNL     1      -7.680  -1.287  -2.955  0.00  0.00    -0.167 F 
ATOM     27  F   UNL     1      -7.543  -2.603  -4.818  0.00  0.00    -0.167 F 
ATOM     28  F   UNL     1      -6.861  -3.414  -2.794  0.00  0.00    -0.167 F 
ENDBRANCH  18  25
BRANCH  18  29
ATOM     29  O   UNL     1      -4.800  -2.699  -4.662  0.00  0.00    -0.373 OA
ATOM     30  H   UNL     1      -3.894  -2.431  -4.869  0.00  0.00    +0.211 HD
ENDBRANCH  18  29
ENDBRANCH  17  18
ENDBRANCH  16  17
ENDBRANCH   4  16
TORSDOF 8
