REMARK  Name = ZINC40669787
REMARK  7 active torsions:
REMARK  status: ('A' for Active; 'I' for Inactive)
REMARK    1  A    between atoms: C_1  and  C_2
REMARK    2  A    between atoms: C_7  and  C_9
REMARK    3  A    between atoms: C_7  and  N_20
REMARK    4  A    between atoms: C_9  and  N_10
REMARK    5  A    between atoms: N_10  and  C_11
REMARK    6  A    between atoms: N_20  and  C_21
REMARK    7  A    between atoms: N_20  and  C_22
REMARK                            x       y       z     vdW  Elec       q    Type
REMARK                         _______ _______ _______ _____ _____    ______ ____
ROOT
ATOM      1  C   UNL     1       0.976  -1.996   0.039  0.00  0.00    +0.069 C 
ENDROOT
BRANCH   1   7
ATOM      2  C   UNL     1       0.240   2.153   1.027  0.00  0.00    +0.007 C 
ATOM      3  C   UNL     1      -0.006   0.662   0.783  0.00  0.00    -0.015 C 
ATOM      4  C   UNL     1      -1.480   0.340   1.039  0.00  0.00    +0.003 C 
ATOM      5  C   UNL     1      -1.725  -1.150   0.795  0.00  0.00    -0.001 C 
ATOM      6  C   UNL     1      -0.851  -1.974   1.743  0.00  0.00    -0.011 C 
ATOM      7  C   UNL     1       0.623  -1.651   1.487  0.00  0.00    -0.053 C 
ATOM      8  C   UNL     1       0.868  -0.161   1.731  0.00  0.00    -0.008 C 
BRANCH   7   9
ATOM      9  N   UNL     1       1.462  -2.441   2.397  0.00  0.00    +0.381 N 
ATOM     10  C   UNL     1       1.371  -3.863   2.038  0.00  0.00    -0.096 C 
ATOM     11  C   UNL     1       2.858  -1.997   2.286  0.00  0.00    -0.096 C 
ATOM     12  H   UNL     1       1.143  -2.313   3.346  0.00  0.00    -0.082 HD
ENDBRANCH   7   9
ENDBRANCH   1   7
BRANCH   1  13
ATOM     13  N   UNL     1       2.356  -1.579  -0.241  0.00  0.00    -0.307 NA
ATOM     14  H   UNL     1       2.517  -0.631   0.066  0.00  0.00    +0.123 HD
BRANCH  13  15
ATOM     15  C   UNL     1       2.674  -1.731  -1.667  0.00  0.00    +0.140 C 
ATOM     16  C   UNL     1       3.358  -3.080  -1.901  0.00  0.00    +0.028 C 
ATOM     17  C   UNL     1       4.239  -3.447  -0.721  0.00  0.00    +0.003 C 
ATOM     18  C   UNL     1       5.439  -2.535  -0.545  0.00  0.00    +0.019 C 
ATOM     19  C   UNL     1       4.999  -1.124  -0.151  0.00  0.00    +0.104 C 
ATOM     20  N   UNL     1       4.709  -0.361  -1.376  0.00  0.00    -0.314 N 
ATOM     21  C   UNL     1       3.617  -0.628  -2.099  0.00  0.00    +0.230 C 
ATOM     22  O   UNL     1       3.383   0.008  -3.105  0.00  0.00    -0.274 OA
ATOM     23  H   UNL     1       5.314   0.342  -1.660  0.00  0.00    +0.149 HD
ENDBRANCH  13  15
ENDBRANCH   1  13
TORSDOF 4
