REMARK  Name = ZINC66178618
REMARK  9 active torsions:
REMARK  status: ('A' for Active; 'I' for Inactive)
REMARK    1  A    between atoms: C_1  and  C_2
REMARK    2  A    between atoms: C_2  and  C_3
REMARK    3  A    between atoms: C_2  and  N_4
REMARK    4  A    between atoms: N_4  and  C_5
REMARK    5  A    between atoms: N_4  and  C_6
REMARK    6  A    between atoms: C_6  and  C_7
REMARK    7  A    between atoms: C_12  and  C_13
REMARK    8  A    between atoms: C_13  and  N_14
REMARK    9  A    between atoms: C_20  and  N_23
REMARK                            x       y       z     vdW  Elec       q    Type
REMARK                         _______ _______ _______ _____ _____    ______ ____
ROOT
ATOM      1  N   UNL     1      -2.157  -3.412  -2.716  0.00  0.00    -0.295 N 
ATOM      2  C   UNL     1      -1.539  -3.254  -3.904  0.00  0.00    +0.302 C 
ATOM      3  O   UNL     1      -1.765  -2.269  -4.580  0.00  0.00    -0.253 OA
ATOM      4  N   UNL     1      -0.671  -4.187  -4.342  0.00  0.00    -0.287 N 
ATOM      5  C   UNL     1      -0.312  -5.423  -3.631  0.00  0.00    +0.108 C 
ATOM      6  C   UNL     1       0.688  -6.190  -4.522  0.00  0.00    +0.005 C 
ATOM      7  C   UNL     1       0.404  -5.617  -5.936  0.00  0.00    -0.049 C 
ATOM      8  C   UNL     1       0.070  -4.141  -5.615  0.00  0.00    +0.094 C 
ATOM      9  H   UNL     1      -1.976  -4.197  -2.177  0.00  0.00    +0.151 HD
ENDROOT
BRANCH   7  10
ATOM     10  N   UNL     1       1.592  -5.717  -6.794  0.00  0.00    +0.383 N 
ATOM     11  C   UNL     1       1.949  -7.143  -7.010  0.00  0.00    -0.078 C 
ATOM     12  C   UNL     1       2.791  -7.104  -8.310  0.00  0.00    -0.020 C 
ATOM     13  C   UNL     1       2.075  -6.024  -9.153  0.00  0.00    -0.020 C 
ATOM     14  C   UNL     1       1.301  -5.167  -8.135  0.00  0.00    -0.078 C 
ATOM     15  H   UNL     1       2.366  -5.223  -6.376  0.00  0.00    -0.081 HD
ENDBRANCH   7  10
BRANCH   1  16
ATOM     16  C   UNL     1      -3.100  -2.397  -2.241  0.00  0.00    +0.141 C 
BRANCH  16  22
ATOM     17  C   UNL     1      -2.758  -2.417   0.239  0.00  0.00    -0.059 A 
ATOM     18  C   UNL     1      -3.174  -2.731   1.519  0.00  0.00    +0.002 A 
ATOM     19  C   UNL     1      -4.380  -3.378   1.715  0.00  0.00    +0.000 A 
ATOM     20  C   UNL     1      -5.170  -3.711   0.630  0.00  0.00    +0.000 A 
ATOM     21  C   UNL     1      -4.755  -3.396  -0.650  0.00  0.00    +0.005 A 
ATOM     22  C   UNL     1      -3.551  -2.745  -0.845  0.00  0.00    -0.029 A 
BRANCH  17  23
ATOM     23  C   UNL     1      -1.444  -1.712   0.025  0.00  0.00    -0.043 C 
BRANCH  23  24
ATOM     24  N   UNL     1      -0.416  -2.694  -0.344  0.00  0.00    +0.382 N 
ATOM     25  C   UNL     1      -0.186  -3.610   0.781  0.00  0.00    -0.095 C 
ATOM     26  H   UNL     1      -0.726  -3.220  -1.147  0.00  0.00    -0.081 HD
BRANCH  24  28
ATOM     27  C   UNL     1       1.905  -3.018  -1.055  0.00  0.00    -0.014 C 
ATOM     28  C   UNL     1       0.835  -1.995  -0.670  0.00  0.00    -0.075 C 
ATOM     29  C   UNL     1       0.595  -1.041  -1.842  0.00  0.00    -0.014 C 
ENDBRANCH  24  28
ENDBRANCH  23  24
ENDBRANCH  17  23
ENDBRANCH  16  22
ENDBRANCH   1  16
TORSDOF 6
