REMARK  Name = ZINC02456294
REMARK  5 active torsions:
REMARK  status: ('A' for Active; 'I' for Inactive)
REMARK    1  A    between atoms: C_1  and  C_2
REMARK    2  A    between atoms: C_2  and  C_3
REMARK    3  A    between atoms: C_2  and  C_4
REMARK    4  A    between atoms: C_4  and  C_5
REMARK    5  A    between atoms: C_18  and  C_20
REMARK                            x       y       z     vdW  Elec       q    Type
REMARK                         _______ _______ _______ _____ _____    ______ ____
ROOT
ATOM      1  C   UNL     1      -1.341   0.684   2.156  0.00  0.00    +0.217 C 
ATOM      2  O   UNL     1      -1.953   1.129   3.104  0.00  0.00    -0.276 OA
ATOM      3  N   UNL     1      -0.664   1.517   1.341  0.00  0.00    -0.282 N 
ATOM      4  C   UNL     1       0.057   0.946   0.216  0.00  0.00    +0.204 C 
ATOM      5  C   UNL     1      -0.618   1.313  -1.065  0.00  0.00    +0.235 C 
ATOM      6  O   UNL     1      -0.591   0.487  -1.952  0.00  0.00    -0.274 OA
ATOM      7  N   UNL     1      -1.231   2.432  -1.326  0.00  0.00    -0.284 N 
ATOM      8  C   UNL     1      -1.778   3.468  -0.607  0.00  0.00    +0.039 A 
ATOM      9  C   UNL     1      -2.608   4.332  -1.342  0.00  0.00    +0.025 A 
ATOM     10  C   UNL     1      -3.227   5.406  -0.752  0.00  0.00    +0.017 A 
ATOM     11  C   UNL     1      -3.030   5.655   0.595  0.00  0.00    +0.018 A 
ATOM     12  C   UNL     1      -2.208   4.823   1.323  0.00  0.00    +0.023 A 
ATOM     13  C   UNL     1      -1.573   3.733   0.732  0.00  0.00    -0.000 A 
ATOM     14  C   UNL     1      -0.688   2.926   1.631  0.00  0.00    +0.139 C 
ATOM     15 BR   UNL     1      -3.881   7.124   1.429  0.00  0.00    -0.050 Br
ATOM     16  H   UNL     1      -1.329   2.571  -2.281  0.00  0.00    +0.155 HD
ENDROOT
BRANCH  14  17
ATOM     17  C   UNL     1       0.717   3.462   1.524  0.00  0.00    -0.022 A 
ATOM     18  C   UNL     1       1.360   3.944   2.648  0.00  0.00    +0.008 A 
ATOM     19  C   UNL     1       2.650   4.430   2.551  0.00  0.00    +0.038 A 
ATOM     20  C   UNL     1       3.294   4.446   1.326  0.00  0.00    +0.123 A 
ATOM     21  C   UNL     1       2.646   3.968   0.199  0.00  0.00    +0.038 A 
ATOM     22  C   UNL     1       1.358   3.477   0.299  0.00  0.00    +0.008 A 
ATOM     23  F   UNL     1       4.552   4.927   1.229  0.00  0.00    -0.205 F 
ENDBRANCH  14  17
BRANCH   1  24
ATOM     24  C   UNL     1      -1.338  -0.799   1.889  0.00  0.00    +0.099 C 
BRANCH  24  26
ATOM     25  C   UNL     1      -3.638  -1.079   2.824  0.00  0.00    +0.008 C 
ATOM     26  C   UNL     1      -2.176  -1.510   2.953  0.00  0.00    -0.008 C 
ATOM     27  C   UNL     1      -2.071  -3.024   2.757  0.00  0.00    +0.008 C 
ENDBRANCH  24  26
ENDBRANCH   1  24
TORSDOF 3
