REMARK  Name = ZINC24659490
REMARK  7 active torsions:
REMARK  status: ('A' for Active; 'I' for Inactive)
REMARK    1  A    between atoms: C_1  and  C_2
REMARK    2  A    between atoms: C_5  and  S_28
REMARK    3  A    between atoms: C_7  and  C_8
REMARK    4  A    between atoms: N_10  and  C_11
REMARK    5  A    between atoms: C_11  and  C_13
REMARK    6  A    between atoms: C_11  and  C_23
REMARK    7  A    between atoms: S_28  and  N_31
REMARK                            x       y       z     vdW  Elec       q    Type
REMARK                         _______ _______ _______ _____ _____    ______ ____
ROOT
ATOM      1  C   UNL     1       0.055   1.175  -0.488  0.00  0.00    +0.245 C 
ATOM      2  O   UNL     1       0.095  -0.039  -0.516  0.00  0.00    -0.270 OA
ATOM      3  N   UNL     1      -1.114   1.816  -0.689  0.00  0.00    -0.300 N 
ATOM      4  H   UNL     1      -1.150   2.915  -0.664  0.00  0.00    +0.150 HD
ENDROOT
BRANCH   1  11
ATOM      5  C   UNL     1       2.498  -0.209   0.208  0.00  0.00    +0.044 C 
ATOM      6  C   UNL     1       2.474   1.294   0.096  0.00  0.00    -0.038 A 
ATOM      7  C   UNL     1       3.624   2.022   0.320  0.00  0.00    +0.006 A 
ATOM      8  C   UNL     1       3.602   3.402   0.224  0.00  0.00    +0.029 A 
ATOM      9  C   UNL     1       2.429   4.060  -0.104  0.00  0.00    +0.106 A 
ATOM     10  C   UNL     1       1.274   3.343  -0.336  0.00  0.00    +0.041 A 
ATOM     11  C   UNL     1       1.290   1.950  -0.240  0.00  0.00    +0.041 A 
BRANCH   9  12
ATOM     12  S   UNL     1       2.412   5.818  -0.225  0.00  0.00    +0.056 S 
ATOM     13  O   UNL     1       3.748   6.220  -0.495  0.00  0.00    -0.153 OA
ATOM     14  O   UNL     1       1.327   6.156  -1.078  0.00  0.00    -0.153 OA
BRANCH  12  15
ATOM     15  N   UNL     1       2.035   6.408   1.276  0.00  0.00    -0.204 NA
ATOM     16  H   UNL     1       2.014   7.507   1.243  0.00  0.00    +0.144 HD
ATOM     17  H   UNL     1       2.793   6.077   2.001  0.00  0.00    +0.144 HD
ENDBRANCH  12  15
ENDBRANCH   9  12
ENDBRANCH   1  11
BRANCH   3  18
ATOM     18  C   UNL     1      -2.336   1.048  -0.941  0.00  0.00    +0.140 C 
BRANCH  18  19
ATOM     19  C   UNL     1      -3.313   1.898  -1.710  0.00  0.00    -0.022 A 
ATOM     20  C   UNL     1      -3.460   3.238  -1.403  0.00  0.00    +0.006 A 
ATOM     21  C   UNL     1      -4.359   4.008  -2.110  0.00  0.00    +0.004 A 
ATOM     22  C   UNL     1      -5.117   3.450  -3.132  0.00  0.00    -0.044 A 
ATOM     23  C   UNL     1      -4.968   2.117  -3.441  0.00  0.00    -0.044 A 
ATOM     24  C   UNL     1      -4.061   1.343  -2.728  0.00  0.00    +0.009 A 
ATOM     25  C   UNL     1      -5.750   1.448  -4.541  0.00  0.00    +0.035 C 
ATOM     26  C   UNL     1      -6.968   2.287  -4.922  0.00  0.00    +0.005 C 
ATOM     27  C   UNL     1      -6.501   3.723  -5.188  0.00  0.00    +0.005 C 
ATOM     28  C   UNL     1      -6.083   4.348  -3.859  0.00  0.00    +0.035 C 
ENDBRANCH  18  19
BRANCH  18  29
ATOM     29  C   UNL     1      -2.951   0.639   0.373  0.00  0.00    +0.014 A 
ATOM     30  C   UNL     1      -3.541  -0.534   0.711  0.00  0.00    +0.013 A 
ATOM     31  C   UNL     1      -4.038  -0.690   1.991  0.00  0.00    +0.008 A 
ATOM     32  C   UNL     1      -3.932   0.338   2.867  0.00  0.00    +0.045 A 
ATOM     33  S   UNL     1      -3.100   1.576   1.885  0.00  0.00    -0.099 S 
ENDBRANCH  18  29
ENDBRANCH   3  18
TORSDOF 6
