REMARK  Name = ZINC08773130
REMARK  5 active torsions:
REMARK  status: ('A' for Active; 'I' for Inactive)
REMARK    1  A    between atoms: C_1  and  C_2
REMARK    2  A    between atoms: C_9  and  C_27
REMARK    3  A    between atoms: C_11  and  C_18
REMARK    4  A    between atoms: C_22  and  N_24
REMARK    5  A    between atoms: C_27  and  C_29
REMARK                            x       y       z     vdW  Elec       q    Type
REMARK                         _______ _______ _______ _____ _____    ______ ____
ROOT
ATOM      1  C   UNL     1       5.676  -1.915  -4.218  0.00  0.00    +0.044 C 
ATOM      2  C   UNL     1       5.667  -0.941  -3.069  0.00  0.00    -0.050 A 
ATOM      3  C   UNL     1       6.781  -0.163  -2.811  0.00  0.00    +0.005 A 
ATOM      4  C   UNL     1       6.778   0.733  -1.762  0.00  0.00    +0.024 A 
ATOM      5  C   UNL     1       5.652   0.859  -0.952  0.00  0.00    +0.036 A 
ATOM      6  C   UNL     1       4.537   0.070  -1.220  0.00  0.00    -0.027 A 
ATOM      7  C   UNL     1       4.544  -0.822  -2.269  0.00  0.00    +0.008 A 
ATOM      8  C   UNL     1       3.515   0.439  -0.183  0.00  0.00    +0.052 C 
ATOM      9  C   UNL     1       3.118  -0.783   0.666  0.00  0.00    +0.069 C 
ATOM     10  C   UNL     1       2.006  -1.421  -0.212  0.00  0.00    +0.016 C 
ATOM     11  C   UNL     1       1.325  -0.196  -0.859  0.00  0.00    -0.047 C 
ATOM     12  C   UNL     1       1.795   2.131  -0.069  0.00  0.00    -0.005 C 
ATOM     13  S   UNL     1      -0.037   1.908  -0.141  0.00  0.00    -0.181 S 
ATOM     14  C   UNL     1      -0.023   0.060  -0.147  0.00  0.00    +0.052 C 
ATOM     15  C   UNL     1       4.175   1.495   0.660  0.00  0.00    +0.212 C 
ATOM     16  O   UNL     1       3.691   2.068   1.613  0.00  0.00    -0.277 OA
ATOM     17  N   UNL     1       5.409   1.681   0.151  0.00  0.00    -0.286 N 
ATOM     18  H   UNL     1       6.052   2.312   0.508  0.00  0.00    +0.155 HD
ATOM     19  N   UNL     1       2.304   0.923  -0.822  0.00  0.00    +0.401 N 
ATOM     20  H   UNL     1       2.515   1.206  -1.786  0.00  0.00    -0.078 HD
ENDROOT
BRANCH  10  21
ATOM     21  C   UNL     1       1.027  -2.186   0.642  0.00  0.00    -0.043 A 
ATOM     22  C   UNL     1       0.536  -1.622   1.804  0.00  0.00    +0.004 A 
ATOM     23  C   UNL     1      -0.362  -2.323   2.587  0.00  0.00    +0.002 A 
ATOM     24  C   UNL     1      -0.769  -3.588   2.207  0.00  0.00    +0.033 A 
ATOM     25  C   UNL     1      -0.279  -4.152   1.044  0.00  0.00    +0.126 A 
ATOM     26  C   UNL     1       0.616  -3.449   0.259  0.00  0.00    +0.036 A 
BRANCH  25  27
ATOM     27  N   UNL     1      -0.715  -5.506   0.636  0.00  0.00    +0.056 N 
ATOM     28  O   UNL     1      -1.507  -6.124   1.326  0.00  0.00    -0.126 OA
ATOM     29  O   UNL     1      -0.283  -6.003  -0.388  0.00  0.00    -0.126 OA
ENDBRANCH  25  27
ENDBRANCH  10  21
BRANCH   9  30
ATOM     30  C   UNL     1       2.572  -0.357   2.005  0.00  0.00    +0.166 C 
ATOM     31  O   UNL     1       1.996   0.705   2.114  0.00  0.00    -0.292 OA
BRANCH  30  32
ATOM     32  C   UNL     1       2.738  -1.229   3.178  0.00  0.00    +0.018 A 
ATOM     33  C   UNL     1       3.396  -2.456   3.054  0.00  0.00    +0.011 A 
ATOM     34  C   UNL     1       3.552  -3.266   4.160  0.00  0.00    +0.001 A 
ATOM     35  C   UNL     1       3.049  -2.871   5.387  0.00  0.00    +0.000 A 
ATOM     36  C   UNL     1       2.392  -1.660   5.517  0.00  0.00    +0.001 A 
ATOM     37  C   UNL     1       2.232  -0.837   4.422  0.00  0.00    +0.011 A 
ENDBRANCH  30  32
ENDBRANCH   9  30
TORSDOF 4
