REMARK  Name = ZINC39775535
REMARK  12 active torsions:
REMARK  status: ('A' for Active; 'I' for Inactive)
REMARK    1  A    between atoms: C_1  and  C_2
REMARK    2  A    between atoms: C_2  and  N_3
REMARK    3  A    between atoms: C_6  and  O_36
REMARK    4  A    between atoms: C_11  and  C_12
REMARK    5  A    between atoms: C_13  and  C_14
REMARK    6  A    between atoms: N_16  and  C_34
REMARK    7  A    between atoms: C_20  and  C_24
REMARK    8  A    between atoms: C_25  and  C_26
REMARK    9  A    between atoms: C_29  and  O_32
REMARK   10  A    between atoms: O_32  and  C_33
REMARK   11  A    between atoms: C_34  and  C_35
REMARK   12  A    between atoms: O_36  and  C_37
REMARK                            x       y       z     vdW  Elec       q    Type
REMARK                         _______ _______ _______ _____ _____    ______ ____
ROOT
ATOM      1  C   UNL     1       4.569  -1.698   0.697  0.00  0.00    +0.031 C 
ATOM      2  C   UNL     1       5.934  -1.506   0.753  0.00  0.00    +0.073 C 
ATOM      3  N   UNL     1       6.834  -1.418  -0.280  0.00  0.00    -0.294 N 
ATOM      4  C   UNL     1       8.177  -1.222  -0.014  0.00  0.00    +0.048 A 
ATOM      5  C   UNL     1       9.223  -1.111  -0.950  0.00  0.00    +0.025 A 
ATOM      6  C   UNL     1      10.518  -0.917  -0.545  0.00  0.00    +0.010 A 
ATOM      7  C   UNL     1      10.844  -0.823   0.813  0.00  0.00    -0.024 A 
ATOM      8  C   UNL     1       9.820  -0.931   1.761  0.00  0.00    +0.025 A 
ATOM      9  C   UNL     1       8.529  -1.125   1.342  0.00  0.00    +0.036 A 
ATOM     10  S   UNL     1       6.976  -1.303   2.188  0.00  0.00    -0.072 S 
ENDROOT
BRANCH   1  12
ATOM     11  C   UNL     1       2.568  -1.875  -0.604  0.00  0.00    +0.033 C 
ATOM     12  C   UNL     1       3.894  -1.568  -0.523  0.00  0.00    +0.005 C 
BRANCH  11  21
ATOM     13  N   UNL     1       0.616  -1.990  -2.111  0.00  0.00    -0.335 N 
ATOM     14  C   UNL     1       0.100  -1.813  -3.343  0.00  0.00    +0.060 A 
ATOM     15  C   UNL     1      -1.232  -2.032  -3.769  0.00  0.00    +0.072 A 
ATOM     16  C   UNL     1      -1.598  -1.802  -5.074  0.00  0.00    +0.122 A 
ATOM     17  C   UNL     1      -0.679  -1.349  -6.015  0.00  0.00    +0.047 A 
ATOM     18  C   UNL     1       0.631  -1.125  -5.629  0.00  0.00    +0.021 A 
ATOM     19  C   UNL     1       1.004  -1.352  -4.329  0.00  0.00    +0.038 A 
ATOM     20  S   UNL     1       2.522  -1.208  -3.417  0.00  0.00    -0.070 S 
ATOM     21  C   UNL     1       1.887  -1.744  -1.835  0.00  0.00    +0.081 A 
BRANCH  13  23
ATOM     22  C   UNL     1      -0.903  -1.268  -0.335  0.00  0.00    +0.027 C 
ATOM     23  C   UNL     1      -0.262  -2.466  -1.038  0.00  0.00    +0.119 C 
ENDBRANCH  13  23
BRANCH  16  24
ATOM     24  O   UNL     1      -2.885  -2.022  -5.454  0.00  0.00    -0.495 OA
ATOM     25  C   UNL     1      -3.211  -1.767  -6.821  0.00  0.00    +0.277 C 
ENDBRANCH  16  24
ENDBRANCH  11  21
ENDBRANCH   1  12
BRANCH   7  26
ATOM     26  C   UNL     1      12.240  -0.616   1.236  0.00  0.00    +0.008 C 
ATOM     27  C   UNL     1      13.213  -0.514   0.316  0.00  0.00    +0.008 C 
BRANCH  27  28
ATOM     28  C   UNL     1      14.609  -0.306   0.739  0.00  0.00    -0.025 A 
ATOM     29  C   UNL     1      14.924  -0.220   2.098  0.00  0.00    +0.011 A 
ATOM     30  C   UNL     1      16.231  -0.027   2.490  0.00  0.00    +0.046 A 
ATOM     31  C   UNL     1      17.235   0.083   1.536  0.00  0.00    +0.120 A 
ATOM     32  C   UNL     1      16.927  -0.001   0.184  0.00  0.00    +0.046 A 
ATOM     33  C   UNL     1      15.623  -0.201  -0.217  0.00  0.00    +0.011 A 
BRANCH  31  34
ATOM     34  O   UNL     1      18.522   0.274   1.926  0.00  0.00    -0.495 OA
ATOM     35  C   UNL     1      19.504   0.379   0.894  0.00  0.00    +0.277 C 
ENDBRANCH  31  34
ENDBRANCH  27  28
ENDBRANCH   7  26
BRANCH   3  36
ATOM     36  C   UNL     1       6.371  -1.533  -1.665  0.00  0.00    +0.108 C 
ATOM     37  C   UNL     1       5.911  -0.161  -2.164  0.00  0.00    +0.025 C 
ENDBRANCH   3  36
TORSDOF 8
